REMARK  Name = ZINC39964690
REMARK  5 active torsions:
REMARK  status: ('A' for Active; 'I' for Inactive)
REMARK    1  A    between atoms: C_4  and  N_7
REMARK    2  A    between atoms: C_8  and  C_25
REMARK    3  A    between atoms: C_12  and  S_14
REMARK    4  A    between atoms: S_14  and  C_15
REMARK    5  A    between atoms: C_15  and  C_16
REMARK                            x       y       z     vdW  Elec       q    Type
REMARK                         _______ _______ _______ _____ _____    ______ ____
ROOT
ATOM      1  N   UNL     1       3.519  -0.682  -0.102  0.00  0.00    -0.273 N 
ATOM      2  C   UNL     1       3.824  -2.120   0.001  0.00  0.00    +0.220 C 
ATOM      3  N   UNL     1       5.283  -2.231   0.043  0.00  0.00    -0.286 N 
ATOM      4  N   UNL     1       5.826  -1.129  -0.017  0.00  0.00    -0.180 NA
ATOM      5  C   UNL     1       4.848  -0.045  -0.119  0.00  0.00    +0.273 C 
ATOM      6  H   UNL     1       5.763  -3.071   0.111  0.00  0.00    +0.185 HD
ENDROOT
BRANCH   2   7
ATOM      7  C   UNL     1       3.224  -2.688   1.262  0.00  0.00    +0.012 A 
ATOM      8  C   UNL     1       2.587  -1.853   2.161  0.00  0.00    +0.009 A 
ATOM      9  C   UNL     1       2.037  -2.373   3.317  0.00  0.00    +0.000 A 
ATOM     10  C   UNL     1       2.124  -3.728   3.576  0.00  0.00    +0.001 A 
ATOM     11  C   UNL     1       2.760  -4.564   2.678  0.00  0.00    +0.020 A 
ATOM     12  C   UNL     1       3.306  -4.045   1.517  0.00  0.00    +0.048 A 
ATOM     13 CL   UNL     1       4.101  -5.095   0.386  0.00  0.00    -0.083 Cl
ENDBRANCH   2   7
BRANCH   1  17
ATOM     14  C   UNL     1      -0.214   1.148  -0.313  0.00  0.00    +0.000 A 
ATOM     15  C   UNL     1       0.929   1.921  -0.230  0.00  0.00    +0.002 A 
ATOM     16  C   UNL     1       2.169   1.317  -0.159  0.00  0.00    +0.023 A 
ATOM     17  C   UNL     1       2.267  -0.068  -0.172  0.00  0.00    +0.034 A 
ATOM     18  C   UNL     1       1.116  -0.842  -0.257  0.00  0.00    +0.023 A 
ATOM     19  C   UNL     1      -0.121  -0.232  -0.327  0.00  0.00    +0.002 A 
ENDBRANCH   1  17
BRANCH   5  20
ATOM     20  S   UNL     1       5.018   1.078   1.296  0.00  0.00    -0.106 S 
BRANCH  20  21
ATOM     21  C   UNL     1       5.030  -0.028   2.734  0.00  0.00    +0.147 C 
BRANCH  21  22
ATOM     22  C   UNL     1       5.312   0.772   3.980  0.00  0.00    +0.118 A 
ATOM     23  N   UNL     1       4.406   1.329   4.729  0.00  0.00    -0.232 NA
ATOM     24  C   UNL     1       5.002   1.970   5.767  0.00  0.00    +0.089 A 
ATOM     25  C   UNL     1       4.518   2.714   6.846  0.00  0.00    +0.030 A 
ATOM     26  C   UNL     1       5.392   3.247   7.752  0.00  0.00    +0.002 A 
ATOM     27  C   UNL     1       6.759   3.059   7.612  0.00  0.00    +0.002 A 
ATOM     28  C   UNL     1       7.259   2.329   6.554  0.00  0.00    +0.028 A 
ATOM     29  C   UNL     1       6.387   1.779   5.625  0.00  0.00    +0.066 A 
ATOM     30  N   UNL     1       6.551   1.012   4.488  0.00  0.00    -0.341 N 
ATOM     31  H   UNL     1       7.393   0.704   4.119  0.00  0.00    +0.167 HD
ENDBRANCH  21  22
ENDBRANCH  20  21
ENDBRANCH   5  20
TORSDOF 5
