REMARK  Name = ZINC04851232
REMARK  7 active torsions:
REMARK  status: ('A' for Active; 'I' for Inactive)
REMARK    1  A    between atoms: C_1  and  C_2
REMARK    2  A    between atoms: C_5  and  N_8
REMARK    3  A    between atoms: C_15  and  S_17
REMARK    4  A    between atoms: S_17  and  C_18
REMARK    5  A    between atoms: C_18  and  C_19
REMARK    6  A    between atoms: N_21  and  C_22
REMARK    7  A    between atoms: C_22  and  C_23
REMARK                            x       y       z     vdW  Elec       q    Type
REMARK                         _______ _______ _______ _____ _____    ______ ____
ROOT
ATOM      1  N   UNL     1       0.058  -4.170  -0.021  0.00  0.00    -0.269 N 
ATOM      2  C   UNL     1       0.174  -4.849   1.138  0.00  0.00    +0.310 C 
ATOM      3  O   UNL     1       0.172  -4.250   2.196  0.00  0.00    -0.252 OA
ATOM      4  N   UNL     1       0.294  -6.191   1.123  0.00  0.00    -0.247 N 
ATOM      5  C   UNL     1       0.414  -6.893   2.320  0.00  0.00    +0.190 A 
ATOM      6  N   UNL     1       0.427  -6.437   3.557  0.00  0.00    -0.125 NA
ATOM      7  N   UNL     1       0.557  -7.315   4.609  0.00  0.00    -0.133 NA
ATOM      8  C   UNL     1       0.669  -8.609   4.374  0.00  0.00    +0.160 A 
ATOM      9  S   UNL     1       0.584  -8.650   2.590  0.00  0.00    -0.024 S 
ATOM     10  H   UNL     1      -0.018  -4.651  -0.860  0.00  0.00    +0.156 HD
ATOM     11  H   UNL     1       0.296  -6.669   0.279  0.00  0.00    +0.158 HD
ENDROOT
BRANCH   1  16
ATOM     12  C   UNL     1       0.011   1.503   0.007  0.00  0.00    +0.044 C 
ATOM     13  C   UNL     1       0.024  -0.004  -0.000  0.00  0.00    -0.050 A 
ATOM     14  C   UNL     1       0.778  -0.692   0.931  0.00  0.00    +0.005 A 
ATOM     15  C   UNL     1       0.792  -2.073   0.927  0.00  0.00    +0.023 A 
ATOM     16  C   UNL     1       0.046  -2.771  -0.014  0.00  0.00    +0.035 A 
ATOM     17  C   UNL     1      -0.711  -2.076  -0.948  0.00  0.00    +0.023 A 
ATOM     18  C   UNL     1      -0.725  -0.695  -0.935  0.00  0.00    +0.005 A 
ENDBRANCH   1  16
BRANCH   8  19
ATOM     19  S   UNL     1       0.846  -9.940   5.515  0.00  0.00    -0.088 S 
BRANCH  19  20
ATOM     20  C   UNL     1       0.842  -9.130   7.138  0.00  0.00    +0.172 C 
BRANCH  20  21
ATOM     21  C   UNL     1       0.989 -10.170   8.219  0.00  0.00    +0.223 C 
ATOM     22  O   UNL     1       1.087 -11.342   7.923  0.00  0.00    -0.275 OA
ATOM     23  N   UNL     1       1.012  -9.798   9.514  0.00  0.00    -0.312 N 
ATOM     24  H   UNL     1       0.934  -8.860   9.750  0.00  0.00    +0.149 HD
BRANCH  23  25
ATOM     25  C   UNL     1       1.155 -10.809  10.564  0.00  0.00    +0.135 C 
BRANCH  25  26
ATOM     26  C   UNL     1       1.152 -10.126  11.933  0.00  0.00    +0.135 C 
ATOM     27  C   UNL     1       1.337 -11.175  13.058  0.00  0.00    +0.035 C 
ATOM     28  C   UNL     1       1.938 -10.294  14.187  0.00  0.00    +0.031 C 
ATOM     29  C   UNL     1       2.786  -9.277  13.393  0.00  0.00    +0.160 C 
ATOM     30  O   UNL     1       2.278  -9.242  12.052  0.00  0.00    -0.375 OA
ENDBRANCH  25  26
ENDBRANCH  23  25
ENDBRANCH  20  21
ENDBRANCH  19  20
ENDBRANCH   8  19
TORSDOF 6
