REMARK  Name = ZINC49418401
REMARK  4 active torsions:
REMARK  status: ('A' for Active; 'I' for Inactive)
REMARK    1  A    between atoms: C_3  and  N_17
REMARK    2  A    between atoms: C_4  and  S_7
REMARK    3  A    between atoms: S_7  and  C_8
REMARK    4  A    between atoms: C_8  and  C_9
REMARK                            x       y       z     vdW  Elec       q    Type
REMARK                         _______ _______ _______ _____ _____    ______ ____
ROOT
ATOM      1  S   UNL     1       3.804  -0.971  -0.040  0.00  0.00    -0.099 S 
ENDROOT
BRANCH   1   5
ATOM      2  C   UNL     1      -0.017   1.376   0.010  0.00  0.00    +0.022 A 
ATOM      3  C   UNL     1       1.185   2.073   0.002  0.00  0.00    +0.037 A 
ATOM      4  C   UNL     1       2.365   1.353  -0.013  0.00  0.00    +0.158 A 
ATOM      5  C   UNL     1       2.310  -0.037  -0.020  0.00  0.00    +0.127 A 
ATOM      6  N   UNL     1       1.144  -0.665  -0.013  0.00  0.00    -0.246 NA
ATOM      7  C   UNL     1       0.002  -0.004   0.002  0.00  0.00    +0.112 A 
BRANCH   4   8
ATOM      8  N   UNL     1       3.670   2.052  -0.022  0.00  0.00    +0.059 N 
ATOM      9  O   UNL     1       3.708   3.261  -0.017  0.00  0.00    -0.126 OA
ATOM     10  O   UNL     1       4.697   1.415  -0.036  0.00  0.00    -0.126 OA
ENDBRANCH   4   8
ENDBRANCH   1   5
BRANCH   1  11
ATOM     11  C   UNL     1       3.244  -2.696  -0.043  0.00  0.00    +0.111 C 
BRANCH  11  12
ATOM     12  C   UNL     1       4.441  -3.613  -0.060  0.00  0.00    -0.031 A 
ATOM     13  C   UNL     1       4.996  -4.033  -1.258  0.00  0.00    +0.044 A 
ATOM     14  C   UNL     1       6.094  -4.874  -1.235  0.00  0.00    +0.131 A 
ATOM     15  N   UNL     1       6.612  -5.276  -0.089  0.00  0.00    -0.224 NA
ATOM     16  C   UNL     1       6.109  -4.895   1.070  0.00  0.00    +0.131 A 
ATOM     17  C   UNL     1       5.015  -4.050   1.124  0.00  0.00    +0.044 A 
ATOM     18 CL   UNL     1       6.833  -5.457   2.545  0.00  0.00    -0.062 Cl
ATOM     19 CL   UNL     1       6.798  -5.407  -2.729  0.00  0.00    -0.062 Cl
ENDBRANCH  11  12
ENDBRANCH   1  11
TORSDOF 4
