REMARK  Name = ZINC09494413
REMARK  5 active torsions:
REMARK  status: ('A' for Active; 'I' for Inactive)
REMARK    1  A    between atoms: C_1  and  C_2
REMARK    2  A    between atoms: C_15  and  C_17
REMARK    3  A    between atoms: C_17  and  N_18
REMARK    4  A    between atoms: C_21  and  C_25
REMARK    5  A    between atoms: C_21  and  C_31
REMARK                            x       y       z     vdW  Elec       q    Type
REMARK                         _______ _______ _______ _____ _____    ______ ____
ROOT
ATOM      1  N   UNL     1      -2.118   6.759  -2.529  0.00  0.00    -0.215 N 
ATOM      2  C   UNL     1      -2.899   7.656  -3.163  0.00  0.00    +0.256 C 
ATOM      3  O   UNL     1      -3.856   8.246  -2.709  0.00  0.00    -0.272 OA
ATOM      4  C   UNL     1      -2.330   7.777  -4.563  0.00  0.00    +0.164 C 
ATOM      5  N   UNL     1      -1.193   6.840  -4.557  0.00  0.00    -0.278 N 
ATOM      6  C   UNL     1      -1.150   6.295  -3.327  0.00  0.00    +0.310 C 
ATOM      7  O   UNL     1      -0.325   5.474  -2.981  0.00  0.00    -0.252 OA
ATOM      8  H   UNL     1      -0.592   6.653  -5.295  0.00  0.00    +0.152 HD
ENDROOT
BRANCH   4   9
ATOM      9  C   UNL     1      -1.857   9.183  -4.829  0.00  0.00    -0.011 A 
ATOM     10  C   UNL     1      -0.598   9.401  -5.357  0.00  0.00    +0.006 A 
ATOM     11  C   UNL     1      -0.167  10.690  -5.605  0.00  0.00    +0.000 A 
ATOM     12  C   UNL     1      -0.990  11.762  -5.316  0.00  0.00    +0.000 A 
ATOM     13  C   UNL     1      -2.247  11.545  -4.783  0.00  0.00    +0.000 A 
ATOM     14  C   UNL     1      -2.680  10.255  -4.540  0.00  0.00    +0.006 A 
ENDBRANCH   4   9
BRANCH   4  15
ATOM     15  C   UNL     1      -3.353   7.361  -5.588  0.00  0.00    -0.011 A 
ATOM     16  C   UNL     1      -4.609   7.938  -5.585  0.00  0.00    +0.006 A 
ATOM     17  C   UNL     1      -5.547   7.560  -6.528  0.00  0.00    +0.000 A 
ATOM     18  C   UNL     1      -5.231   6.597  -7.468  0.00  0.00    +0.000 A 
ATOM     19  C   UNL     1      -3.977   6.015  -7.468  0.00  0.00    +0.000 A 
ATOM     20  C   UNL     1      -3.038   6.397  -6.528  0.00  0.00    +0.006 A 
ENDBRANCH   4  15
BRANCH   1  21
ATOM     21  C   UNL     1      -2.310   6.339  -1.139  0.00  0.00    +0.214 C 
BRANCH  21  35
ATOM     22  C   UNL     1      -1.723   8.914   2.665  0.00  0.00    +0.029 C 
ATOM     23  C   UNL     1      -0.778   7.910   2.003  0.00  0.00    +0.087 C 
ATOM     24  C   UNL     1      -0.094   7.067   3.081  0.00  0.00    +0.118 C 
ATOM     25  C   UNL     1       0.519   5.837   2.466  0.00  0.00    +0.219 C 
ATOM     26  O   UNL     1       1.720   5.779   2.304  0.00  0.00    -0.275 OA
ATOM     27  N   UNL     1      -0.259   4.797   2.094  0.00  0.00    -0.284 N 
ATOM     28  C   UNL     1      -1.653   4.884   2.186  0.00  0.00    +0.055 A 
ATOM     29  C   UNL     1      -2.391   3.869   2.771  0.00  0.00    +0.025 A 
ATOM     30  C   UNL     1      -3.770   3.962   2.822  0.00  0.00    +0.002 A 
ATOM     31  C   UNL     1      -4.414   5.059   2.279  0.00  0.00    +0.002 A 
ATOM     32  C   UNL     1      -3.684   6.080   1.700  0.00  0.00    +0.025 A 
ATOM     33  C   UNL     1      -2.301   6.001   1.658  0.00  0.00    +0.058 A 
ATOM     34  N   UNL     1      -1.542   7.042   1.105  0.00  0.00    -0.265 N 
ATOM     35  C   UNL     1      -1.518   7.241  -0.228  0.00  0.00    +0.238 C 
ATOM     36  O   UNL     1      -0.857   8.145  -0.694  0.00  0.00    -0.273 OA
ATOM     37  H   UNL     1       0.151   3.985   1.759  0.00  0.00    +0.155 HD
ENDBRANCH  21  35
ENDBRANCH   1  21
TORSDOF 4
