REMARK  Name = ZINC17860274
REMARK  7 active torsions:
REMARK  status: ('A' for Active; 'I' for Inactive)
REMARK    1  A    between atoms: C_1  and  C_2
REMARK    2  A    between atoms: C_9  and  C_29
REMARK    3  A    between atoms: C_9  and  C_30
REMARK    4  A    between atoms: N_13  and  C_14
REMARK    5  A    between atoms: C_17  and  S_20
REMARK    6  A    between atoms: S_20  and  N_23
REMARK    7  A    between atoms: C_24  and  C_26
REMARK                            x       y       z     vdW  Elec       q    Type
REMARK                         _______ _______ _______ _____ _____    ______ ____
ROOT
ATOM      1  C   UNL     1      -0.018   1.503   0.010  0.00  0.00    +0.044 C 
ATOM      2  C   UNL     1       0.002  -0.004   0.002  0.00  0.00    -0.049 A 
ATOM      3  C   UNL     1       0.006  -0.681  -1.205  0.00  0.00    +0.004 A 
ATOM      4  C   UNL     1       0.016  -2.066  -1.225  0.00  0.00    +0.011 A 
ATOM      5  C   UNL     1       0.018  -2.759  -0.026  0.00  0.00    +0.006 A 
ATOM      6  C   UNL     1       0.034  -2.081   1.194  0.00  0.00    +0.036 A 
ATOM      7  C   UNL     1       0.023  -0.694   1.201  0.00  0.00    +0.027 A 
ATOM      8  N   UNL     1       0.090  -2.801   2.391  0.00  0.00    -0.334 N 
ATOM      9  C   UNL     1      -0.530  -4.129   2.461  0.00  0.00    +0.059 C 
ATOM     10  C   UNL     1      -0.222  -4.882   1.182  0.00  0.00    +0.030 A 
ATOM     11  C   UNL     1       0.022  -4.272  -0.019  0.00  0.00    +0.029 A 
ATOM     12  C   UNL     1       0.272  -4.936  -1.257  0.00  0.00    +0.117 A 
ATOM     13  N   UNL     1       0.479  -4.351  -2.432  0.00  0.00    -0.240 NA
ATOM     14  S   UNL     1       0.256  -6.696  -0.944  0.00  0.00    -0.032 S 
ATOM     15  S   UNL     1      -0.145  -6.560   1.093  0.00  0.00    -0.052 S 
ATOM     16  C   UNL     1      -2.045  -3.980   2.614  0.00  0.00    +0.037 C 
ATOM     17  C   UNL     1       0.035  -4.897   3.657  0.00  0.00    +0.037 C 
ATOM     18  H   UNL     1       0.535  -2.426   3.167  0.00  0.00    +0.147 HD
ENDROOT
BRANCH  13  19
ATOM     19  C   UNL     1       0.707  -5.112  -3.541  0.00  0.00    +0.065 A 
ATOM     20  C   UNL     1       1.589  -6.196  -3.481  0.00  0.00    +0.030 A 
ATOM     21  C   UNL     1       1.813  -6.960  -4.607  0.00  0.00    +0.031 A 
ATOM     22  C   UNL     1       1.170  -6.656  -5.794  0.00  0.00    +0.113 A 
ATOM     23  C   UNL     1       0.296  -5.584  -5.861  0.00  0.00    +0.031 A 
ATOM     24  C   UNL     1       0.057  -4.814  -4.743  0.00  0.00    +0.030 A 
BRANCH  22  25
ATOM     25  S   UNL     1       1.464  -7.637  -7.227  0.00  0.00    +0.102 S 
ATOM     26  O   UNL     1       1.163  -6.819  -8.349  0.00  0.00    -0.146 OA
ATOM     27  O   UNL     1       2.736  -8.246  -7.048  0.00  0.00    -0.146 OA
BRANCH  25  28
ATOM     28  N   UNL     1       0.349  -8.861  -7.221  0.00  0.00    -0.091 NA
ATOM     29  C   UNL     1       0.343  -9.734  -8.171  0.00  0.00    +0.262 C 
ATOM     30  O   UNL     1       1.246  -9.649  -9.170  0.00  0.00    -0.270 OA
ATOM     31  C   UNL     1      -0.672 -10.848  -8.165  0.00  0.00    +0.116 C 
ENDBRANCH  25  28
ENDBRANCH  22  25
ENDBRANCH  13  19
TORSDOF 3
