REMARK  Name = ZINC36483162
REMARK  11 active torsions:
REMARK  status: ('A' for Active; 'I' for Inactive)
REMARK    1  A    between atoms: C_1  and  C_2
REMARK    2  A    between atoms: C_2  and  C_3
REMARK    3  A    between atoms: C_2  and  C_4
REMARK    4  A    between atoms: C_2  and  N_5
REMARK    5  A    between atoms: C_6  and  C_8
REMARK    6  A    between atoms: C_8  and  C_10
REMARK    7  A    between atoms: C_8  and  N_17
REMARK    8  A    between atoms: C_13  and  O_16
REMARK    9  A    between atoms: N_17  and  C_18
REMARK   10  A    between atoms: C_25  and  C_27
REMARK   11  A    between atoms: C_32  and  O_33
REMARK                            x       y       z     vdW  Elec       q    Type
REMARK                         _______ _______ _______ _____ _____    ______ ____
ROOT
ATOM      1  N   UNL     1       4.185  -0.560  -2.707  0.00  0.00    -0.251 N 
ATOM      2  C   UNL     1       4.607  -1.701  -2.124  0.00  0.00    +0.255 C 
ATOM      3  O   UNL     1       5.497  -2.352  -2.637  0.00  0.00    -0.269 OA
ENDROOT
BRANCH   1   4
ATOM      4  C   UNL     1       4.889  -0.028  -3.791  0.00  0.00    +0.039 A 
ATOM      5  C   UNL     1       6.121   0.581  -3.590  0.00  0.00    +0.023 A 
ATOM      6  C   UNL     1       6.814   1.107  -4.662  0.00  0.00    +0.003 A 
ATOM      7  C   UNL     1       6.283   1.028  -5.937  0.00  0.00    +0.020 A 
ATOM      8  C   UNL     1       5.056   0.422  -6.141  0.00  0.00    +0.043 A 
ATOM      9  C   UNL     1       4.360  -0.111  -5.072  0.00  0.00    +0.043 A 
ATOM     10 CL   UNL     1       4.393   0.325  -7.743  0.00  0.00    -0.083 Cl
ENDBRANCH   1   4
BRANCH   2  11
ATOM     11  C   UNL     1       3.988  -2.158  -0.866  0.00  0.00    +0.079 A 
ATOM     12  C   UNL     1       2.703  -1.733  -0.519  0.00  0.00    +0.017 A 
ATOM     13  C   UNL     1       2.131  -2.164   0.658  0.00  0.00    +0.001 A 
ATOM     14  C   UNL     1       2.824  -3.019   1.500  0.00  0.00    +0.004 A 
ATOM     15  C   UNL     1       4.095  -3.447   1.169  0.00  0.00    +0.046 A 
ATOM     16  C   UNL     1       4.683  -3.027  -0.014  0.00  0.00    +0.129 A 
BRANCH  16  17
ATOM     17  O   UNL     1       5.929  -3.452  -0.343  0.00  0.00    -0.506 OA
ATOM     18  H   UNL     1       6.638  -2.882  -0.016  0.00  0.00    +0.292 HD
ENDBRANCH  16  17
ENDBRANCH   2  11
BRANCH   1  19
ATOM     19  C   UNL     1       2.990   0.121  -2.203  0.00  0.00    +0.197 C 
BRANCH  19  20
ATOM     20  C   UNL     1       2.801   1.418  -2.946  0.00  0.00    -0.018 A 
ATOM     21  C   UNL     1       3.690   2.459  -2.754  0.00  0.00    +0.009 A 
ATOM     22  C   UNL     1       3.519   3.650  -3.433  0.00  0.00    +0.046 A 
ATOM     23  C   UNL     1       2.453   3.800  -4.309  0.00  0.00    +0.117 A 
ATOM     24  C   UNL     1       1.563   2.754  -4.501  0.00  0.00    +0.046 A 
ATOM     25  C   UNL     1       1.742   1.564  -3.823  0.00  0.00    +0.009 A 
BRANCH  23  26
ATOM     26  O   UNL     1       2.282   4.971  -4.979  0.00  0.00    -0.507 OA
ATOM     27  H   UNL     1       2.733   5.005  -5.833  0.00  0.00    +0.292 HD
ENDBRANCH  23  26
ENDBRANCH  19  20
BRANCH  19  29
ATOM     28  N   UNL     1       2.173   1.028  -0.052  0.00  0.00    -0.309 N 
ATOM     29  C   UNL     1       3.155   0.404  -0.732  0.00  0.00    +0.239 C 
ATOM     30  O   UNL     1       4.171   0.069  -0.161  0.00  0.00    -0.273 OA
ATOM     31  H   UNL     1       1.361   1.296  -0.509  0.00  0.00    +0.149 HD
BRANCH  28  33
ATOM     32  C   UNL     1       3.558   2.196   1.592  0.00  0.00    +0.031 C 
ATOM     33  C   UNL     1       2.334   1.303   1.378  0.00  0.00    +0.026 C 
ATOM     34  C   UNL     1       2.526  -0.014   2.132  0.00  0.00    +0.031 C 
ATOM     35  C   UNL     1       1.085   2.014   1.904  0.00  0.00    +0.031 C 
ENDBRANCH  28  33
ENDBRANCH  19  29
ENDBRANCH   1  19
TORSDOF 8
