REMARK  Name = ZINC66678788
REMARK  5 active torsions:
REMARK  status: ('A' for Active; 'I' for Inactive)
REMARK    1  A    between atoms: C_1  and  N_2
REMARK    2  A    between atoms: N_2  and  C_3
REMARK    3  A    between atoms: C_3  and  C_4
REMARK    4  A    between atoms: N_12  and  C_13
REMARK    5  A    between atoms: C_17  and  C_19
REMARK                            x       y       z     vdW  Elec       q    Type
REMARK                         _______ _______ _______ _____ _____    ______ ____
ROOT
ATOM      1  C   UNL     1       0.067  -0.634  -3.573  0.00  0.00    +0.035 A 
ATOM      2  C   UNL     1       0.074  -2.022  -3.638  0.00  0.00    +0.023 A 
ATOM      3  C   UNL     1       0.160  -2.660  -4.860  0.00  0.00    +0.002 A 
ATOM      4  C   UNL     1       0.241  -1.922  -6.024  0.00  0.00    +0.010 A 
ATOM      5  C   UNL     1       0.234  -0.529  -5.969  0.00  0.00    +0.004 A 
ATOM      6  C   UNL     1       0.141   0.114  -4.737  0.00  0.00    +0.033 A 
ENDROOT
BRANCH   5   7
ATOM      7  C   UNL     1       0.321   0.265  -7.219  0.00  0.00    +0.091 A 
ATOM      8  C   UNL     1       0.405  -0.393  -8.468  0.00  0.00    +0.035 A 
ATOM      9  C   UNL     1       0.483   0.370  -9.595  0.00  0.00    +0.073 A 
ATOM     10  C   UNL     1       0.475   1.774  -9.445  0.00  0.00    +0.265 A 
ATOM     11  O   UNL     1       0.543   2.498 -10.426  0.00  0.00    -0.266 OA
ATOM     12  N   UNL     1       0.393   2.309  -8.213  0.00  0.00    -0.243 N 
ATOM     13  H   UNL     1       0.388   3.274  -8.117  0.00  0.00    +0.192 HD
ATOM     14  N   UNL     1       0.315   1.576  -7.162  0.00  0.00    -0.171 NA
ENDBRANCH   5   7
BRANCH   1  19
ATOM     15  C   UNL     1      -0.083   1.441   0.022  0.00  0.00    +0.134 C 
ATOM     16  N   UNL     1       0.577   0.137  -0.079  0.00  0.00    -0.284 N 
ATOM     17  C   UNL     1       0.582  -0.527  -1.252  0.00  0.00    +0.307 C 
ATOM     18  O   UNL     1       1.131  -1.609  -1.336  0.00  0.00    -0.252 OA
ATOM     19  N   UNL     1      -0.020   0.009  -2.332  0.00  0.00    -0.269 N 
ATOM     20  H   UNL     1      -0.514   0.839  -2.250  0.00  0.00    +0.156 HD
BRANCH  16  21
ATOM     21  C   UNL     1       1.232  -0.445   1.095  0.00  0.00    +0.151 C 
BRANCH  21  22
ATOM     22  C   UNL     1       0.242  -1.288   1.856  0.00  0.00    +0.009 A 
ATOM     23  C   UNL     1      -0.038  -2.607   1.720  0.00  0.00    +0.014 A 
ATOM     24  C   UNL     1      -0.997  -3.177   2.538  0.00  0.00    +0.028 A 
ATOM     25  C   UNL     1      -1.629  -2.398   3.451  0.00  0.00    +0.078 A 
ATOM     26  S   UNL     1      -0.860  -0.810   3.176  0.00  0.00    -0.080 S 
ATOM     27 CL   UNL     1      -2.859  -2.834   4.596  0.00  0.00    -0.076 Cl
ENDBRANCH  21  22
ENDBRANCH  16  21
ENDBRANCH   1  19
TORSDOF 4
