REMARK  Name = ZINC08580208
REMARK  5 active torsions:
REMARK  status: ('A' for Active; 'I' for Inactive)
REMARK    1  A    between atoms: C_1  and  C_2
REMARK    2  A    between atoms: C_5  and  C_8
REMARK    3  A    between atoms: C_13  and  C_19
REMARK    4  A    between atoms: C_19  and  O_20
REMARK    5  A    between atoms: O_20  and  C_21
REMARK                            x       y       z     vdW  Elec       q    Type
REMARK                         _______ _______ _______ _____ _____    ______ ____
ROOT
ATOM      1  C   UNL     1       0.058  -4.256  -0.021  0.00  0.00    +0.095 A 
ATOM      2  C   UNL     1       0.069  -5.085   1.114  0.00  0.00    +0.076 A 
ATOM      3  C   UNL     1       0.086  -6.377   0.686  0.00  0.00    +0.139 A 
ATOM      4  N   UNL     1       0.101  -7.581   1.366  0.00  0.00    -0.341 N 
ATOM      5  H   UNL     1       0.101  -7.589   2.336  0.00  0.00    +0.167 HD
ATOM      6  C   UNL     1       0.116  -8.756   0.676  0.00  0.00    +0.049 A 
ATOM      7  C   UNL     1       0.115  -8.745  -0.676  0.00  0.00    +0.095 A 
ATOM      8  C   UNL     1       0.100  -7.518  -1.369  0.00  0.00    +0.275 A 
ATOM      9  O   UNL     1       0.099  -7.505  -2.587  0.00  0.00    -0.266 OA
ATOM     10  N   UNL     1       0.085  -6.359  -0.680  0.00  0.00    -0.180 N 
ATOM     11  N   UNL     1       0.062  -5.021  -1.094  0.00  0.00    -0.162 NA
ENDROOT
BRANCH   1  16
ATOM     12  C   UNL     1      -0.018   1.503   0.010  0.00  0.00    +0.044 C 
ATOM     13  C   UNL     1       0.002  -0.004   0.002  0.00  0.00    -0.050 A 
ATOM     14  C   UNL     1       0.006  -0.686  -1.201  0.00  0.00    +0.004 A 
ATOM     15  C   UNL     1       0.024  -2.067  -1.214  0.00  0.00    +0.010 A 
ATOM     16  C   UNL     1       0.039  -2.772  -0.013  0.00  0.00    +0.002 A 
ATOM     17  C   UNL     1       0.036  -2.080   1.196  0.00  0.00    +0.010 A 
ATOM     18  C   UNL     1       0.023  -0.700   1.198  0.00  0.00    +0.004 A 
ENDBRANCH   1  16
BRANCH   6  19
ATOM     19  C   UNL     1       0.133 -10.066   1.420  0.00  0.00    +0.212 C 
BRANCH  19  20
ATOM     20  O   UNL     1       0.146 -11.145   0.484  0.00  0.00    -0.377 OA
ATOM     21  C   UNL     1       0.163 -12.440   1.089  0.00  0.00    +0.194 C 
ENDBRANCH  19  20
ENDBRANCH   6  19
TORSDOF 3
