REMARK  Name = ZINC39466266
REMARK  7 active torsions:
REMARK  status: ('A' for Active; 'I' for Inactive)
REMARK    1  A    between atoms: C_1  and  C_2
REMARK    2  A    between atoms: C_2  and  C_3
REMARK    3  A    between atoms: C_2  and  S_4
REMARK    4  A    between atoms: S_4  and  P_7
REMARK    5  A    between atoms: C_16  and  S_23
REMARK    6  A    between atoms: S_23  and  O_26
REMARK    7  A    between atoms: O_26  and  C_27
REMARK                            x       y       z     vdW  Elec       q    Type
REMARK                         _______ _______ _______ _____ _____    ______ ____
ROOT
ATOM      1  P   UNL     1      -3.453  -3.513   0.591  0.00  0.00    +0.419 P 
ATOM      2  O   UNL     1      -2.898  -3.866   1.917  0.00  0.00    -0.246 OA
ATOM      3  N   UNL     1      -4.754  -4.471   0.239  0.00  0.00    -0.161 NA
ATOM      4  N   UNL     1      -4.478  -5.740  -0.219  0.00  0.00    -0.224 NA
ATOM      5  C   UNL     1      -5.733  -6.452  -0.503  0.00  0.00    +0.108 C 
ATOM      6  C   UNL     1      -5.427  -7.938  -0.684  0.00  0.00    +0.052 C 
ATOM      7  C   UNL     1      -4.320  -8.108  -1.693  0.00  0.00    -0.040 A 
ATOM      8  C   UNL     1      -4.154  -9.347  -2.293  0.00  0.00    +0.026 A 
ATOM      9  C   UNL     1      -3.151  -9.543  -3.222  0.00  0.00    +0.069 A 
ATOM     10  C   UNL     1      -2.308  -8.497  -3.554  0.00  0.00    +0.147 A 
ATOM     11  C   UNL     1      -2.474  -7.264  -2.957  0.00  0.00    +0.037 A 
ATOM     12  C   UNL     1      -3.482  -7.065  -2.023  0.00  0.00    -0.022 A 
ATOM     13  C   UNL     1      -3.620  -5.700  -1.403  0.00  0.00    +0.130 C 
ATOM     14  C   UNL     1      -2.228  -5.165  -1.056  0.00  0.00    +0.195 C 
ATOM     15  O   UNL     1      -2.360  -3.813  -0.574  0.00  0.00    -0.298 OA
ATOM     16 CL   UNL     1      -2.947 -11.097  -3.970  0.00  0.00    -0.081 Cl
ATOM     17  H   UNL     1      -5.664  -4.156   0.349  0.00  0.00    +0.152 HD
ENDROOT
BRANCH   1  18
ATOM     18  S   UNL     1      -4.019  -1.470   0.557  0.00  0.00    +0.058 S 
ATOM     19  O   UNL     1      -4.893  -1.317   1.667  0.00  0.00    -0.164 OA
ATOM     20  O   UNL     1      -4.483  -1.244  -0.767  0.00  0.00    -0.164 OA
BRANCH  18  22
ATOM     21  C   UNL     1      -2.787   0.939   0.963  0.00  0.00    +0.032 C 
ATOM     22  C   UNL     1      -2.479  -0.555   0.843  0.00  0.00    +0.136 C 
ATOM     23  C   UNL     1      -1.827  -1.046   2.137  0.00  0.00    +0.032 C 
ENDBRANCH  18  22
ENDBRANCH   1  18
BRANCH  10  24
ATOM     24  S   UNL     1      -1.026  -8.738  -4.738  0.00  0.00    +0.152 S 
ATOM     25  O   UNL     1      -1.625  -8.604  -6.019  0.00  0.00    -0.131 OA
ATOM     26  O   UNL     1       0.069  -7.933  -4.321  0.00  0.00    -0.131 OA
BRANCH  24  27
ATOM     27  O   UNL     1      -0.571 -10.186  -4.619  0.00  0.00    -0.342 OA
BRANCH  27  28
ATOM     28  C   UNL     1       0.239 -10.425  -3.554  0.00  0.00    +0.157 A 
ATOM     29  C   UNL     1       1.618 -10.381  -3.706  0.00  0.00    +0.048 A 
ATOM     30  C   UNL     1       2.439 -10.625  -2.622  0.00  0.00    +0.004 A 
ATOM     31  C   UNL     1       1.888 -10.912  -1.387  0.00  0.00    +0.000 A 
ATOM     32  C   UNL     1       0.514 -10.957  -1.233  0.00  0.00    +0.004 A 
ATOM     33  C   UNL     1      -0.311 -10.709  -2.313  0.00  0.00    +0.048 A 
ENDBRANCH  27  28
ENDBRANCH  24  27
ENDBRANCH  10  24
TORSDOF 5
