REMARK  Name = ZINC12191516
REMARK  7 active torsions:
REMARK  status: ('A' for Active; 'I' for Inactive)
REMARK    1  A    between atoms: C_4  and  C_7
REMARK    2  A    between atoms: C_7  and  C_8
REMARK    3  A    between atoms: C_8  and  C_9
REMARK    4  A    between atoms: C_9  and  C_11
REMARK    5  A    between atoms: C_9  and  O_33
REMARK    6  A    between atoms: C_21  and  C_22
REMARK    7  A    between atoms: C_21  and  N_62
REMARK                            x       y       z     vdW  Elec       q    Type
REMARK                         _______ _______ _______ _____ _____    ______ ____
ROOT
ATOM      1  C   UNL     1       5.840  -2.040  -2.927  0.00  0.00    -0.019 A 
ATOM      2  C   UNL     1       6.498  -1.114  -3.715  0.00  0.00    +0.010 A 
ATOM      3  C   UNL     1       6.842  -1.428  -5.016  0.00  0.00    +0.046 A 
ATOM      4  C   UNL     1       6.522  -2.677  -5.529  0.00  0.00    +0.122 A 
ATOM      5  C   UNL     1       5.851  -3.593  -4.742  0.00  0.00    -0.022 A 
ATOM      6  C   UNL     1       5.520  -3.285  -3.439  0.00  0.00    +0.011 A 
ATOM      7  C   UNL     1       5.475  -4.941  -5.326  0.00  0.00    -0.039 C 
ATOM      8  C   UNL     1       7.333  -5.398  -6.832  0.00  0.00    -0.036 C 
ATOM      9  C   UNL     1       7.924  -4.005  -6.887  0.00  0.00    +0.210 C 
ATOM     10  O   UNL     1       6.895  -3.013  -6.795  0.00  0.00    -0.494 OA
ATOM     11  N   UNL     1       6.725  -5.715  -5.523  0.00  0.00    +0.388 N 
ATOM     12  H   UNL     1       7.389  -5.462  -4.781  0.00  0.00    -0.081 HD
ENDROOT
BRANCH   1  13
ATOM     13  C   UNL     1       5.477  -1.695  -1.505  0.00  0.00    +0.145 C 
BRANCH  13  14
ATOM     14  O   UNL     1       6.494  -0.865  -0.942  0.00  0.00    -0.387 OA
ATOM     15  H   UNL     1       6.628  -0.031  -1.413  0.00  0.00    +0.210 HD
ENDBRANCH  13  14
BRANCH  13  16
ATOM     16  C   UNL     1       4.142  -0.948  -1.488  0.00  0.00    +0.041 C 
BRANCH  16  17
ATOM     17  C   UNL     1       3.711  -0.707  -0.039  0.00  0.00    +0.038 C 
BRANCH  17  21
ATOM     18  C   UNL     1      -0.017   1.378   0.010  0.00  0.00    +0.000 A 
ATOM     19  C   UNL     1       1.171   2.086   0.002  0.00  0.00    +0.000 A 
ATOM     20  C   UNL     1       2.377   1.411  -0.014  0.00  0.00    +0.003 A 
ATOM     21  C   UNL     1       2.396   0.029  -0.022  0.00  0.00    -0.047 A 
ATOM     22  C   UNL     1       1.208  -0.679  -0.014  0.00  0.00    +0.003 A 
ATOM     23  C   UNL     1       0.002  -0.004   0.002  0.00  0.00    +0.000 A 
ENDBRANCH  17  21
ENDBRANCH  16  17
ENDBRANCH  13  16
ENDBRANCH   1  13
BRANCH  11  24
ATOM     24  C   UNL     1       6.443  -7.157  -5.438  0.00  0.00    -0.023 C 
BRANCH  24  25
ATOM     25  C   UNL     1       7.649  -7.923  -5.916  0.00  0.00    +0.009 A 
ATOM     26  C   UNL     1       8.646  -8.393  -5.139  0.00  0.00    +0.021 A 
ATOM     27  C   UNL     1       9.567  -9.047  -5.982  0.00  0.00    +0.020 A 
ATOM     28  C   UNL     1       9.104  -8.946  -7.244  0.00  0.00    +0.093 A 
ATOM     29  N   UNL     1       7.925  -8.256  -7.212  0.00  0.00    -0.307 N 
ATOM     30  C   UNL     1       7.134  -7.943  -8.321  0.00  0.00    +0.138 A 
ATOM     31  C   UNL     1       7.538  -8.341  -9.589  0.00  0.00    +0.047 A 
ATOM     32  C   UNL     1       6.742  -8.029 -10.678  0.00  0.00    +0.005 A 
ATOM     33  C   UNL     1       5.571  -7.317 -10.460  0.00  0.00    +0.020 A 
ATOM     34  C   UNL     1       5.234  -6.949  -9.172  0.00  0.00    +0.113 A 
ATOM     35  N   UNL     1       6.010  -7.266  -8.153  0.00  0.00    -0.238 NA
ENDBRANCH  24  25
ENDBRANCH  11  24
TORSDOF 7
