REMARK  Name = ZINC14744227
REMARK  9 active torsions:
REMARK  status: ('A' for Active; 'I' for Inactive)
REMARK    1  A    between atoms: C_1  and  C_2
REMARK    2  A    between atoms: C_2  and  C_3
REMARK    3  A    between atoms: C_2  and  C_4
REMARK    4  A    between atoms: C_4  and  N_64
REMARK    5  A    between atoms: C_9  and  C_21
REMARK    6  A    between atoms: N_11  and  C_12
REMARK    7  A    between atoms: C_12  and  C_13
REMARK    8  A    between atoms: C_13  and  C_14
REMARK    9  A    between atoms: C_14  and  C_15
REMARK                            x       y       z     vdW  Elec       q    Type
REMARK                         _______ _______ _______ _____ _____    ______ ____
ROOT
ATOM      1  C   UNL     1      -3.812  -0.558   6.521  0.00  0.00    -0.072 C 
ATOM      2  C   UNL     1      -3.429   0.924   6.639  0.00  0.00    +0.037 C 
ATOM      3  C   UNL     1      -2.799   1.342   5.335  0.00  0.00    +0.040 A 
ATOM      4  C   UNL     1      -2.352   0.452   4.412  0.00  0.00    -0.011 A 
ATOM      5  C   UNL     1      -1.848   1.218   3.351  0.00  0.00    +0.149 A 
ATOM      6  N   UNL     1      -2.009   2.486   3.690  0.00  0.00    -0.166 NA
ATOM      7  N   UNL     1      -2.569   2.570   4.848  0.00  0.00    -0.267 N 
ATOM      8  C   UNL     1      -2.421  -1.040   4.584  0.00  0.00    -0.039 C 
ATOM      9  N   UNL     1      -2.644  -1.321   6.025  0.00  0.00    +0.383 N 
ATOM     10  H   UNL     1      -1.812  -1.033   6.553  0.00  0.00    -0.081 HD
ENDROOT
BRANCH   5  11
ATOM     11  C   UNL     1      -1.248   0.708   2.101  0.00  0.00    +0.267 C 
ATOM     12  O   UNL     1      -1.055  -0.484   1.962  0.00  0.00    -0.268 OA
ATOM     13  N   UNL     1      -0.916   1.564   1.115  0.00  0.00    -0.286 N 
ATOM     14  C   UNL     1      -0.199   1.107  -0.087  0.00  0.00    +0.127 C 
ATOM     15  C   UNL     1      -1.087   1.373  -1.305  0.00  0.00    +0.123 C 
ATOM     16  N   UNL     1      -1.638   2.720  -1.258  0.00  0.00    -0.313 N 
ATOM     17  C   UNL     1      -1.763   3.448  -0.147  0.00  0.00    +0.230 C 
ATOM     18  O   UNL     1      -2.311   4.528  -0.222  0.00  0.00    -0.274 OA
ATOM     19  C   UNL     1      -1.257   2.992   1.194  0.00  0.00    +0.203 C 
ATOM     20  H   UNL     1      -1.935   3.115  -2.092  0.00  0.00    +0.149 HD
ENDBRANCH   5  11
BRANCH   9  21
ATOM     21  C   UNL     1      -2.864  -2.767   6.229  0.00  0.00    -0.075 C 
BRANCH  21  23
ATOM     22  C   UNL     1      -3.180  -4.536   7.965  0.00  0.00    +0.005 C 
ATOM     23  C   UNL     1      -2.855  -3.059   7.731  0.00  0.00    -0.034 C 
ATOM     24  C   UNL     1      -1.471  -2.745   8.303  0.00  0.00    +0.005 C 
ENDBRANCH  21  23
ENDBRANCH   9  21
BRANCH   7  25
ATOM     25  C   UNL     1      -2.900   3.821   5.534  0.00  0.00    +0.144 C 
BRANCH  25  26
ATOM     26  C   UNL     1      -1.713   4.260   6.394  0.00  0.00    +0.028 C 
BRANCH  26  27
ATOM     27  C   UNL     1      -2.058   5.567   7.111  0.00  0.00    +0.037 C 
BRANCH  27  28
ATOM     28  C   UNL     1      -0.889   5.999   7.958  0.00  0.00    -0.047 A 
ATOM     29  C   UNL     1      -0.796   5.580   9.272  0.00  0.00    +0.003 A 
ATOM     30  C   UNL     1       0.279   5.972  10.048  0.00  0.00    +0.000 A 
ATOM     31  C   UNL     1       1.255   6.792   9.513  0.00  0.00    +0.000 A 
ATOM     32  C   UNL     1       1.158   7.216   8.201  0.00  0.00    +0.000 A 
ATOM     33  C   UNL     1       0.086   6.819   7.423  0.00  0.00    +0.003 A 
ENDBRANCH  27  28
ENDBRANCH  26  27
ENDBRANCH  25  26
ENDBRANCH   7  25
TORSDOF 7
