REMARK  Name = ZINC65363842
REMARK  7 active torsions:
REMARK  status: ('A' for Active; 'I' for Inactive)
REMARK    1  A    between atoms: C_1  and  C_2
REMARK    2  A    between atoms: C_2  and  O_3
REMARK    3  A    between atoms: O_3  and  C_4
REMARK    4  A    between atoms: C_5  and  C_12
REMARK    5  A    between atoms: C_9  and  O_10
REMARK    6  A    between atoms: O_10  and  C_11
REMARK    7  A    between atoms: C_20  and  C_34
REMARK                            x       y       z     vdW  Elec       q    Type
REMARK                         _______ _______ _______ _____ _____    ______ ____
ROOT
ATOM      1  C   UNL     1      -1.362  -1.612  -2.576  0.00  0.00    +0.067 C 
ATOM      2  C   UNL     1      -2.650  -1.677  -3.403  0.00  0.00    +0.109 C 
ATOM      3  C   UNL     1      -2.760  -2.983  -4.137  0.00  0.00    +0.219 C 
ATOM      4  O   UNL     1      -3.847  -3.514  -4.232  0.00  0.00    -0.275 OA
ATOM      5  N   UNL     1      -1.688  -3.585  -4.694  0.00  0.00    -0.270 N 
ATOM      6  C   UNL     1      -0.424  -3.070  -4.408  0.00  0.00    +0.134 A 
ATOM      7  C   UNL     1      -0.229  -2.138  -3.421  0.00  0.00    +0.023 A 
ATOM      8  C   UNL     1       1.122  -1.825  -3.387  0.00  0.00    +0.066 A 
ATOM      9  N   UNL     1       1.734  -2.541  -4.302  0.00  0.00    -0.168 NA
ATOM     10  N   UNL     1       0.779  -3.343  -4.953  0.00  0.00    -0.198 N 
ATOM     11  C   UNL     1       1.032  -4.259  -5.980  0.00  0.00    +0.178 A 
ATOM     12  C   UNL     1       2.153  -4.103  -6.795  0.00  0.00    +0.053 A 
ATOM     13  C   UNL     1       2.362  -5.034  -7.798  0.00  0.00    +0.049 A 
ATOM     14  C   UNL     1       1.437  -6.071  -7.930  0.00  0.00    +0.144 A 
ATOM     15  N   UNL     1       0.401  -6.139  -7.109  0.00  0.00    -0.132 NA
ATOM     16  N   UNL     1       0.212  -5.278  -6.177  0.00  0.00    -0.128 NA
ATOM     17  N   UNL     1       1.604  -7.032  -8.924  0.00  0.00    -0.314 N 
ATOM     18  C   UNL     1       0.654  -8.107  -9.244  0.00  0.00    +0.106 C 
ATOM     19  C   UNL     1       1.270  -8.937 -10.390  0.00  0.00    +0.020 C 
ATOM     20  C   UNL     1       2.785  -8.624 -10.271  0.00  0.00    +0.020 C 
ATOM     21  C   UNL     1       2.760  -7.136  -9.834  0.00  0.00    +0.106 C 
ATOM     22  C   UNL     1       1.774  -0.832  -2.460  0.00  0.00    +0.068 C 
ATOM     23  H   UNL     1      -1.793  -4.354  -5.276  0.00  0.00    +0.156 HD
ENDROOT
BRANCH   1  25
ATOM     24  C   UNL     1      -1.494  -1.866  -0.087  0.00  0.00    +0.166 A 
ATOM     25  C   UNL     1      -1.509  -2.459  -1.339  0.00  0.00    +0.006 A 
ATOM     26  C   UNL     1      -1.659  -3.829  -1.453  0.00  0.00    +0.008 A 
ATOM     27  C   UNL     1      -1.795  -4.609  -0.320  0.00  0.00    +0.004 A 
ATOM     28  C   UNL     1      -1.782  -4.024   0.932  0.00  0.00    +0.049 A 
ATOM     29  C   UNL     1      -1.626  -2.652   1.054  0.00  0.00    +0.162 A 
BRANCH  29  30
ATOM     30  O   UNL     1      -1.607  -2.075   2.285  0.00  0.00    -0.491 OA
ATOM     31  C   UNL     1      -1.747  -2.944   3.411  0.00  0.00    +0.277 C 
ENDBRANCH  29  30
BRANCH  24  32
ATOM     32  O   UNL     1      -1.346  -0.519   0.027  0.00  0.00    -0.488 OA
BRANCH  32  34
ATOM     33  C   UNL     1      -0.034   1.499   0.241  0.00  0.00    +0.048 C 
ATOM     34  C   UNL     1      -0.027  -0.030   0.277  0.00  0.00    +0.226 C 
ENDBRANCH  32  34
ENDBRANCH  24  32
ENDBRANCH   1  25
TORSDOF 4
