REMARK  Name = ZINC67446059
REMARK  4 active torsions:
REMARK  status: ('A' for Active; 'I' for Inactive)
REMARK    1  A    between atoms: C_1  and  C_2
REMARK    2  A    between atoms: C_2  and  C_4
REMARK    3  A    between atoms: C_2  and  N_16
REMARK    4  A    between atoms: N_16  and  C_17
REMARK                            x       y       z     vdW  Elec       q    Type
REMARK                         _______ _______ _______ _____ _____    ______ ____
ROOT
ATOM      1  C   UNL     1      -0.019   1.526   0.010  0.00  0.00    +0.036 C 
ATOM      2  C   UNL     1       0.002  -0.004   0.002  0.00  0.00    +0.133 C 
ENDROOT
BRANCH   2   3
ATOM      3  C   UNL     1       0.731  -0.503   1.223  0.00  0.00    +0.130 A 
ATOM      4  N   UNL     1       0.303  -0.088   2.444  0.00  0.00    -0.309 N 
ATOM      5  H   UNL     1      -0.454   0.515   2.508  0.00  0.00    +0.170 HD
ATOM      6  C   UNL     1       0.923  -0.508   3.571  0.00  0.00    +0.259 A 
ATOM      7  O   UNL     1       0.550  -0.145   4.671  0.00  0.00    -0.267 OA
ATOM      8  C   UNL     1       2.066  -1.421   3.415  0.00  0.00    +0.065 A 
ATOM      9  C   UNL     1       2.773  -1.911   4.511  0.00  0.00    +0.015 A 
ATOM     10  C   UNL     1       3.836  -2.763   4.307  0.00  0.00    +0.001 A 
ATOM     11  C   UNL     1       4.206  -3.136   3.021  0.00  0.00    +0.002 A 
ATOM     12  C   UNL     1       3.520  -2.663   1.925  0.00  0.00    +0.028 A 
ATOM     13  C   UNL     1       2.439  -1.798   2.106  0.00  0.00    +0.078 A 
ATOM     14  N   UNL     1       1.732  -1.312   1.054  0.00  0.00    -0.232 NA
ENDBRANCH   2   3
BRANCH   2  15
ATOM     15  N   UNL     1       0.688  -0.476  -1.203  0.00  0.00    -0.334 N 
ATOM     16  H   UNL     1       1.632  -0.695  -1.170  0.00  0.00    +0.147 HD
BRANCH  15  17
ATOM     17  C   UNL     1      -0.020  -0.613  -2.403  0.00  0.00    +0.031 A 
ATOM     18  C   UNL     1      -1.371  -0.295  -2.452  0.00  0.00    +0.027 A 
ATOM     19  C   UNL     1      -2.071  -0.430  -3.636  0.00  0.00    +0.051 A 
ATOM     20  C   UNL     1      -1.427  -0.881  -4.777  0.00  0.00    +0.173 A 
ATOM     21  C   UNL     1      -0.072  -1.200  -4.731  0.00  0.00    +0.174 A 
ATOM     22  C   UNL     1       0.630  -1.061  -3.545  0.00  0.00    +0.072 A 
ATOM     23  O   UNL     1       0.320  -1.617  -5.970  0.00  0.00    -0.395 OA
ATOM     24  C   UNL     1      -0.895  -1.939  -6.671  0.00  0.00    +0.589 C 
ATOM     25  O   UNL     1      -1.883  -1.098  -6.046  0.00  0.00    -0.395 OA
ATOM     26  F   UNL     1      -1.219  -3.289  -6.499  0.00  0.00    -0.125 F 
ATOM     27  F   UNL     1      -0.775  -1.630  -8.030  0.00  0.00    -0.125 F 
ENDBRANCH  15  17
ENDBRANCH   2  15
TORSDOF 3
