REMARK  Name = ZINC22715936
REMARK  16 active torsions:
REMARK  status: ('A' for Active; 'I' for Inactive)
REMARK    1  A    between atoms: C_1  and  C_2
REMARK    2  A    between atoms: C_2  and  C_4
REMARK    3  A    between atoms: C_2  and  N_11
REMARK    4  A    between atoms: C_12  and  C_14
REMARK    5  A    between atoms: C_14  and  C_16
REMARK    6  A    between atoms: C_14  and  S_17
REMARK    7  A    between atoms: S_17  and  C_18
REMARK    8  A    between atoms: N_28  and  C_29
REMARK    9  A    between atoms: C_29  and  C_30
REMARK   10  A    between atoms: C_30  and  N_31
REMARK   11  A    between atoms: N_31  and  C_32
REMARK   12  A    between atoms: N_31  and  C_35
REMARK   13  A    between atoms: C_32  and  C_33
REMARK   14  A    between atoms: C_32  and  C_34
REMARK   15  A    between atoms: C_35  and  C_36
REMARK   16  A    between atoms: C_35  and  C_37
REMARK                            x       y       z     vdW  Elec       q    Type
REMARK                         _______ _______ _______ _____ _____    ______ ____
ROOT
ATOM      1  C   UNL     1       0.540  -3.358  -6.558  0.00  0.00    +0.173 A 
ATOM      2  N   UNL     1       1.840  -3.498  -6.476  0.00  0.00    -0.223 NA
ATOM      3  C   UNL     1       2.574  -3.915  -7.527  0.00  0.00    +0.079 A 
ATOM      4  C   UNL     1       3.961  -4.065  -7.440  0.00  0.00    +0.028 A 
ATOM      5  C   UNL     1       4.665  -4.491  -8.531  0.00  0.00    +0.002 A 
ATOM      6  C   UNL     1       4.023  -4.777  -9.729  0.00  0.00    +0.001 A 
ATOM      7  C   UNL     1       2.667  -4.641  -9.845  0.00  0.00    +0.015 A 
ATOM      8  C   UNL     1       1.924  -4.208  -8.748  0.00  0.00    +0.065 A 
ATOM      9  C   UNL     1       0.466  -4.044  -8.815  0.00  0.00    +0.262 A 
ATOM     10  O   UNL     1      -0.150  -4.280  -9.838  0.00  0.00    -0.267 OA
ATOM     11  N   UNL     1      -0.168  -3.624  -7.695  0.00  0.00    -0.289 N 
ENDROOT
BRANCH   1  12
ATOM     12  S   UNL     1      -0.337  -2.808  -5.132  0.00  0.00    -0.075 S 
BRANCH  12  13
ATOM     13  C   UNL     1       0.958  -2.579  -3.882  0.00  0.00    +0.137 C 
ATOM     14  C   UNL     1       1.895  -1.452  -4.319  0.00  0.00    +0.029 C 
BRANCH  13  16
ATOM     15  N   UNL     1       1.011  -2.395  -1.416  0.00  0.00    -0.308 N 
ATOM     16  C   UNL     1       0.324  -2.222  -2.562  0.00  0.00    +0.227 C 
ATOM     17  O   UNL     1      -0.805  -1.779  -2.531  0.00  0.00    -0.275 OA
ATOM     18  H   UNL     1       1.914  -2.749  -1.440  0.00  0.00    +0.149 HD
BRANCH  15  20
ATOM     19  C   UNL     1       0.597  -0.556   0.143  0.00  0.00    +0.033 C 
ATOM     20  C   UNL     1       0.395  -2.048  -0.133  0.00  0.00    +0.100 C 
BRANCH  20  21
ATOM     21  C   UNL     1       1.037  -2.853   0.967  0.00  0.00    -0.027 A 
ATOM     22  C   UNL     1       2.403  -3.066   0.960  0.00  0.00    +0.008 A 
ATOM     23  C   UNL     1       2.994  -3.804   1.968  0.00  0.00    +0.038 A 
ATOM     24  C   UNL     1       2.216  -4.331   2.986  0.00  0.00    +0.123 A 
ATOM     25  C   UNL     1       0.848  -4.117   2.992  0.00  0.00    +0.038 A 
ATOM     26  C   UNL     1       0.261  -3.374   1.986  0.00  0.00    +0.008 A 
ATOM     27  F   UNL     1       2.792  -5.053   3.972  0.00  0.00    -0.205 F 
ENDBRANCH  20  21
ENDBRANCH  15  20
ENDBRANCH  13  16
ENDBRANCH  12  13
ENDBRANCH   1  12
BRANCH  11  28
ATOM     28  C   UNL     1      -1.622  -3.449  -7.704  0.00  0.00    +0.109 C 
BRANCH  28  29
ATOM     29  C   UNL     1      -1.961  -2.019  -8.132  0.00  0.00    -0.056 C 
BRANCH  29  30
ATOM     30  N   UNL     1      -3.416  -1.884  -8.279  0.00  0.00    +0.384 N 
ATOM     31  H   UNL     1      -3.757  -2.592  -8.912  0.00  0.00    -0.081 HD
BRANCH  30  32
ATOM     32  C   UNL     1      -4.059  -2.048  -6.968  0.00  0.00    -0.074 C 
ATOM     33  C   UNL     1      -4.043  -0.713  -6.221  0.00  0.00    -0.014 C 
ATOM     34  C   UNL     1      -5.505  -2.506  -7.163  0.00  0.00    -0.014 C 
ENDBRANCH  30  32
BRANCH  30  35
ATOM     35  C   UNL     1      -3.732  -0.554  -8.816  0.00  0.00    -0.074 C 
ATOM     36  C   UNL     1      -2.949  -0.327 -10.111  0.00  0.00    -0.014 C 
ATOM     37  C   UNL     1      -5.232  -0.464  -9.105  0.00  0.00    -0.014 C 
ENDBRANCH  30  35
ENDBRANCH  29  30
ENDBRANCH  28  29
ENDBRANCH  11  28
TORSDOF 10
