REMARK  Name = ZINC54098607
REMARK  6 active torsions:
REMARK  status: ('A' for Active; 'I' for Inactive)
REMARK    1  A    between atoms: C_1  and  C_2
REMARK    2  A    between atoms: C_5  and  C_9
REMARK    3  A    between atoms: C_6  and  O_8
REMARK    4  A    between atoms: N_11  and  N_12
REMARK    5  A    between atoms: C_13  and  C_15
REMARK    6  A    between atoms: N_19  and  C_22
REMARK                            x       y       z     vdW  Elec       q    Type
REMARK                         _______ _______ _______ _____ _____    ______ ____
ROOT
ATOM      1  N   UNL     1       0.083  -6.316  -1.222  0.00  0.00    -0.234 N 
ATOM      2  C   UNL     1       0.086  -6.979  -2.396  0.00  0.00    +0.241 C 
ATOM      3  O   UNL     1       0.072  -6.364  -3.440  0.00  0.00    -0.273 OA
ATOM      4  H   UNL     1       0.093  -6.809  -0.387  0.00  0.00    +0.173 HD
ENDROOT
BRANCH   2   5
ATOM      5  C   UNL     1       0.106  -8.486  -2.409  0.00  0.00    +0.164 C 
ATOM      6  C   UNL     1       0.059  -9.015  -3.862  0.00  0.00    +0.041 C 
ATOM      7  C   UNL     1      -0.818 -10.277  -3.710  0.00  0.00    +0.115 C 
ATOM      8  N   UNL     1      -1.649 -10.036  -2.524  0.00  0.00    -0.271 N 
ATOM      9  C   UNL     1      -1.149  -9.039  -1.770  0.00  0.00    +0.232 C 
ATOM     10  O   UNL     1      -1.632  -8.640  -0.731  0.00  0.00    -0.274 OA
BRANCH   8  11
ATOM     11  C   UNL     1      -2.812 -10.752  -2.216  0.00  0.00    +0.039 A 
ATOM     12  C   UNL     1      -3.244 -11.770  -3.054  0.00  0.00    +0.026 A 
ATOM     13  C   UNL     1      -4.392 -12.476  -2.749  0.00  0.00    +0.043 A 
ATOM     14  C   UNL     1      -5.112 -12.169  -1.607  0.00  0.00    +0.159 A 
ATOM     15  C   UNL     1      -4.683 -11.152  -0.768  0.00  0.00    +0.160 A 
ATOM     16  C   UNL     1      -3.531 -10.447  -1.068  0.00  0.00    +0.064 A 
ATOM     17  F   UNL     1      -5.387 -10.853   0.346  0.00  0.00    -0.202 F 
ATOM     18  F   UNL     1      -6.234 -12.861  -1.311  0.00  0.00    -0.202 F 
ENDBRANCH   8  11
ENDBRANCH   2   5
BRANCH   1  21
ATOM     19  C   UNL     1       0.060  -4.252  -0.036  0.00  0.00    +0.264 C 
ATOM     20  O   UNL     1       0.074  -4.870   1.011  0.00  0.00    -0.269 OA
ATOM     21  N   UNL     1       0.064  -4.915  -1.209  0.00  0.00    -0.230 N 
ATOM     22  H   UNL     1       0.053  -4.423  -2.045  0.00  0.00    +0.173 HD
BRANCH  19  27
ATOM     23  C   UNL     1      -0.018   1.503   0.010  0.00  0.00    +0.044 C 
ATOM     24  C   UNL     1       0.002  -0.004   0.002  0.00  0.00    -0.047 A 
ATOM     25  C   UNL     1       0.006  -0.686  -1.204  0.00  0.00    +0.004 A 
ATOM     26  C   UNL     1       0.025  -2.064  -1.224  0.00  0.00    +0.017 A 
ATOM     27  C   UNL     1       0.041  -2.777  -0.022  0.00  0.00    +0.079 A 
ATOM     28  C   UNL     1       0.037  -2.084   1.195  0.00  0.00    +0.129 A 
ATOM     29  C   UNL     1       0.023  -0.697   1.196  0.00  0.00    +0.049 A 
BRANCH  28  30
ATOM     30  O   UNL     1       0.052  -2.766   2.368  0.00  0.00    -0.506 OA
ATOM     31  H   UNL     1       0.940  -2.951   2.704  0.00  0.00    +0.292 HD
ENDBRANCH  28  30
ENDBRANCH  19  27
ENDBRANCH   1  21
TORSDOF 5
