REMARK  Name = ZINC35674860
REMARK  13 active torsions:
REMARK  status: ('A' for Active; 'I' for Inactive)
REMARK    1  A    between atoms: C_1  and  C_2
REMARK    2  A    between atoms: C_2  and  C_3
REMARK    3  A    between atoms: C_3  and  C_5
REMARK    4  A    between atoms: C_3  and  N_28
REMARK    5  A    between atoms: C_9  and  O_26
REMARK    6  A    between atoms: C_10  and  O_24
REMARK    7  A    between atoms: N_15  and  C_16
REMARK    8  A    between atoms: C_16  and  C_17
REMARK    9  A    between atoms: C_20  and  C_23
REMARK   10  A    between atoms: O_24  and  C_25
REMARK   11  A    between atoms: O_26  and  C_27
REMARK   12  A    between atoms: N_28  and  S_29
REMARK   13  A    between atoms: S_29  and  C_32
REMARK                            x       y       z     vdW  Elec       q    Type
REMARK                         _______ _______ _______ _____ _____    ______ ____
ROOT
ATOM      1  C   UNL     1       0.368  -2.132  -0.563  0.00  0.00    +0.106 C 
ATOM      2  C   UNL     1       1.271  -2.925  -1.472  0.00  0.00    -0.022 A 
ATOM      3  C   UNL     1       1.407  -2.510  -2.789  0.00  0.00    +0.055 A 
ATOM      4  C   UNL     1       2.222  -3.208  -3.662  0.00  0.00    +0.162 A 
ATOM      5  C   UNL     1       2.908  -4.334  -3.215  0.00  0.00    +0.162 A 
ATOM      6  C   UNL     1       2.771  -4.742  -1.900  0.00  0.00    +0.053 A 
ATOM      7  C   UNL     1       1.954  -4.037  -1.028  0.00  0.00    -0.038 A 
ATOM      8  C   UNL     1       1.847  -4.514   0.398  0.00  0.00    +0.051 C 
ATOM      9  C   UNL     1       0.624  -3.888   1.068  0.00  0.00    +0.090 C 
ATOM     10  N   UNL     1       0.661  -2.435   0.842  0.00  0.00    -0.289 NA
ENDROOT
BRANCH   5  11
ATOM     11  O   UNL     1       3.709  -5.029  -4.066  0.00  0.00    -0.491 OA
ATOM     12  C   UNL     1       4.382  -6.173  -3.535  0.00  0.00    +0.277 C 
ENDBRANCH   5  11
BRANCH   4  13
ATOM     13  O   UNL     1       2.351  -2.797  -4.952  0.00  0.00    -0.491 OA
ATOM     14  C   UNL     1       1.706  -1.574  -5.311  0.00  0.00    +0.277 C 
ENDBRANCH   4  13
BRANCH   1  15
ATOM     15  C   UNL     1       0.586  -0.638  -0.813  0.00  0.00    +0.098 C 
BRANCH  15  17
ATOM     16  C   UNL     1       2.220   1.240  -0.611  0.00  0.00    +0.005 C 
ATOM     17  C   UNL     1       1.939  -0.216  -0.236  0.00  0.00    +0.019 C 
ENDBRANCH  15  17
BRANCH  15  18
ATOM     18  N   UNL     1      -0.482   0.126  -0.163  0.00  0.00    -0.185 NA
ATOM     19  H   UNL     1      -0.302   0.607   0.660  0.00  0.00    +0.148 HD
BRANCH  18  20
ATOM     20  S   UNL     1      -1.995   0.170  -0.834  0.00  0.00    +0.059 S 
ATOM     21  O   UNL     1      -2.811   0.924   0.053  0.00  0.00    -0.153 OA
ATOM     22  O   UNL     1      -1.824   0.524  -2.199  0.00  0.00    -0.153 OA
BRANCH  20  23
ATOM     23  C   UNL     1      -2.621  -1.478  -0.816  0.00  0.00    +0.105 A 
ATOM     24  C   UNL     1      -2.502  -2.274  -1.939  0.00  0.00    +0.030 A 
ATOM     25  C   UNL     1      -2.993  -3.566  -1.926  0.00  0.00    +0.022 A 
ATOM     26  C   UNL     1      -3.603  -4.062  -0.787  0.00  0.00    +0.041 A 
ATOM     27  C   UNL     1      -3.721  -3.265   0.337  0.00  0.00    +0.022 A 
ATOM     28  C   UNL     1      -3.225  -1.974   0.324  0.00  0.00    +0.030 A 
ATOM     29 CL   UNL     1      -4.219  -5.685  -0.769  0.00  0.00    -0.084 Cl
ENDBRANCH  20  23
ENDBRANCH  18  20
ENDBRANCH  15  18
ENDBRANCH   1  15
BRANCH  10  30
ATOM     30  C   UNL     1      -0.275  -1.740   1.736  0.00  0.00    +0.120 C 
BRANCH  30  31
ATOM     31  C   UNL     1       0.159  -1.935   3.166  0.00  0.00    -0.033 A 
ATOM     32  C   UNL     1      -0.308  -3.017   3.888  0.00  0.00    +0.005 A 
ATOM     33  C   UNL     1       0.089  -3.196   5.200  0.00  0.00    +0.003 A 
ATOM     34  C   UNL     1       0.954  -2.293   5.790  0.00  0.00    -0.050 A 
ATOM     35  C   UNL     1       1.422  -1.212   5.067  0.00  0.00    +0.003 A 
ATOM     36  C   UNL     1       1.028  -1.035   3.754  0.00  0.00    +0.005 A 
ATOM     37  C   UNL     1       1.387  -2.488   7.220  0.00  0.00    +0.044 C 
ENDBRANCH  30  31
ENDBRANCH  10  30
TORSDOF 9
