REMARK  Name = ZINC39710571
REMARK  13 active torsions:
REMARK  status: ('A' for Active; 'I' for Inactive)
REMARK    1  A    between atoms: C_1  and  C_2
REMARK    2  A    between atoms: C_2  and  C_3
REMARK    3  A    between atoms: C_10  and  C_15
REMARK    4  A    between atoms: C_15  and  C_17
REMARK    5  A    between atoms: C_15  and  N_27
REMARK    6  A    between atoms: N_22  and  C_23
REMARK    7  A    between atoms: C_23  and  C_24
REMARK    8  A    between atoms: C_23  and  C_25
REMARK    9  A    between atoms: C_23  and  C_26
REMARK   10  A    between atoms: N_27  and  C_28
REMARK   11  A    between atoms: N_27  and  C_36
REMARK   12  A    between atoms: C_28  and  C_29
REMARK   13  A    between atoms: C_36  and  C_37
REMARK                            x       y       z     vdW  Elec       q    Type
REMARK                         _______ _______ _______ _____ _____    ______ ____
ROOT
ATOM      1  C   UNL     1       5.639  -0.790  -3.932  0.00  0.00    -0.009 C 
ENDROOT
BRANCH   1   9
ATOM      2  C   UNL     1       1.256   0.768  -0.409  0.00  0.00    -0.047 A 
ATOM      3  C   UNL     1       0.345   0.773  -1.465  0.00  0.00    +0.005 A 
ATOM      4  C   UNL     1       0.632   0.244  -2.683  0.00  0.00    +0.024 A 
ATOM      5  C   UNL     1       1.887  -0.342  -2.929  0.00  0.00    +0.040 A 
ATOM      6  N   UNL     1       2.157  -0.858  -4.128  0.00  0.00    -0.285 N 
ATOM      7  C   UNL     1       3.315  -1.423  -4.427  0.00  0.00    +0.223 C 
ATOM      8  O   UNL     1       3.504  -1.877  -5.539  0.00  0.00    -0.275 OA
ATOM      9  C   UNL     1       4.403  -1.503  -3.379  0.00  0.00    +0.088 C 
ATOM     10  C   UNL     1       4.100  -0.917  -2.014  0.00  0.00    -0.006 C 
ATOM     11  C   UNL     1       2.869  -0.362  -1.831  0.00  0.00    -0.007 A 
ATOM     12  C   UNL     1       2.496   0.231  -0.547  0.00  0.00    +0.013 A 
ATOM     13  H   UNL     1       1.473  -0.817  -4.814  0.00  0.00    +0.155 HD
BRANCH   2  15
ATOM     14  C   UNL     1       1.229   2.862   0.920  0.00  0.00    +0.009 C 
ATOM     15  C   UNL     1       0.859   1.377   0.911  0.00  0.00    +0.032 C 
ENDBRANCH   2  15
ENDBRANCH   1   9
BRANCH   1  16
ATOM     16  C   UNL     1       5.266   0.636  -4.340  0.00  0.00    +0.205 C 
ATOM     17  N   UNL     1       4.457   0.623  -5.567  0.00  0.00    -0.152 NA
ATOM     18  N   UNL     1       5.059   1.242  -6.447  0.00  0.00    -0.070 NA
ATOM     19  N   UNL     1       6.285   1.746  -6.015  0.00  0.00    -0.179 N 
ATOM     20  N   UNL     1       6.477   1.403  -4.699  0.00  0.00    -0.183 NA
ATOM     21  H   UNL     1       6.904   2.259  -6.557  0.00  0.00    +0.191 HD
BRANCH  20  22
ATOM     22  C   UNL     1       6.612   2.598  -3.856  0.00  0.00    +0.035 C 
ATOM     23  C   UNL     1       6.629   2.184  -2.383  0.00  0.00    +0.029 C 
ATOM     24  C   UNL     1       7.917   3.319  -4.198  0.00  0.00    +0.029 C 
ATOM     25  C   UNL     1       5.430   3.537  -4.107  0.00  0.00    +0.029 C 
ENDBRANCH  20  22
ENDBRANCH   1  16
BRANCH   1  26
ATOM     26  N   UNL     1       6.142  -1.520  -5.104  0.00  0.00    +0.389 N 
ATOM     27  H   UNL     1       5.468  -1.459  -5.852  0.00  0.00    -0.081 HD
BRANCH  26  28
ATOM     28  C   UNL     1       6.354  -2.929  -4.749  0.00  0.00    -0.042 C 
BRANCH  28  29
ATOM     29  C   UNL     1       7.374  -3.022  -3.644  0.00  0.00    -0.064 A 
ATOM     30  C   UNL     1       8.723  -3.019  -3.947  0.00  0.00    +0.003 A 
ATOM     31  C   UNL     1       9.659  -3.104  -2.934  0.00  0.00    +0.020 A 
ATOM     32  C   UNL     1       9.247  -3.191  -1.616  0.00  0.00    +0.041 A 
ATOM     33  C   UNL     1       7.897  -3.193  -1.314  0.00  0.00    +0.020 A 
ATOM     34  C   UNL     1       6.961  -3.103  -2.327  0.00  0.00    +0.003 A 
ATOM     35 CL   UNL     1      10.422  -3.298  -0.343  0.00  0.00    -0.084 Cl
ENDBRANCH  28  29
ENDBRANCH  26  28
BRANCH  26  36
ATOM     36  C   UNL     1       7.414  -0.928  -5.540  0.00  0.00    -0.046 C 
BRANCH  36  37
ATOM     37  C   UNL     1       7.910  -1.652  -6.793  0.00  0.00    +0.102 C 
ATOM     38  C   UNL     1       9.287  -1.093  -7.211  0.00  0.00    +0.032 C 
ATOM     39  C   UNL     1       9.175  -1.064  -8.759  0.00  0.00    +0.030 C 
ATOM     40  C   UNL     1       7.674  -0.726  -8.940  0.00  0.00    +0.160 C 
ATOM     41  O   UNL     1       7.001  -1.423  -7.877  0.00  0.00    -0.378 OA
ENDBRANCH  36  37
ENDBRANCH  26  36
ENDBRANCH   1  26
TORSDOF 9
