REMARK  Name = ZINC50006472
REMARK  7 active torsions:
REMARK  status: ('A' for Active; 'I' for Inactive)
REMARK    1  A    between atoms: C_1  and  C_2
REMARK    2  A    between atoms: C_2  and  C_3
REMARK    3  A    between atoms: C_3  and  C_4
REMARK    4  A    between atoms: C_4  and  N_5
REMARK    5  A    between atoms: C_10  and  C_12
REMARK    6  A    between atoms: C_17  and  C_20
REMARK    7  A    between atoms: C_23  and  C_25
REMARK                            x       y       z     vdW  Elec       q    Type
REMARK                         _______ _______ _______ _____ _____    ______ ____
ROOT
ATOM      1  C   UNL     1       4.897  -3.340   3.253  0.00  0.00    +0.270 C 
ATOM      2  O   UNL     1       5.544  -3.741   4.201  0.00  0.00    -0.268 OA
ATOM      3  N   UNL     1       5.511  -3.074   2.083  0.00  0.00    -0.248 N 
ATOM      4  C   UNL     1       6.890  -3.259   1.960  0.00  0.00    +0.241 A 
ATOM      5  N   UNL     1       7.605  -3.030   0.857  0.00  0.00    -0.193 NA
ATOM      6  C   UNL     1       8.876  -3.306   1.084  0.00  0.00    +0.165 A 
ATOM      7  N   UNL     1       8.985  -3.726   2.373  0.00  0.00    -0.257 N 
ATOM      8  N   UNL     1       7.689  -3.679   2.913  0.00  0.00    -0.136 NA
ATOM      9  H   UNL     1       4.995  -2.754   1.327  0.00  0.00    +0.158 HD
ATOM     10  H   UNL     1       9.796  -3.999   2.830  0.00  0.00    +0.191 HD
ENDROOT
BRANCH   1  16
ATOM     11  N   UNL     1       1.471  -2.526   2.420  0.00  0.00    -0.229 N 
ATOM     12  C   UNL     1       0.774  -2.765   3.546  0.00  0.00    +0.267 A 
ATOM     13  O   UNL     1      -0.431  -2.579   3.574  0.00  0.00    -0.266 OA
ATOM     14  C   UNL     1       1.448  -3.233   4.697  0.00  0.00    +0.074 A 
ATOM     15  C   UNL     1       2.795  -3.425   4.614  0.00  0.00    +0.040 A 
ATOM     16  C   UNL     1       3.437  -3.145   3.384  0.00  0.00    +0.146 A 
ATOM     17  N   UNL     1       2.739  -2.717   2.356  0.00  0.00    -0.164 NA
BRANCH  11  18
ATOM     18  C   UNL     1       0.763  -2.041   1.233  0.00  0.00    +0.147 C 
BRANCH  18  19
ATOM     19  C   UNL     1       0.742  -0.511   1.242  0.00  0.00    +0.023 C 
BRANCH  19  21
ATOM     20  C   UNL     1      -0.019   1.526   0.010  0.00  0.00    +0.004 C 
ATOM     21  C   UNL     1       0.002  -0.004   0.002  0.00  0.00    -0.002 C 
ENDBRANCH  19  21
ENDBRANCH  18  19
ENDBRANCH  11  18
ENDBRANCH   1  16
BRANCH   6  22
ATOM     22  C   UNL     1       9.978  -3.182   0.116  0.00  0.00    +0.056 A 
ATOM     23  C   UNL     1       9.939  -2.761  -1.189  0.00  0.00    +0.019 A 
ATOM     24  C   UNL     1      11.111  -2.728  -1.908  0.00  0.00    +0.011 A 
ATOM     25  C   UNL     1      12.268  -3.110  -1.306  0.00  0.00    -0.013 A 
ATOM     26  S   UNL     1      11.715  -3.531   0.338  0.00  0.00    -0.090 S 
ATOM     27  C   UNL     1      13.662  -3.160  -1.879  0.00  0.00    +0.051 C 
ENDBRANCH   6  22
TORSDOF 5
