REMARK  Name = ZINC13002729
REMARK  6 active torsions:
REMARK  status: ('A' for Active; 'I' for Inactive)
REMARK    1  A    between atoms: C_1  and  C_2
REMARK    2  A    between atoms: C_5  and  C_7
REMARK    3  A    between atoms: C_8  and  C_9
REMARK    4  A    between atoms: C_12  and  S_15
REMARK    5  A    between atoms: S_15  and  C_16
REMARK    6  A    between atoms: C_16  and  C_17
REMARK                            x       y       z     vdW  Elec       q    Type
REMARK                         _______ _______ _______ _____ _____    ______ ____
ROOT
ATOM      1  C   UNL     1      -4.575   5.630   0.054  0.00  0.00    +0.155 A 
ATOM      2  N   UNL     1      -3.197   5.692   0.053  0.00  0.00    -0.317 N 
ATOM      3  H   UNL     1      -2.646   6.490   0.060  0.00  0.00    +0.169 HD
ATOM      4  C   UNL     1      -2.770   4.393   0.039  0.00  0.00    +0.190 A 
ATOM      5  N   UNL     1      -3.840   3.629   0.040  0.00  0.00    -0.122 NA
ATOM      6  N   UNL     1      -4.902   4.353   0.049  0.00  0.00    -0.129 NA
ENDROOT
BRANCH   1   8
ATOM      7  C   UNL     1      -6.832   6.552   0.069  0.00  0.00    +0.050 C 
ATOM      8  C   UNL     1      -5.498   6.766   0.064  0.00  0.00    +0.051 C 
BRANCH   7  13
ATOM      9  C   UNL     1      -8.553  11.254   0.104  0.00  0.00    +0.086 C 
ATOM     10  C   UNL     1      -8.518   9.747   0.095  0.00  0.00    +0.103 A 
ATOM     11  C   UNL     1      -9.597   8.936   0.096  0.00  0.00    +0.045 A 
ATOM     12  C   UNL     1      -9.120   7.613   0.086  0.00  0.00    +0.049 A 
ATOM     13  C   UNL     1      -7.755   7.687   0.080  0.00  0.00    +0.128 A 
ATOM     14  O   UNL     1      -7.408   8.990   0.091  0.00  0.00    -0.461 OA
ENDBRANCH   7  13
ENDBRANCH   1   8
BRANCH   4  15
ATOM     15  S   UNL     1      -1.095   3.845   0.028  0.00  0.00    -0.078 S 
BRANCH  15  16
ATOM     16  C   UNL     1      -1.352   2.053   0.019  0.00  0.00    +0.151 C 
BRANCH  16  17
ATOM     17  C   UNL     1      -0.016   1.355   0.009  0.00  0.00    +0.121 A 
ATOM     18  N   UNL     1       0.002  -0.004   0.002  0.00  0.00    -0.309 N 
ATOM     19  H   UNL     1      -0.828  -0.505   0.008  0.00  0.00    +0.170 HD
ATOM     20  C   UNL     1       1.192  -0.652  -0.013  0.00  0.00    +0.266 A 
ATOM     21  O   UNL     1       1.242  -1.871  -0.019  0.00  0.00    -0.267 OA
ATOM     22  C   UNL     1       2.358   0.114  -0.020  0.00  0.00    +0.102 A 
ATOM     23  C   UNL     1       2.311   1.519  -0.012  0.00  0.00    +0.085 A 
ATOM     24  N   UNL     1       1.057   2.079   0.003  0.00  0.00    -0.232 NA
ATOM     25  C   UNL     1       3.555   2.164  -0.020  0.00  0.00    +0.036 A 
ATOM     26  C   UNL     1       4.696   1.441  -0.035  0.00  0.00    +0.048 A 
ATOM     27  S   UNL     1       4.095  -0.240  -0.038  0.00  0.00    -0.090 S 
ENDBRANCH  16  17
ENDBRANCH  15  16
ENDBRANCH   4  15
TORSDOF 5
