REMARK  Name = ZINC04862989
REMARK  4 active torsions:
REMARK  status: ('A' for Active; 'I' for Inactive)
REMARK    1  A    between atoms: C_6  and  C_7
REMARK    2  A    between atoms: C_10  and  C_18
REMARK    3  A    between atoms: C_10  and  O_22
REMARK    4  A    between atoms: C_12  and  C_14
REMARK                            x       y       z     vdW  Elec       q    Type
REMARK                         _______ _______ _______ _____ _____    ______ ____
ROOT
ATOM      1  C   UNL     1      -1.265  -0.763   0.011  0.00  0.00    +0.269 C 
ATOM      2  O   UNL     1      -2.326  -0.174   0.098  0.00  0.00    -0.268 OA
ATOM      3  N   UNL     1      -1.247  -2.106  -0.099  0.00  0.00    -0.148 N 
ATOM      4  C   UNL     1      -2.431  -2.974  -0.208  0.00  0.00    +0.257 C 
ATOM      5  C   UNL     1      -1.825  -4.389  -0.304  0.00  0.00    +0.128 C 
ATOM      6  C   UNL     1      -0.334  -4.148  -0.236  0.00  0.00    +0.144 C 
ATOM      7  N   UNL     1      -0.105  -2.903  -0.132  0.00  0.00    -0.174 NA
ENDROOT
BRANCH   1  13
ATOM      8  C   UNL     1      -0.014   1.390   0.012  0.00  0.00    +0.014 A 
ATOM      9  C   UNL     1       1.173   2.092   0.025  0.00  0.00    +0.021 A 
ATOM     10  C   UNL     1       2.381   1.414   0.048  0.00  0.00    +0.041 A 
ATOM     11  C   UNL     1       2.404   0.029   0.060  0.00  0.00    +0.021 A 
ATOM     12  C   UNL     1       1.224  -0.683   0.048  0.00  0.00    +0.014 A 
ATOM     13  C   UNL     1       0.003  -0.006   0.024  0.00  0.00    +0.039 A 
ATOM     14 CL   UNL     1       3.872   2.304   0.063  0.00  0.00    -0.084 Cl
ENDBRANCH   1  13
BRANCH   6  15
ATOM     15  C   UNL     1       0.722  -5.222  -0.291  0.00  0.00    +0.432 C 
ATOM     16  F   UNL     1       1.989  -4.636  -0.202  0.00  0.00    -0.165 F 
ATOM     17  F   UNL     1       0.541  -6.108   0.777  0.00  0.00    -0.165 F 
ATOM     18  F   UNL     1       0.615  -5.920  -1.499  0.00  0.00    -0.165 F 
ENDBRANCH   6  15
BRANCH   4  19
ATOM     19  C   UNL     1      -3.311  -2.848   1.037  0.00  0.00    +0.438 C 
ATOM     20  F   UNL     1      -3.761  -1.528   1.158  0.00  0.00    -0.166 F 
ATOM     21  F   UNL     1      -4.410  -3.706   0.922  0.00  0.00    -0.166 F 
ATOM     22  F   UNL     1      -2.567  -3.193   2.171  0.00  0.00    -0.166 F 
ENDBRANCH   4  19
BRANCH   4  23
ATOM     23  O   UNL     1      -3.177  -2.664  -1.387  0.00  0.00    -0.363 OA
ATOM     24  H   UNL     1      -3.519  -1.760  -1.409  0.00  0.00    +0.212 HD
ENDBRANCH   4  23
TORSDOF 4
