REMARK  Name = ZINC09725588
REMARK  6 active torsions:
REMARK  status: ('A' for Active; 'I' for Inactive)
REMARK    1  A    between atoms: C_2  and  C_3
REMARK    2  A    between atoms: C_3  and  N_4
REMARK    3  A    between atoms: C_8  and  S_26
REMARK    4  A    between atoms: N_13  and  C_14
REMARK    5  A    between atoms: C_14  and  C_16
REMARK    6  A    between atoms: S_26  and  N_29
REMARK                            x       y       z     vdW  Elec       q    Type
REMARK                         _______ _______ _______ _____ _____    ______ ____
ROOT
ATOM      1  N   UNL     1      -3.768  -2.401   0.003  0.00  0.00    -0.317 N 
ATOM      2  C   UNL     1      -5.039  -2.946   0.011  0.00  0.00    +0.058 A 
ATOM      3  C   UNL     1      -5.405  -4.301   0.005  0.00  0.00    +0.029 A 
ATOM      4  C   UNL     1      -6.729  -4.672   0.009  0.00  0.00    +0.030 A 
ATOM      5  C   UNL     1      -7.739  -3.725   0.019  0.00  0.00    +0.106 A 
ATOM      6  C   UNL     1      -7.407  -2.382   0.025  0.00  0.00    +0.045 A 
ATOM      7  C   UNL     1      -6.083  -2.010   0.021  0.00  0.00    +0.041 A 
ATOM      8  S   UNL     1      -5.234  -0.452   0.025  0.00  0.00    -0.052 S 
ATOM      9  C   UNL     1      -3.606  -1.050   0.015  0.00  0.00    +0.167 A 
ATOM     10  N   UNL     1      -2.473  -0.357   0.013  0.00  0.00    -0.152 NA
ENDROOT
BRANCH   5  11
ATOM     11  S   UNL     1      -9.429  -4.224   0.024  0.00  0.00    +0.056 S 
ATOM     12  O   UNL     1     -10.174  -3.142  -0.517  0.00  0.00    -0.153 OA
ATOM     13  O   UNL     1      -9.468  -5.531  -0.534  0.00  0.00    -0.153 OA
BRANCH  11  14
ATOM     14  N   UNL     1      -9.891  -4.372   1.607  0.00  0.00    -0.204 NA
ATOM     15  H   UNL     1      -9.256  -4.189   2.317  0.00  0.00    +0.144 HD
ATOM     16  H   UNL     1     -10.797  -4.642   1.825  0.00  0.00    +0.144 HD
ENDBRANCH  11  14
ENDBRANCH   5  11
BRANCH  10  17
ATOM     17  C   UNL     1      -2.507   0.980   0.020  0.00  0.00    +0.269 C 
ATOM     18  O   UNL     1      -3.578   1.562   0.028  0.00  0.00    -0.268 OA
BRANCH  17  19
ATOM     19  C   UNL     1      -1.244   1.753   0.018  0.00  0.00    +0.039 A 
ATOM     20  C   UNL     1      -0.013   1.076   0.008  0.00  0.00    +0.014 A 
ATOM     21  C   UNL     1       1.159   1.762   0.001  0.00  0.00    +0.009 A 
ATOM     22  C   UNL     1       1.150   3.169   0.007  0.00  0.00    -0.018 A 
ATOM     23  C   UNL     1       2.349   3.901  -0.001  0.00  0.00    +0.008 A 
ATOM     24  C   UNL     1       2.309   5.261   0.005  0.00  0.00    +0.001 A 
ATOM     25  C   UNL     1       1.094   5.944   0.020  0.00  0.00    +0.001 A 
ATOM     26  C   UNL     1      -0.087   5.269   0.028  0.00  0.00    +0.008 A 
ATOM     27  C   UNL     1      -0.086   3.863   0.022  0.00  0.00    -0.017 A 
ATOM     28  C   UNL     1      -1.286   3.136   0.030  0.00  0.00    +0.021 A 
ENDBRANCH  17  19
ENDBRANCH  10  17
BRANCH   1  29
ATOM     29  C   UNL     1      -2.596  -3.279  -0.013  0.00  0.00    +0.151 C 
BRANCH  29  31
ATOM     30  C   UNL     1      -0.305  -2.442  -0.127  0.00  0.00    +0.005 C 
ATOM     31  C   UNL     1      -1.461  -2.588  -0.725  0.00  0.00    -0.013 C 
ENDBRANCH  29  31
ENDBRANCH   1  29
TORSDOF 6
