REMARK  Name = ZINC03592944
REMARK  4 active torsions:
REMARK  status: ('A' for Active; 'I' for Inactive)
REMARK    1  A    between atoms: C_1  and  N_2
REMARK    2  A    between atoms: N_2  and  C_3
REMARK    3  A    between atoms: C_9  and  C_11
REMARK    4  A    between atoms: C_11  and  N_12
REMARK                            x       y       z     vdW  Elec       q    Type
REMARK                         _______ _______ _______ _____ _____    ______ ____
ROOT
ATOM      1  N   UNL     1      -0.020  -0.857  -3.588  0.00  0.00    -0.215 N 
ATOM      2  C   UNL     1       1.097  -1.336  -4.175  0.00  0.00    +0.247 C 
ATOM      3  O   UNL     1       2.246  -1.075  -3.888  0.00  0.00    -0.273 OA
ATOM      4  C   UNL     1       0.613  -2.265  -5.263  0.00  0.00    +0.113 C 
ATOM      5  C   UNL     1       1.103  -1.839  -6.619  0.00  0.00    +0.035 C 
ATOM      6  C   UNL     1       0.062  -2.102  -7.728  0.00  0.00    +0.003 C 
ATOM      7  C   UNL     1      -0.646  -3.462  -7.571  0.00  0.00    +0.000 C 
ATOM      8  C   UNL     1       0.302  -4.560  -7.174  0.00  0.00    +0.000 C 
ATOM      9  C   UNL     1       0.273  -4.697  -5.639  0.00  0.00    +0.003 C 
ATOM     10  C   UNL     1       1.099  -3.699  -4.974  0.00  0.00    +0.035 C 
ATOM     11  N   UNL     1      -0.849  -2.205  -5.163  0.00  0.00    -0.285 N 
ATOM     12  C   UNL     1      -1.126  -1.358  -4.152  0.00  0.00    +0.310 C 
ATOM     13  O   UNL     1      -2.254  -1.079  -3.795  0.00  0.00    -0.252 OA
ATOM     14  H   UNL     1      -1.490  -2.683  -5.713  0.00  0.00    +0.151 HD
ENDROOT
BRANCH   1  15
ATOM     15  C   UNL     1      -0.023   0.089  -2.470  0.00  0.00    +0.213 C 
BRANCH  15  18
ATOM     16  C   UNL     1      -0.018   1.461   0.010  0.00  0.00    +0.132 C 
ATOM     17  N   UNL     1       0.002  -0.004   0.002  0.00  0.00    -0.300 N 
ATOM     18  C   UNL     1       0.000  -0.672  -1.169  0.00  0.00    +0.234 C 
ATOM     19  O   UNL     1       0.017  -1.884  -1.175  0.00  0.00    -0.274 OA
BRANCH  17  20
ATOM     20  C   UNL     1       0.024  -0.743   1.267  0.00  0.00    +0.076 C 
ATOM     21  C   UNL     1      -1.222  -0.395   2.083  0.00  0.00    +0.022 C 
ATOM     22  C   UNL     1      -1.199  -1.167   3.404  0.00  0.00    +0.002 C 
ATOM     23  C   UNL     1       0.052  -0.785   4.196  0.00  0.00    +0.000 C 
ATOM     24  C   UNL     1       1.299  -1.133   3.380  0.00  0.00    +0.002 C 
ATOM     25  C   UNL     1       1.276  -0.361   2.059  0.00  0.00    +0.022 C 
ENDBRANCH  17  20
ENDBRANCH  15  18
ENDBRANCH   1  15
TORSDOF 3
