REMARK  Name = ZINC47356337
REMARK  6 active torsions:
REMARK  status: ('A' for Active; 'I' for Inactive)
REMARK    1  A    between atoms: C_1  and  C_2
REMARK    2  A    between atoms: C_8  and  N_10
REMARK    3  A    between atoms: C_11  and  C_13
REMARK    4  A    between atoms: C_13  and  N_14
REMARK    5  A    between atoms: C_17  and  C_21
REMARK    6  A    between atoms: C_17  and  C_22
REMARK                            x       y       z     vdW  Elec       q    Type
REMARK                         _______ _______ _______ _____ _____    ______ ____
ROOT
ATOM      1  N   UNL     1       4.792   0.728   3.723  0.00  0.00    -0.215 N 
ATOM      2  C   UNL     1       4.572   1.748   4.575  0.00  0.00    +0.251 C 
ATOM      3  O   UNL     1       3.947   2.764   4.356  0.00  0.00    -0.272 OA
ATOM      4  C   UNL     1       5.269   1.362   5.865  0.00  0.00    +0.140 C 
ATOM      5  N   UNL     1       5.855   0.045   5.561  0.00  0.00    -0.281 N 
ATOM      6  C   UNL     1       5.519  -0.241   4.291  0.00  0.00    +0.310 C 
ATOM      7  O   UNL     1       5.842  -1.265   3.721  0.00  0.00    -0.252 OA
ATOM      8  C   UNL     1       6.364   2.373   6.209  0.00  0.00    +0.047 C 
ATOM      9  H   UNL     1       6.379  -0.508   6.161  0.00  0.00    +0.152 HD
ENDROOT
BRANCH   4  10
ATOM     10  C   UNL     1       4.274   1.252   6.992  0.00  0.00    +0.055 A 
ATOM     11  C   UNL     1       3.757   0.017   7.342  0.00  0.00    +0.132 A 
ATOM     12  C   UNL     1       2.843  -0.083   8.377  0.00  0.00    +0.039 A 
ATOM     13  C   UNL     1       2.447   1.050   9.062  0.00  0.00    +0.006 A 
ATOM     14  C   UNL     1       2.962   2.285   8.713  0.00  0.00    +0.039 A 
ATOM     15  C   UNL     1       3.881   2.386   7.682  0.00  0.00    +0.132 A 
ATOM     16  F   UNL     1       4.389   3.592   7.346  0.00  0.00    -0.205 F 
ATOM     17  F   UNL     1       4.144  -1.091   6.673  0.00  0.00    -0.205 F 
ENDBRANCH   4  10
BRANCH   1  18
ATOM     18  C   UNL     1       4.292   0.683   2.346  0.00  0.00    +0.213 C 
BRANCH  18  20
ATOM     19  N   UNL     1       2.271  -0.110   1.162  0.00  0.00    -0.311 N 
ATOM     20  C   UNL     1       2.930   0.040   2.328  0.00  0.00    +0.231 C 
ATOM     21  O   UNL     1       2.426  -0.344   3.362  0.00  0.00    -0.274 OA
ATOM     22  H   UNL     1       2.674   0.197   0.334  0.00  0.00    +0.149 HD
BRANCH  19  29
ATOM     23  C   UNL     1       0.016   1.269  -0.022  0.00  0.00    +0.009 C 
ATOM     24  C   UNL     1       0.171  -0.252  -0.084  0.00  0.00    +0.006 C 
ATOM     25  C   UNL     1      -1.213  -0.905  -0.103  0.00  0.00    +0.005 C 
ATOM     26  C   UNL     1      -1.058  -2.426  -0.164  0.00  0.00    +0.000 C 
ATOM     27  C   UNL     1      -0.282  -2.909   1.063  0.00  0.00    +0.002 C 
ATOM     28  C   UNL     1       1.101  -2.256   1.082  0.00  0.00    +0.022 C 
ATOM     29  C   UNL     1       0.946  -0.735   1.143  0.00  0.00    +0.076 C 
ENDBRANCH  19  29
ENDBRANCH  18  20
ENDBRANCH   1  18
TORSDOF 4
