REMARK  Name = ZINC12167198
REMARK  13 active torsions:
REMARK  status: ('A' for Active; 'I' for Inactive)
REMARK    1  A    between atoms: C_1  and  C_2
REMARK    2  A    between atoms: C_3  and  C_34
REMARK    3  A    between atoms: C_11  and  C_12
REMARK    4  A    between atoms: N_14  and  C_15
REMARK    5  A    between atoms: C_15  and  C_16
REMARK    6  A    between atoms: C_16  and  C_18
REMARK    7  A    between atoms: C_16  and  O_19
REMARK    8  A    between atoms: O_19  and  C_20
REMARK    9  A    between atoms: C_24  and  C_26
REMARK   10  A    between atoms: C_26  and  N_64
REMARK   11  A    between atoms: C_27  and  N_64
REMARK   12  A    between atoms: C_28  and  C_29
REMARK   13  A    between atoms: C_28  and  N_64
REMARK                            x       y       z     vdW  Elec       q    Type
REMARK                         _______ _______ _______ _____ _____    ______ ____
ROOT
ATOM      1  C   UNL     1      -0.663   3.425   5.789  0.00  0.00    +0.187 C 
ATOM      2  C   UNL     1      -0.701   4.948   5.647  0.00  0.00    +0.053 C 
ENDROOT
BRANCH   1   3
ATOM      3  C   UNL     1       0.039   3.051   7.096  0.00  0.00    +0.148 C 
BRANCH   3   6
ATOM      4  C   UNL     1       0.650   1.031   8.313  0.00  0.00    +0.246 C 
ATOM      5  O   UNL     1       1.139   1.734   9.176  0.00  0.00    -0.270 OA
ATOM      6  N   UNL     1       0.076   1.593   7.231  0.00  0.00    -0.308 N 
ATOM      7  H   UNL     1      -0.314   1.032   6.542  0.00  0.00    +0.149 HD
BRANCH   4  18
ATOM      8  C   UNL     1       2.267  -4.090  11.523  0.00  0.00    +0.046 C 
ATOM      9  C   UNL     1       1.990  -2.724  10.949  0.00  0.00    -0.022 A 
ATOM     10  C   UNL     1       2.320  -1.544  11.498  0.00  0.00    +0.017 A 
ATOM     11  N   UNL     1       1.905  -0.522  10.688  0.00  0.00    -0.357 N 
ATOM     12  H   UNL     1       2.031   0.422  10.873  0.00  0.00    +0.166 HD
ATOM     13  C   UNL     1       1.285  -1.028   9.574  0.00  0.00    +0.059 A 
ATOM     14  C   UNL     1       1.308  -2.430   9.685  0.00  0.00    +0.004 A 
ATOM     15  C   UNL     1       0.742  -3.219   8.684  0.00  0.00    +0.010 A 
ATOM     16  C   UNL     1       0.158  -2.625   7.585  0.00  0.00    +0.001 A 
ATOM     17  C   UNL     1       0.123  -1.247   7.465  0.00  0.00    +0.015 A 
ATOM     18  C   UNL     1       0.687  -0.438   8.449  0.00  0.00    +0.061 A 
ATOM     19  C   UNL     1       3.040  -1.371  12.810  0.00  0.00    +0.063 C 
ENDBRANCH   4  18
ENDBRANCH   3   6
ENDBRANCH   1   3
BRANCH   1  20
ATOM     20  O   UNL     1       0.051   2.862   4.686  0.00  0.00    -0.488 OA
BRANCH  20  21
ATOM     21  C   UNL     1      -0.654   2.633   3.547  0.00  0.00    +0.121 A 
ATOM     22  C   UNL     1      -1.975   3.046   3.452  0.00  0.00    +0.045 A 
ATOM     23  C   UNL     1      -2.689   2.812   2.293  0.00  0.00    +0.004 A 
ATOM     24  C   UNL     1      -2.087   2.171   1.226  0.00  0.00    +0.002 A 
ATOM     25  C   UNL     1      -0.772   1.754   1.320  0.00  0.00    -0.060 A 
ATOM     26  C   UNL     1      -0.054   1.985   2.477  0.00  0.00    +0.047 A 
BRANCH  25  27
ATOM     27  C   UNL     1      -0.121   1.050   0.157  0.00  0.00    -0.043 C 
BRANCH  27  29
ATOM     28  C   UNL     1       0.381  -0.931   1.456  0.00  0.00    -0.095 C 
ATOM     29  N   UNL     1      -0.355  -0.404   0.287  0.00  0.00    +0.384 N 
ATOM     30  H   UNL     1      -1.360  -0.568   0.424  0.00  0.00    -0.081 HD
BRANCH  29  31
ATOM     31  C   UNL     1       0.083  -1.098  -0.942  0.00  0.00    -0.036 C 
BRANCH  31  32
ATOM     32  C   UNL     1      -0.366  -2.535  -0.874  0.00  0.00    -0.027 A 
ATOM     33  C   UNL     1      -1.534  -3.085  -1.286  0.00  0.00    +0.009 A 
ATOM     34  C   UNL     1      -1.729  -4.444  -1.126  0.00  0.00    +0.008 A 
ATOM     35  C   UNL     1      -0.750  -5.185  -0.551  0.00  0.00    +0.045 A 
ATOM     36  S   UNL     1       0.501  -3.954  -0.223  0.00  0.00    -0.103 S 
ENDBRANCH  31  32
ENDBRANCH  29  31
ENDBRANCH  27  29
ENDBRANCH  25  27
ENDBRANCH  20  21
ENDBRANCH   1  20
TORSDOF 9
