REMARK  Name = ZINC00630347
REMARK  7 active torsions:
REMARK  status: ('A' for Active; 'I' for Inactive)
REMARK    1  A    between atoms: C_1  and  C_2
REMARK    2  A    between atoms: C_2  and  C_3
REMARK    3  A    between atoms: C_5  and  N_31
REMARK    4  A    between atoms: C_6  and  C_19
REMARK    5  A    between atoms: C_15  and  C_17
REMARK    6  A    between atoms: C_15  and  C_18
REMARK    7  A    between atoms: C_19  and  C_21
REMARK                            x       y       z     vdW  Elec       q    Type
REMARK                         _______ _______ _______ _____ _____    ______ ____
ROOT
ATOM      1  C   UNL     1       5.345  -4.851   1.230  0.00  0.00    -0.024 A 
ATOM      2  C   UNL     1       4.446  -4.002   0.548  0.00  0.00    +0.033 A 
ATOM      3  C   UNL     1       4.719  -2.734  -0.113  0.00  0.00    +0.052 A 
ATOM      4  C   UNL     1       3.670  -2.076  -0.722  0.00  0.00    +0.083 A 
ATOM      5  S   UNL     1       2.277  -3.145  -0.415  0.00  0.00    -0.064 S 
ATOM      6  C   UNL     1       3.098  -4.432   0.493  0.00  0.00    +0.111 A 
ATOM      7  N   UNL     1       2.684  -5.554   1.044  0.00  0.00    -0.244 NA
ATOM      8  C   UNL     1       3.504  -6.362   1.689  0.00  0.00    +0.054 A 
ATOM      9  C   UNL     1       4.862  -6.029   1.795  0.00  0.00    +0.043 A 
ATOM     10  C   UNL     1       5.789  -6.930   2.502  0.00  0.00    +0.166 C 
ATOM     11  O   UNL     1       6.990  -6.777   2.429  0.00  0.00    -0.292 OA
ATOM     12  C   UNL     1       5.191  -8.053   3.322  0.00  0.00    +0.086 C 
ATOM     13  C   UNL     1       4.049  -8.665   2.499  0.00  0.00    -0.022 C 
ATOM     14  C   UNL     1       2.953  -7.622   2.300  0.00  0.00    +0.063 C 
ATOM     15  C   UNL     1       3.475  -9.873   3.242  0.00  0.00    +0.011 C 
ATOM     16  C   UNL     1       4.584  -9.110   1.137  0.00  0.00    +0.011 C 
ENDROOT
BRANCH   3  17
ATOM     17  N   UNL     1       5.998  -2.202  -0.131  0.00  0.00    -0.356 N 
ATOM     18  H   UNL     1       6.123  -1.242  -0.179  0.00  0.00    +0.142 HD
ATOM     19  H   UNL     1       6.768  -2.791  -0.095  0.00  0.00    +0.142 HD
ENDBRANCH   3  17
BRANCH   1  21
ATOM     20  C   UNL     1       7.574  -5.095   0.172  0.00  0.00    +0.009 C 
ATOM     21  C   UNL     1       6.803  -4.488   1.346  0.00  0.00    +0.033 C 
ENDBRANCH   1  21
BRANCH   4  22
ATOM     22  C   UNL     1       3.693  -0.845  -1.419  0.00  0.00    +0.202 C 
ATOM     23  O   UNL     1       4.753  -0.279  -1.622  0.00  0.00    -0.286 OA
BRANCH  22  24
ATOM     24  C   UNL     1       2.432  -0.245  -1.902  0.00  0.00    +0.027 A 
ATOM     25  C   UNL     1       2.446   0.642  -2.981  0.00  0.00    +0.015 A 
ATOM     26  C   UNL     1       1.269   1.201  -3.427  0.00  0.00    +0.050 A 
ATOM     27  C   UNL     1       0.065   0.887  -2.808  0.00  0.00    +0.162 A 
ATOM     28  C   UNL     1       0.044   0.001  -1.733  0.00  0.00    +0.163 A 
ATOM     29  C   UNL     1       1.222  -0.562  -1.279  0.00  0.00    +0.061 A 
ATOM     30  O   UNL     1      -1.128  -0.323  -1.121  0.00  0.00    -0.485 OA
ATOM     31  C   UNL     1      -2.241   0.545  -1.361  0.00  0.00    +0.270 C 
ATOM     32  C   UNL     1      -2.311   0.832  -2.867  0.00  0.00    +0.270 C 
ATOM     33  O   UNL     1      -1.084   1.457  -3.260  0.00  0.00    -0.485 OA
ENDBRANCH  22  24
ENDBRANCH   4  22
TORSDOF 4
