REMARK  Name = ZINC09165453
REMARK  7 active torsions:
REMARK  status: ('A' for Active; 'I' for Inactive)
REMARK    1  A    between atoms: C_1  and  C_2
REMARK    2  A    between atoms: C_2  and  C_28
REMARK    3  A    between atoms: C_7  and  N_15
REMARK    4  A    between atoms: N_11  and  C_14
REMARK    5  A    between atoms: N_15  and  S_16
REMARK    6  A    between atoms: S_16  and  C_19
REMARK    7  A    between atoms: C_24  and  N_25
REMARK                            x       y       z     vdW  Elec       q    Type
REMARK                         _______ _______ _______ _____ _____    ______ ____
ROOT
ATOM      1  C   UNL     1      -5.320   6.295  -2.118  0.00  0.00    +0.024 C 
ATOM      2  C   UNL     1      -4.448   5.051  -2.299  0.00  0.00    +0.076 C 
ATOM      3  C   UNL     1      -5.339   3.813  -2.369  0.00  0.00    +0.244 C 
ATOM      4  O   UNL     1      -4.613   2.705  -2.895  0.00  0.00    -0.489 OA
ATOM      5  C   UNL     1      -3.352   2.510  -2.428  0.00  0.00    +0.144 A 
ATOM      6  C   UNL     1      -3.087   1.493  -1.527  0.00  0.00    +0.072 A 
ATOM      7  C   UNL     1      -1.797   1.313  -1.047  0.00  0.00    +0.052 A 
ATOM      8  C   UNL     1      -0.771   2.144  -1.477  0.00  0.00    +0.026 A 
ATOM      9  C   UNL     1      -1.032   3.156  -2.382  0.00  0.00    +0.029 A 
ATOM     10  C   UNL     1      -2.319   3.341  -2.860  0.00  0.00    +0.078 A 
ATOM     11  N   UNL     1      -2.597   4.359  -3.786  0.00  0.00    -0.271 N 
ATOM     12  C   UNL     1      -3.646   5.184  -3.568  0.00  0.00    +0.229 C 
ATOM     13  O   UNL     1      -3.940   6.026  -4.389  0.00  0.00    -0.275 OA
ATOM     14  C   UNL     1      -1.759   4.527  -4.976  0.00  0.00    +0.138 C 
ATOM     15  C   UNL     1      -3.494   4.922  -1.110  0.00  0.00    +0.024 C 
ENDROOT
BRANCH   7  16
ATOM     16  N   UNL     1      -1.529   0.289  -0.132  0.00  0.00    -0.216 N 
ATOM     17  H   UNL     1      -1.880  -0.602  -0.285  0.00  0.00    +0.174 HD
BRANCH  16  18
ATOM     18  S   UNL     1      -0.613   0.599   1.212  0.00  0.00    +0.075 S 
ATOM     19  O   UNL     1      -0.614  -0.592   1.988  0.00  0.00    -0.150 OA
ATOM     20  O   UNL     1       0.587   1.209   0.754  0.00  0.00    -0.150 OA
BRANCH  18  21
ATOM     21  C   UNL     1      -1.468   1.816   2.157  0.00  0.00    +0.139 A 
ATOM     22  C   UNL     1      -0.887   3.050   2.381  0.00  0.00    +0.031 A 
ATOM     23  C   UNL     1      -1.560   4.007   3.118  0.00  0.00    +0.002 A 
ATOM     24  C   UNL     1      -2.809   3.725   3.640  0.00  0.00    +0.002 A 
ATOM     25  C   UNL     1      -3.387   2.489   3.420  0.00  0.00    +0.035 A 
ATOM     26  C   UNL     1      -2.716   1.534   2.678  0.00  0.00    +0.153 A 
BRANCH  26  27
ATOM     27  N   UNL     1      -3.335   0.210   2.443  0.00  0.00    +0.058 N 
ATOM     28  O   UNL     1      -4.374  -0.085   3.006  0.00  0.00    -0.126 OA
ATOM     29  O   UNL     1      -2.805  -0.584   1.687  0.00  0.00    -0.126 OA
ENDBRANCH  26  27
ENDBRANCH  18  21
ENDBRANCH  16  18
ENDBRANCH   7  16
TORSDOF 4
