REMARK  Name = ZINC52999073
REMARK  8 active torsions:
REMARK  status: ('A' for Active; 'I' for Inactive)
REMARK    1  A    between atoms: C_1  and  C_2
REMARK    2  A    between atoms: C_9  and  C_12
REMARK    3  A    between atoms: C_10  and  C_11
REMARK    4  A    between atoms: N_14  and  N_15
REMARK    5  A    between atoms: C_16  and  C_18
REMARK    6  A    between atoms: C_18  and  O_19
REMARK    7  A    between atoms: O_19  and  C_20
REMARK    8  A    between atoms: C_25  and  C_26
REMARK                            x       y       z     vdW  Elec       q    Type
REMARK                         _______ _______ _______ _____ _____    ______ ____
ROOT
ATOM      1  C   UNL     1       0.068  -1.347   4.779  0.00  0.00    +0.296 C 
ATOM      2  O   UNL     1       0.089  -2.378   5.425  0.00  0.00    -0.265 OA
ATOM      3  N   UNL     1       0.057  -0.156   5.409  0.00  0.00    -0.228 N 
ATOM      4  H   UNL     1       0.041   0.665   4.894  0.00  0.00    +0.173 HD
ENDROOT
BRANCH   1  13
ATOM      5  C   UNL     1      -0.018   1.503   0.010  0.00  0.00    +0.047 C 
ATOM      6  C   UNL     1       0.002  -0.004   0.002  0.00  0.00    -0.008 A 
ATOM      7  C   UNL     1       0.006  -0.688  -1.195  0.00  0.00    +0.007 A 
ATOM      8  C   UNL     1       0.024  -2.076  -1.218  0.00  0.00    +0.001 A 
ATOM      9  C   UNL     1       0.039  -2.788  -0.052  0.00  0.00    +0.012 A 
ATOM     10  C   UNL     1       0.036  -2.114   1.171  0.00  0.00    +0.024 A 
ATOM     11  C   UNL     1       0.023  -0.707   1.201  0.00  0.00    +0.139 A 
ATOM     12  O   UNL     1       0.031  -0.327   2.493  0.00  0.00    -0.450 OA
ATOM     13  C   UNL     1       0.054  -1.402   3.310  0.00  0.00    +0.195 A 
ATOM     14  C   UNL     1       0.048  -2.540   2.570  0.00  0.00    +0.008 A 
ATOM     15  C   UNL     1       0.069  -3.956   3.085  0.00  0.00    +0.048 C 
ENDBRANCH   1  13
BRANCH   3  16
ATOM     16  N   UNL     1       0.071  -0.105   6.809  0.00  0.00    -0.231 N 
ATOM     17  C   UNL     1       0.060   1.086   7.440  0.00  0.00    +0.267 C 
ATOM     18  O   UNL     1       0.040   2.113   6.795  0.00  0.00    -0.271 OA
ATOM     19  H   UNL     1       0.087  -0.926   7.325  0.00  0.00    +0.173 HD
BRANCH  17  20
ATOM     20  C   UNL     1       0.075   1.142   8.946  0.00  0.00    +0.326 C 
BRANCH  20  21
ATOM     21  O   UNL     1       0.060   2.505   9.372  0.00  0.00    -0.481 OA
BRANCH  21  22
ATOM     22  C   UNL     1       0.070   2.732  10.710  0.00  0.00    +0.138 A 
ATOM     23  C   UNL     1       0.100   1.667  11.597  0.00  0.00    +0.047 A 
ATOM     24  C   UNL     1       0.110   1.900  12.958  0.00  0.00    +0.004 A 
ATOM     25  C   UNL     1       0.091   3.195  13.448  0.00  0.00    +0.001 A 
ATOM     26  C   UNL     1       0.062   4.266  12.581  0.00  0.00    +0.022 A 
ATOM     27  C   UNL     1       0.057   4.045  11.201  0.00  0.00    +0.093 A 
BRANCH  27  28
ATOM     28  C   UNL     1       0.032   5.153  10.295  0.00  0.00    +0.103 C 
ATOM     29  N   UNL     1       0.012   6.032   9.575  0.00  0.00    -0.191 NA
ENDBRANCH  27  28
ENDBRANCH  21  22
ENDBRANCH  20  21
ENDBRANCH  17  20
ENDBRANCH   3  16
TORSDOF 6
