REMARK  Name = ZINC06669983
REMARK  8 active torsions:
REMARK  status: ('A' for Active; 'I' for Inactive)
REMARK    1  A    between atoms: C_1  and  C_2
REMARK    2  A    between atoms: C_2  and  C_27
REMARK    3  A    between atoms: C_7  and  N_11
REMARK    4  A    between atoms: C_8  and  C_9
REMARK    5  A    between atoms: C_12  and  C_14
REMARK    6  A    between atoms: N_16  and  C_17
REMARK    7  A    between atoms: C_17  and  C_18
REMARK    8  A    between atoms: C_18  and  C_19
REMARK                            x       y       z     vdW  Elec       q    Type
REMARK                         _______ _______ _______ _____ _____    ______ ____
ROOT
ATOM      1  N   UNL     1      -3.124  -5.365  -0.055  0.00  0.00    -0.272 N 
ATOM      2  C   UNL     1      -2.741  -6.610  -0.401  0.00  0.00    +0.304 C 
ATOM      3  O   UNL     1      -1.638  -6.797  -0.871  0.00  0.00    -0.265 OA
ATOM      4  H   UNL     1      -4.006  -5.215   0.321  0.00  0.00    +0.156 HD
ENDROOT
BRANCH   1  11
ATOM      5  C   UNL     1      -0.019   1.526   0.010  0.00  0.00    +0.041 C 
ATOM      6  C   UNL     1       0.002  -0.004   0.002  0.00  0.00    +0.068 C 
ATOM      7  C   UNL     1      -1.436  -0.531   0.020  0.00  0.00    +0.071 C 
ATOM      8  C   UNL     1      -1.390  -2.034  -0.233  0.00  0.00    -0.016 A 
ATOM      9  C   UNL     1      -0.278  -2.593  -0.764  0.00  0.00    +0.021 A 
ATOM     10  S   UNL     1      -0.651  -4.317  -0.882  0.00  0.00    -0.075 S 
ATOM     11  C   UNL     1      -2.259  -4.300  -0.236  0.00  0.00    +0.087 A 
ATOM     12  C   UNL     1      -2.470  -2.957   0.056  0.00  0.00    +0.095 A 
ATOM     13  C   UNL     1       0.973  -1.869  -1.154  0.00  0.00    +0.203 C 
ATOM     14  O   UNL     1       0.678  -0.463  -1.172  0.00  0.00    -0.368 OA
ATOM     15  C   UNL     1       0.743  -0.508   1.242  0.00  0.00    +0.041 C 
BRANCH  12  16
ATOM     16  C   UNL     1      -3.734  -2.493   0.633  0.00  0.00    +0.389 C 
ATOM     17  O   UNL     1      -4.646  -2.150  -0.096  0.00  0.00    -0.240 OA
ATOM     18  O   UNL     1      -3.887  -2.445   1.972  0.00  0.00    -0.240 OA
ENDBRANCH  12  16
ENDBRANCH   1  11
BRANCH   2  19
ATOM     19  C   UNL     1      -3.674  -7.759  -0.205  0.00  0.00    +0.299 C 
ATOM     20  O   UNL     1      -4.777  -7.572   0.265  0.00  0.00    -0.265 OA
ATOM     21  N   UNL     1      -3.292  -9.004  -0.551  0.00  0.00    -0.307 N 
ATOM     22  H   UNL     1      -2.410  -9.154  -0.927  0.00  0.00    +0.149 HD
BRANCH  21  23
ATOM     23  C   UNL     1      -4.207 -10.132  -0.359  0.00  0.00    +0.109 C 
BRANCH  23  24
ATOM     24  C   UNL     1      -3.532 -11.422  -0.829  0.00  0.00    +0.054 C 
BRANCH  24  25
ATOM     25  C   UNL     1      -4.474 -12.582  -0.631  0.00  0.00    -0.046 A 
ATOM     26  C   UNL     1      -4.462 -13.288   0.557  0.00  0.00    +0.004 A 
ATOM     27  C   UNL     1      -5.329 -14.349   0.740  0.00  0.00    +0.000 A 
ATOM     28  C   UNL     1      -6.201 -14.710  -0.270  0.00  0.00    +0.000 A 
ATOM     29  C   UNL     1      -6.210 -14.008  -1.460  0.00  0.00    +0.000 A 
ATOM     30  C   UNL     1      -5.346 -12.944  -1.641  0.00  0.00    +0.004 A 
ENDBRANCH  24  25
ENDBRANCH  23  24
ENDBRANCH  21  23
ENDBRANCH   2  19
TORSDOF 6
