REMARK  Name = ZINC61607083
REMARK  11 active torsions:
REMARK  status: ('A' for Active; 'I' for Inactive)
REMARK    1  A    between atoms: C_1  and  C_2
REMARK    2  A    between atoms: C_2  and  C_3
REMARK    3  A    between atoms: C_3  and  N_4
REMARK    4  A    between atoms: N_7  and  C_8
REMARK    5  A    between atoms: C_8  and  C_9
REMARK    6  A    between atoms: C_8  and  C_10
REMARK    7  A    between atoms: C_8  and  C_11
REMARK    8  A    between atoms: N_13  and  C_14
REMARK    9  A    between atoms: N_13  and  C_15
REMARK   10  A    between atoms: N_18  and  C_21
REMARK   11  A    between atoms: C_24  and  C_27
REMARK                            x       y       z     vdW  Elec       q    Type
REMARK                         _______ _______ _______ _____ _____    ______ ____
ROOT
ATOM      1  C   UNL     1       1.901  -6.189  -3.282  0.00  0.00    +0.239 C 
ATOM      2  O   UNL     1       1.810  -6.873  -4.279  0.00  0.00    -0.273 OA
ATOM      3  N   UNL     1       1.923  -6.770  -2.066  0.00  0.00    -0.300 N 
ATOM      4  C   UNL     1       1.894  -5.942  -0.858  0.00  0.00    +0.132 C 
ENDROOT
BRANCH   3   5
ATOM      5  C   UNL     1       1.976  -8.230  -1.952  0.00  0.00    +0.072 C 
ATOM      6  C   UNL     1       3.237  -8.638  -1.185  0.00  0.00    +0.004 C 
ATOM      7  C   UNL     1       3.246 -10.157  -1.001  0.00  0.00    -0.077 C 
ATOM      8  N   UNL     1       2.057 -10.569  -0.245  0.00  0.00    +0.382 N 
ATOM      9  C   UNL     1       0.845 -10.245  -1.007  0.00  0.00    -0.077 C 
ATOM     10  C   UNL     1       0.744  -8.729  -1.192  0.00  0.00    +0.004 C 
ATOM     11  H   UNL     1       2.037 -10.082   0.639  0.00  0.00    -0.081 HD
BRANCH   8  12
ATOM     12  C   UNL     1       2.109 -12.017  -0.003  0.00  0.00    -0.069 C 
ATOM     13  C   UNL     1       0.870 -12.447   0.785  0.00  0.00    -0.015 C 
ATOM     14  C   UNL     1       0.924 -13.955   1.037  0.00  0.00    +0.002 C 
ATOM     15  C   UNL     1       2.182 -14.293   1.839  0.00  0.00    -0.014 C 
ATOM     16  C   UNL     1       3.421 -13.863   1.051  0.00  0.00    +0.002 C 
ATOM     17  C   UNL     1       3.367 -12.355   0.800  0.00  0.00    -0.015 C 
ATOM     18  C   UNL     1       2.147 -13.554   3.178  0.00  0.00    +0.007 C 
ENDBRANCH   8  12
ENDBRANCH   3   5
BRANCH   1  19
ATOM     19  C   UNL     1       1.990  -4.690  -3.403  0.00  0.00    +0.107 C 
ATOM     20  C   UNL     1       0.695  -4.059  -2.889  0.00  0.00    +0.041 C 
ATOM     21  C   UNL     1       2.197  -4.308  -4.870  0.00  0.00    +0.041 C 
BRANCH  19  25
ATOM     22  N   UNL     1       4.389  -2.430  -1.773  0.00  0.00    -0.299 N 
ATOM     23  C   UNL     1       3.350  -2.878  -2.504  0.00  0.00    +0.300 C 
ATOM     24  O   UNL     1       2.620  -2.088  -3.071  0.00  0.00    -0.253 OA
ATOM     25  N   UNL     1       3.120  -4.202  -2.607  0.00  0.00    -0.286 N 
ATOM     26  H   UNL     1       4.972  -3.060  -1.320  0.00  0.00    +0.150 HD
ATOM     27  H   UNL     1       3.702  -4.832  -2.155  0.00  0.00    +0.151 HD
BRANCH  22  28
ATOM     28  C   UNL     1       4.639  -0.991  -1.661  0.00  0.00    +0.105 C 
BRANCH  28  30
ATOM     29  C   UNL     1       6.130   0.750  -0.664  0.00  0.00    +0.005 C 
ATOM     30  C   UNL     1       5.868  -0.753  -0.781  0.00  0.00    +0.015 C 
ENDBRANCH  28  30
ENDBRANCH  22  28
ENDBRANCH  19  25
ENDBRANCH   1  19
TORSDOF 6
