REMARK  Name = ZINC65390782
REMARK  6 active torsions:
REMARK  status: ('A' for Active; 'I' for Inactive)
REMARK    1  A    between atoms: C_1  and  N_2
REMARK    2  A    between atoms: N_2  and  C_3
REMARK    3  A    between atoms: C_3  and  C_4
REMARK    4  A    between atoms: N_16  and  C_17
REMARK    5  A    between atoms: C_17  and  C_18
REMARK    6  A    between atoms: C_18  and  N_19
REMARK                            x       y       z     vdW  Elec       q    Type
REMARK                         _______ _______ _______ _____ _____    ______ ____
ROOT
ATOM      1  C   UNL     1      -0.018   1.461   0.010  0.00  0.00    +0.134 C 
ATOM      2  N   UNL     1       0.002  -0.004   0.002  0.00  0.00    -0.284 N 
ATOM      3  C   UNL     1       0.000  -0.672  -1.169  0.00  0.00    +0.302 C 
ATOM      4  O   UNL     1       0.017  -1.887  -1.175  0.00  0.00    -0.253 OA
ATOM      5  N   UNL     1      -0.020   0.009  -2.332  0.00  0.00    -0.298 N 
ATOM      6  H   UNL     1      -0.033   0.978  -2.327  0.00  0.00    +0.150 HD
ENDROOT
BRANCH   2   7
ATOM      7  C   UNL     1       0.024  -0.743   1.267  0.00  0.00    +0.144 C 
BRANCH   7   8
ATOM      8  C   UNL     1      -1.389  -1.016   1.714  0.00  0.00    -0.026 A 
ATOM      9  C   UNL     1      -2.046  -0.104   2.518  0.00  0.00    +0.009 A 
ATOM     10  C   UNL     1      -3.342  -0.351   2.932  0.00  0.00    +0.050 A 
ATOM     11  C   UNL     1      -3.986  -1.516   2.539  0.00  0.00    +0.162 A 
ATOM     12  C   UNL     1      -3.326  -2.431   1.728  0.00  0.00    +0.162 A 
ATOM     13  C   UNL     1      -2.027  -2.175   1.314  0.00  0.00    +0.054 A 
ATOM     14  O   UNL     1      -3.942  -3.576   1.326  0.00  0.00    -0.485 OA
ATOM     15  C   UNL     1      -5.107  -3.972   2.058  0.00  0.00    +0.270 C 
ATOM     16  C   UNL     1      -6.003  -2.739   2.240  0.00  0.00    +0.270 C 
ATOM     17  O   UNL     1      -5.260  -1.747   2.958  0.00  0.00    -0.485 OA
ENDBRANCH   7   8
ENDBRANCH   2   7
BRANCH   5  18
ATOM     18  C   UNL     1      -0.022  -0.717  -3.605  0.00  0.00    +0.124 C 
BRANCH  18  19
ATOM     19  C   UNL     1      -0.047   0.283  -4.762  0.00  0.00    +0.121 C 
BRANCH  19  20
ATOM     20  N   UNL     1      -0.049  -0.442  -6.035  0.00  0.00    -0.329 N 
ATOM     21  C   UNL     1      -0.070   0.259  -7.235  0.00  0.00    +0.096 A 
ATOM     22  C   UNL     1      -0.083   1.650  -7.220  0.00  0.00    +0.041 A 
ATOM     23  C   UNL     1      -0.104   2.335  -8.421  0.00  0.00    +0.005 A 
ATOM     24  C   UNL     1      -0.111   1.604  -9.602  0.00  0.00    +0.018 A 
ATOM     25  C   UNL     1      -0.097   0.225  -9.543  0.00  0.00    +0.084 A 
ATOM     26  N   UNL     1      -0.072  -0.403  -8.382  0.00  0.00    -0.350 N 
ATOM     27  H   UNL     1      -0.036  -1.412  -6.040  0.00  0.00    +0.147 HD
ATOM     28  H   UNL     1      -0.059  -1.372  -8.368  0.00  0.00    +0.166 HD
ENDBRANCH  19  20
ENDBRANCH  18  19
ENDBRANCH   5  18
TORSDOF 5
