REMARK  Name = ZINC38547026
REMARK  10 active torsions:
REMARK  status: ('A' for Active; 'I' for Inactive)
REMARK    1  A    between atoms: C_1  and  C_2
REMARK    2  A    between atoms: N_8  and  C_9
REMARK    3  A    between atoms: C_9  and  C_11
REMARK    4  A    between atoms: C_9  and  C_19
REMARK    5  A    between atoms: C_14  and  O_17
REMARK    6  A    between atoms: O_17  and  C_18
REMARK    7  A    between atoms: C_20  and  C_34
REMARK    8  A    between atoms: C_21  and  C_33
REMARK    9  A    between atoms: C_23  and  N_24
REMARK   10  A    between atoms: C_25  and  C_27
REMARK                            x       y       z     vdW  Elec       q    Type
REMARK                         _______ _______ _______ _____ _____    ______ ____
ROOT
ATOM      1  C   UNL     1      -0.082  -2.012   3.589  0.00  0.00    +0.135 C 
ENDROOT
BRANCH   1   9
ATOM      2  C   UNL     1      -2.535  -6.436   4.425  0.00  0.00    +0.044 C 
ATOM      3  C   UNL     1      -1.809  -5.823   3.255  0.00  0.00    -0.046 A 
ATOM      4  C   UNL     1      -1.668  -6.520   2.063  0.00  0.00    +0.021 A 
ATOM      5  C   UNL     1      -0.998  -5.931   1.010  0.00  0.00    +0.084 A 
ATOM      6  N   UNL     1      -0.492  -4.717   1.124  0.00  0.00    -0.350 N 
ATOM      7  C   UNL     1      -0.606  -4.020   2.244  0.00  0.00    +0.097 A 
ATOM      8  C   UNL     1      -1.274  -4.551   3.343  0.00  0.00    +0.045 A 
ATOM      9  N   UNL     1      -0.058  -2.745   2.321  0.00  0.00    -0.320 N 
ATOM     10  H   UNL     1       0.341  -2.340   1.534  0.00  0.00    +0.148 HD
ATOM     11  H   UNL     1      -0.026  -4.326   0.369  0.00  0.00    +0.166 HD
ENDBRANCH   1   9
BRANCH   1  12
ATOM     12  C   UNL     1      -1.442  -1.391   3.784  0.00  0.00    +0.009 A 
ATOM     13  C   UNL     1      -2.055  -1.416   5.023  0.00  0.00    -0.033 A 
ATOM     14  C   UNL     1      -3.277  -0.849   5.165  0.00  0.00    -0.008 A 
ATOM     15  S   UNL     1      -3.603  -0.251   3.515  0.00  0.00    -0.078 S 
ATOM     16  C   UNL     1      -2.086  -0.791   2.745  0.00  0.00    +0.078 A 
ATOM     17  C   UNL     1      -4.139  -0.750   6.396  0.00  0.00    +0.052 C 
ATOM     18  C   UNL     1      -1.374  -2.066   6.200  0.00  0.00    +0.045 C 
BRANCH  16  19
ATOM     19  N   UNL     1      -1.668  -0.639   1.421  0.00  0.00    -0.276 N 
ATOM     20  C   UNL     1      -2.403   0.096   0.563  0.00  0.00    +0.249 C 
ATOM     21  O   UNL     1      -3.380   0.701   0.962  0.00  0.00    -0.270 OA
ATOM     22  H   UNL     1      -0.850  -1.063   1.119  0.00  0.00    +0.156 HD
BRANCH  20  23
ATOM     23  C   UNL     1      -2.022   0.167  -0.863  0.00  0.00    +0.037 A 
ATOM     24  C   UNL     1      -0.972  -0.615  -1.348  0.00  0.00    +0.013 A 
ATOM     25  C   UNL     1      -0.621  -0.544  -2.680  0.00  0.00    +0.001 A 
ATOM     26  C   UNL     1      -1.308   0.300  -3.536  0.00  0.00    +0.000 A 
ATOM     27  C   UNL     1      -2.349   1.078  -3.062  0.00  0.00    +0.001 A 
ATOM     28  C   UNL     1      -2.713   1.013  -1.733  0.00  0.00    +0.013 A 
ENDBRANCH  20  23
ENDBRANCH  16  19
ENDBRANCH   1  12
BRANCH   1  29
ATOM     29  C   UNL     1       0.966  -0.929   3.564  0.00  0.00    -0.023 A 
ATOM     30  C   UNL     1       1.238  -0.260   2.385  0.00  0.00    +0.009 A 
ATOM     31  C   UNL     1       2.199   0.733   2.359  0.00  0.00    +0.046 A 
ATOM     32  C   UNL     1       2.889   1.058   3.517  0.00  0.00    +0.120 A 
ATOM     33  C   UNL     1       2.613   0.386   4.699  0.00  0.00    +0.046 A 
ATOM     34  C   UNL     1       1.648  -0.602   4.721  0.00  0.00    +0.009 A 
BRANCH  32  35
ATOM     35  O   UNL     1       3.835   2.034   3.494  0.00  0.00    -0.495 OA
ATOM     36  C   UNL     1       4.506   2.317   4.724  0.00  0.00    +0.277 C 
ENDBRANCH  32  35
ENDBRANCH   1  29
TORSDOF 6
