REMARK  Name = ZINC20548401
REMARK  9 active torsions:
REMARK  status: ('A' for Active; 'I' for Inactive)
REMARK    1  A    between atoms: C_1  and  C_2
REMARK    2  A    between atoms: C_2  and  C_3
REMARK    3  A    between atoms: C_3  and  C_4
REMARK    4  A    between atoms: C_4  and  N_5
REMARK    5  A    between atoms: C_10  and  C_29
REMARK    6  A    between atoms: C_22  and  C_27
REMARK    7  A    between atoms: C_27  and  C_28
REMARK    8  A    between atoms: C_29  and  C_30
REMARK    9  A    between atoms: C_30  and  C_31
REMARK                            x       y       z     vdW  Elec       q    Type
REMARK                         _______ _______ _______ _____ _____    ______ ____
ROOT
ATOM      1  N   UNL     1      -2.787  -2.571   0.015  0.00  0.00    -0.242 N 
ATOM      2  C   UNL     1      -3.457  -2.822   1.145  0.00  0.00    +0.227 C 
ATOM      3  O   UNL     1      -3.023  -2.664   2.266  0.00  0.00    -0.275 OA
ATOM      4  C   UNL     1      -4.840  -3.332   0.808  0.00  0.00    +0.107 C 
ATOM      5  C   UNL     1      -4.944  -4.818   1.213  0.00  0.00    +0.068 C 
ATOM      6  N   UNL     1      -5.582  -5.487   0.048  0.00  0.00    -0.295 NA
ATOM      7  C   UNL     1      -4.982  -4.822  -1.124  0.00  0.00    +0.136 C 
ATOM      8  C   UNL     1      -4.853  -3.326  -0.747  0.00  0.00    +0.122 C 
ATOM      9  C   UNL     1      -3.477  -2.815  -1.106  0.00  0.00    +0.228 C 
ATOM     10  O   UNL     1      -3.061  -2.654  -2.233  0.00  0.00    -0.275 OA
ATOM     11  C   UNL     1      -3.654  -5.427  -1.480  0.00  0.00    +0.004 A 
ATOM     12  C   UNL     1      -2.467  -5.579  -0.799  0.00  0.00    +0.008 A 
ATOM     13  C   UNL     1      -1.391  -6.197  -1.411  0.00  0.00    +0.001 A 
ATOM     14  C   UNL     1      -1.510  -6.661  -2.708  0.00  0.00    +0.005 A 
ATOM     15  C   UNL     1      -2.697  -6.510  -3.395  0.00  0.00    -0.026 A 
ATOM     16  C   UNL     1      -3.785  -5.890  -2.786  0.00  0.00    +0.042 A 
ATOM     17  N   UNL     1      -5.070  -5.625  -3.266  0.00  0.00    -0.283 N 
ATOM     18  C   UNL     1      -5.835  -5.000  -2.351  0.00  0.00    +0.243 C 
ATOM     19  O   UNL     1      -6.988  -4.649  -2.489  0.00  0.00    -0.273 OA
ATOM     20  H   UNL     1      -5.383  -6.476   0.045  0.00  0.00    +0.123 HD
ATOM     21  H   UNL     1      -5.375  -5.863  -4.155  0.00  0.00    +0.155 HD
ENDROOT
BRANCH  15  22
ATOM     22  C   UNL     1      -2.816  -7.019  -4.809  0.00  0.00    +0.033 C 
ATOM     23  C   UNL     1      -2.527  -5.878  -5.787  0.00  0.00    +0.009 C 
ENDBRANCH  15  22
BRANCH   1  24
ATOM     24  C   UNL     1      -1.413  -2.063   0.004  0.00  0.00    +0.116 C 
BRANCH  24  25
ATOM     25  C   UNL     1      -1.433  -0.534   0.013  0.00  0.00    +0.019 C 
BRANCH  25  27
ATOM     26  C   UNL     1      -0.019   1.526   0.010  0.00  0.00    +0.004 C 
ATOM     27  C   UNL     1       0.002  -0.004   0.002  0.00  0.00    -0.002 C 
ENDBRANCH  25  27
ENDBRANCH  24  25
ENDBRANCH   1  24
BRANCH   5  28
ATOM     28  C   UNL     1      -5.815  -4.970   2.461  0.00  0.00    +0.031 C 
BRANCH  28  29
ATOM     29  C   UNL     1      -5.803  -6.430   2.917  0.00  0.00    +0.126 C 
BRANCH  29  30
ATOM     30  C   UNL     1      -6.662  -6.580   4.146  0.00  0.00    +0.356 C 
ATOM     31  O   UNL     1      -7.231  -5.608   4.614  0.00  0.00    -0.246 OA
ATOM     32  O   UNL     1      -6.788  -7.672   4.673  0.00  0.00    -0.246 OA
ENDBRANCH  29  30
ENDBRANCH  28  29
ENDBRANCH   5  28
TORSDOF 7
