REMARK  Name = ZINC45029370
REMARK  5 active torsions:
REMARK  status: ('A' for Active; 'I' for Inactive)
REMARK    1  A    between atoms: C_1  and  C_2
REMARK    2  A    between atoms: C_9  and  C_11
REMARK    3  A    between atoms: N_13  and  N_14
REMARK    4  A    between atoms: N_17  and  C_18
REMARK    5  A    between atoms: C_21  and  C_24
REMARK                            x       y       z     vdW  Elec       q    Type
REMARK                         _______ _______ _______ _____ _____    ______ ____
ROOT
ATOM      1  C   UNL     1       1.916  -5.250   2.774  0.00  0.00    +0.267 C 
ATOM      2  O   UNL     1       2.864  -4.983   3.488  0.00  0.00    -0.268 OA
ATOM      3  N   UNL     1       1.531  -6.532   2.617  0.00  0.00    -0.229 N 
ATOM      4  H   UNL     1       0.775  -6.745   2.048  0.00  0.00    +0.173 HD
ENDROOT
BRANCH   1  12
ATOM      5  C   UNL     1      -0.071   1.535   0.073  0.00  0.00    +0.008 C 
ATOM      6  C   UNL     1      -0.044   0.005   0.056  0.00  0.00    -0.009 C 
ATOM      7  C   UNL     1      -1.479  -0.529   0.065  0.00  0.00    +0.009 C 
ATOM      8  C   UNL     1      -1.446  -2.036  -0.225  0.00  0.00    +0.043 C 
ATOM      9  C   UNL     1      -0.409  -2.667   0.658  0.00  0.00    -0.006 A 
ATOM     10  C   UNL     1       0.571  -2.022   1.353  0.00  0.00    -0.036 A 
ATOM     11  C   UNL     1       1.421  -2.814   2.111  0.00  0.00    +0.024 A 
ATOM     12  C   UNL     1       1.192  -4.178   2.085  0.00  0.00    +0.076 A 
ATOM     13  S   UNL     1      -0.214  -4.291   0.994  0.00  0.00    -0.088 S 
ATOM     14  C   UNL     1       0.705  -0.503   1.288  0.00  0.00    +0.039 C 
ENDBRANCH   1  12
BRANCH   3  15
ATOM     15  N   UNL     1       2.222  -7.557   3.275  0.00  0.00    -0.218 N 
ATOM     16  C   UNL     1       1.837  -8.839   3.118  0.00  0.00    +0.320 C 
ATOM     17  O   UNL     1       2.438  -9.729   3.690  0.00  0.00    -0.251 OA
ATOM     18  N   UNL     1       0.787  -9.135   2.327  0.00  0.00    -0.268 N 
ATOM     19  H   UNL     1       2.978  -7.344   3.844  0.00  0.00    +0.174 HD
ATOM     20  H   UNL     1       0.267  -8.422   1.925  0.00  0.00    +0.156 HD
BRANCH  18  21
ATOM     21  C   UNL     1       0.448 -10.467   2.087  0.00  0.00    +0.035 A 
ATOM     22  C   UNL     1       0.605 -11.415   3.094  0.00  0.00    +0.024 A 
ATOM     23  C   UNL     1       0.272 -12.731   2.860  0.00  0.00    +0.020 A 
ATOM     24  C   UNL     1      -0.225 -13.113   1.611  0.00  0.00    +0.052 A 
ATOM     25  C   UNL     1      -0.382 -12.158   0.603  0.00  0.00    +0.020 A 
ATOM     26  C   UNL     1      -0.052 -10.843   0.845  0.00  0.00    +0.024 A 
BRANCH  24  27
ATOM     27  C   UNL     1      -0.573 -14.480   1.365  0.00  0.00    +0.099 C 
ATOM     28  N   UNL     1      -0.848 -15.565   1.169  0.00  0.00    -0.191 NA
ENDBRANCH  24  27
ENDBRANCH  18  21
ENDBRANCH   3  15
TORSDOF 4
