REMARK  Name = ZINC67128285
REMARK  6 active torsions:
REMARK  status: ('A' for Active; 'I' for Inactive)
REMARK    1  A    between atoms: C_1  and  C_2
REMARK    2  A    between atoms: C_2  and  C_4
REMARK    3  A    between atoms: C_2  and  O_20
REMARK    4  A    between atoms: N_6  and  N_7
REMARK    5  A    between atoms: C_8  and  C_10
REMARK    6  A    between atoms: O_20  and  C_21
REMARK                            x       y       z     vdW  Elec       q    Type
REMARK                         _______ _______ _______ _____ _____    ______ ____
ROOT
ATOM      1  C   UNL     1       0.769  -0.710  -1.225  0.00  0.00    +0.270 C 
ATOM      2  O   UNL     1       1.894  -1.133  -1.062  0.00  0.00    -0.270 OA
ATOM      3  N   UNL     1       0.238  -0.671  -2.463  0.00  0.00    -0.231 N 
ATOM      4  H   UNL     1      -0.662  -0.332  -2.595  0.00  0.00    +0.173 HD
ENDROOT
BRANCH   3   5
ATOM      5  N   UNL     1       0.985  -1.118  -3.561  0.00  0.00    -0.230 N 
ATOM      6  C   UNL     1       0.454  -1.079  -4.799  0.00  0.00    +0.264 C 
ATOM      7  O   UNL     1      -0.674  -0.655  -4.963  0.00  0.00    -0.269 OA
ATOM      8  H   UNL     1       1.885  -1.456  -3.430  0.00  0.00    +0.173 HD
BRANCH   6   9
ATOM      9  C   UNL     1       1.240  -1.550  -5.955  0.00  0.00    +0.083 A 
ATOM     10  C   UNL     1       2.534  -2.044  -5.768  0.00  0.00    +0.017 A 
ATOM     11  C   UNL     1       3.265  -2.483  -6.850  0.00  0.00    +0.005 A 
ATOM     12  C   UNL     1       2.725  -2.437  -8.124  0.00  0.00    +0.049 A 
ATOM     13  C   UNL     1       1.443  -1.950  -8.326  0.00  0.00    +0.163 A 
ATOM     14  C   UNL     1       0.691  -1.511  -7.243  0.00  0.00    +0.174 A 
ATOM     15  O   UNL     1      -0.572  -1.042  -7.416  0.00  0.00    -0.484 OA
ATOM     16  C   UNL     1      -0.944  -0.670  -8.748  0.00  0.00    +0.270 C 
ATOM     17  C   UNL     1      -0.490  -1.784  -9.701  0.00  0.00    +0.270 C 
ATOM     18  O   UNL     1       0.934  -1.912  -9.588  0.00  0.00    -0.485 OA
ENDBRANCH   6   9
ENDBRANCH   3   5
BRANCH   1  20
ATOM     19  C   UNL     1      -0.294   1.273  -0.183  0.00  0.00    +0.062 C 
ATOM     20  C   UNL     1      -0.034  -0.229  -0.045  0.00  0.00    +0.257 C 
BRANCH  20  21
ATOM     21  O   UNL     1       0.693  -0.477   1.160  0.00  0.00    -0.480 OA
BRANCH  21  22
ATOM     22  C   UNL     1      -0.030  -0.600   2.303  0.00  0.00    +0.122 A 
ATOM     23  C   UNL     1      -1.410  -0.372   2.275  0.00  0.00    +0.046 A 
ATOM     24  C   UNL     1      -2.161  -0.487   3.402  0.00  0.00    +0.012 A 
ATOM     25  C   UNL     1      -1.546  -0.839   4.617  0.00  0.00    -0.018 A 
ATOM     26  C   UNL     1      -2.292  -0.967   5.801  0.00  0.00    +0.008 A 
ATOM     27  C   UNL     1      -1.665  -1.310   6.959  0.00  0.00    +0.001 A 
ATOM     28  C   UNL     1      -0.290  -1.538   6.990  0.00  0.00    +0.001 A 
ATOM     29  C   UNL     1       0.465  -1.423   5.863  0.00  0.00    +0.008 A 
ATOM     30  C   UNL     1      -0.148  -1.071   4.648  0.00  0.00    -0.014 A 
ATOM     31  C   UNL     1       0.598  -0.949   3.465  0.00  0.00    +0.054 A 
ENDBRANCH  21  22
ENDBRANCH  20  21
ENDBRANCH   1  20
TORSDOF 5
