REMARK  Name = ZINC09329887
REMARK  9 active torsions:
REMARK  status: ('A' for Active; 'I' for Inactive)
REMARK    1  A    between atoms: C_1  and  C_2
REMARK    2  A    between atoms: C_2  and  C_3
REMARK    3  A    between atoms: C_7  and  C_29
REMARK    4  A    between atoms: C_8  and  N_9
REMARK    5  A    between atoms: C_10  and  C_12
REMARK    6  A    between atoms: C_12  and  S_13
REMARK    7  A    between atoms: S_13  and  C_14
REMARK    8  A    between atoms: C_17  and  C_20
REMARK    9  A    between atoms: N_18  and  N_19
REMARK                            x       y       z     vdW  Elec       q    Type
REMARK                         _______ _______ _______ _____ _____    ______ ____
ROOT
ATOM      1  C   UNL     1      -1.461  -0.112  -7.638  0.00  0.00    +0.209 A 
ATOM      2  N   UNL     1      -0.262   0.426  -7.627  0.00  0.00    -0.120 NA
ATOM      3  N   UNL     1       0.144   0.626  -8.830  0.00  0.00    -0.125 NA
ATOM      4  C   UNL     1      -0.772   0.229  -9.684  0.00  0.00    +0.200 A 
ATOM      5  N   UNL     1      -1.826  -0.262  -8.946  0.00  0.00    -0.223 N 
ENDROOT
BRANCH   4   6
ATOM      6  C   UNL     1      -0.686   0.290 -11.153  0.00  0.00    +0.108 A 
ATOM      7  C   UNL     1       0.376   0.771 -11.893  0.00  0.00    +0.004 A 
ATOM      8  C   UNL     1       0.045   0.647 -13.242  0.00  0.00    +0.067 A 
ATOM      9  N   UNL     1      -1.153   0.119 -13.330  0.00  0.00    -0.178 NA
ATOM     10  N   UNL     1      -1.637  -0.123 -12.040  0.00  0.00    -0.273 N 
ATOM     11  H   UNL     1      -2.497  -0.512 -11.816  0.00  0.00    +0.189 HD
ATOM     12  C   UNL     1       1.186   1.164 -14.092  0.00  0.00    +0.058 C 
ATOM     13  C   UNL     1       2.051   2.014 -13.136  0.00  0.00    +0.011 C 
ATOM     14  C   UNL     1       1.754   1.380 -11.760  0.00  0.00    +0.039 C 
ENDBRANCH   4   6
BRANCH   5  15
ATOM     15  N   UNL     1      -2.994  -0.787  -9.422  0.00  0.00    -0.295 N 
ATOM     16  H   UNL     1      -3.693  -0.068  -9.538  0.00  0.00    +0.163 HD
ATOM     17  H   UNL     1      -2.841  -1.285 -10.286  0.00  0.00    +0.163 HD
ENDBRANCH   5  15
BRANCH   1  18
ATOM     18  S   UNL     1      -2.417  -0.563  -6.228  0.00  0.00    -0.075 S 
BRANCH  18  19
ATOM     19  C   UNL     1      -1.367  -0.103  -4.821  0.00  0.00    +0.173 C 
BRANCH  19  21
ATOM     20  N   UNL     1      -1.483  -0.185  -2.352  0.00  0.00    -0.284 N 
ATOM     21  C   UNL     1      -2.076  -0.440  -3.535  0.00  0.00    +0.228 C 
ATOM     22  O   UNL     1      -3.180  -0.941  -3.564  0.00  0.00    -0.275 OA
ATOM     23  H   UNL     1      -0.630   0.276  -2.326  0.00  0.00    +0.155 HD
BRANCH  20  29
ATOM     24  C   UNL     1      -2.709   0.355  -0.343  0.00  0.00    -0.026 A 
ATOM     25  C   UNL     1      -3.320  -0.044   0.830  0.00  0.00    +0.005 A 
ATOM     26  C   UNL     1      -3.317  -1.378   1.193  0.00  0.00    +0.001 A 
ATOM     27  C   UNL     1      -2.705  -2.317   0.384  0.00  0.00    +0.005 A 
ATOM     28  C   UNL     1      -2.093  -1.925  -0.790  0.00  0.00    -0.029 A 
ATOM     29  C   UNL     1      -2.097  -0.586  -1.160  0.00  0.00    +0.040 A 
ATOM     30  C   UNL     1      -1.425  -2.948  -1.672  0.00  0.00    +0.045 C 
BRANCH  24  32
ATOM     31  C   UNL     1      -3.887   2.080  -1.679  0.00  0.00    +0.009 C 
ATOM     32  C   UNL     1      -2.712   1.809  -0.737  0.00  0.00    +0.033 C 
ENDBRANCH  24  32
ENDBRANCH  20  29
ENDBRANCH  19  21
ENDBRANCH  18  19
ENDBRANCH   1  18
TORSDOF 7
