REMARK  Name = ZINC40377203
REMARK  5 active torsions:
REMARK  status: ('A' for Active; 'I' for Inactive)
REMARK    1  A    between atoms: C_5  and  S_6
REMARK    2  A    between atoms: S_6  and  N_9
REMARK    3  A    between atoms: N_9  and  C_10
REMARK    4  A    between atoms: C_10  and  C_15
REMARK    5  A    between atoms: N_16  and  O_17
REMARK                            x       y       z     vdW  Elec       q    Type
REMARK                         _______ _______ _______ _____ _____    ______ ____
ROOT
ATOM      1  C   UNL     1      -0.973  -2.059  -2.514  0.00  0.00    +0.098 C 
ATOM      2  C   UNL     1       0.401  -1.393  -2.771  0.00  0.00    +0.031 C 
ATOM      3  C   UNL     1       0.049  -0.252  -3.757  0.00  0.00    +0.002 C 
ATOM      4  C   UNL     1      -1.028  -0.865  -4.676  0.00  0.00    +0.002 C 
ATOM      5  C   UNL     1      -1.678  -2.014  -3.886  0.00  0.00    +0.031 C 
ENDROOT
BRANCH   1   6
ATOM      6  C   UNL     1      -0.795  -3.485  -2.060  0.00  0.00    +0.153 C 
ATOM      7  N   UNL     1      -1.821  -4.177  -1.686  0.00  0.00    -0.075 NA
ATOM      8  N   UNL     1       0.460  -4.051  -2.043  0.00  0.00    -0.342 N 
ATOM      9  H   UNL     1       1.240  -3.507  -2.238  0.00  0.00    +0.144 HD
ATOM     10  H   UNL     1       0.565  -4.992  -1.835  0.00  0.00    +0.144 HD
BRANCH   7  11
ATOM     11  O   UNL     1      -3.123  -3.638  -1.816  0.00  0.00    -0.408 OA
ATOM     12  H   UNL     1      -3.826  -4.228  -1.510  0.00  0.00    +0.328 HD
ENDBRANCH   7  11
ENDBRANCH   1   6
BRANCH   1  13
ATOM     13  N   UNL     1      -1.734  -1.297  -1.521  0.00  0.00    -0.176 NA
ATOM     14  H   UNL     1      -2.490  -0.757  -1.799  0.00  0.00    +0.149 HD
BRANCH  13  15
ATOM     15  S   UNL     1      -1.304  -1.358   0.077  0.00  0.00    +0.066 S 
ATOM     16  O   UNL     1      -1.125  -2.730   0.397  0.00  0.00    -0.153 OA
ATOM     17  O   UNL     1      -2.219  -0.525   0.776  0.00  0.00    -0.153 OA
BRANCH  15  22
ATOM     18  C   UNL     1       0.588   0.720   0.308  0.00  0.00    +0.038 A 
ATOM     19  C   UNL     1       1.915   1.092   0.413  0.00  0.00    +0.030 A 
ATOM     20  C   UNL     1       2.869   0.127   0.425  0.00  0.00    +0.080 A 
ATOM     21  S   UNL     1       1.891  -1.360   0.284  0.00  0.00    -0.057 S 
ATOM     22  C   UNL     1       0.279  -0.597   0.219  0.00  0.00    +0.144 A 
ATOM     23 CL   UNL     1       4.593   0.295   0.545  0.00  0.00    -0.076 Cl
ENDBRANCH  15  22
ENDBRANCH  13  15
ENDBRANCH   1  13
TORSDOF 5
