REMARK  Name = ZINC18045940
REMARK  6 active torsions:
REMARK  status: ('A' for Active; 'I' for Inactive)
REMARK    1  A    between atoms: C_1  and  C_2
REMARK    2  A    between atoms: C_5  and  S_8
REMARK    3  A    between atoms: S_8  and  N_11
REMARK    4  A    between atoms: C_14  and  N_23
REMARK    5  A    between atoms: N_23  and  C_24
REMARK    6  A    between atoms: C_27  and  O_30
REMARK                            x       y       z     vdW  Elec       q    Type
REMARK                         _______ _______ _______ _____ _____    ______ ____
ROOT
ATOM      1  N   UNL     1       1.158  -5.575   0.323  0.00  0.00    -0.128 NA
ATOM      2  C   UNL     1       1.704  -6.755   0.450  0.00  0.00    +0.095 C 
ATOM      3  C   UNL     1       3.158  -6.919   0.315  0.00  0.00    +0.057 C 
ATOM      4  C   UNL     1       3.757  -8.066   0.713  0.00  0.00    +0.081 C 
ATOM      5  C   UNL     1       2.954  -9.167   1.286  0.00  0.00    +0.208 C 
ATOM      6  O   UNL     1       3.497 -10.086   1.867  0.00  0.00    -0.285 OA
ATOM      7  C   UNL     1       1.484  -9.136   1.145  0.00  0.00    +0.033 A 
ATOM      8  C   UNL     1       0.864  -7.943   0.737  0.00  0.00    +0.013 A 
ATOM      9  C   UNL     1      -0.516  -7.895   0.604  0.00  0.00    +0.011 A 
ATOM     10  C   UNL     1      -1.272  -9.023   0.880  0.00  0.00    +0.001 A 
ATOM     11  C   UNL     1      -0.661 -10.196   1.286  0.00  0.00    +0.001 A 
ATOM     12  C   UNL     1       0.711 -10.262   1.414  0.00  0.00    +0.012 A 
ENDROOT
BRANCH   1  13
ATOM     13  S   UNL     1      -0.166  -5.173   1.234  0.00  0.00    +0.099 S 
ATOM     14  O   UNL     1      -0.282  -6.167   2.242  0.00  0.00    -0.146 OA
ATOM     15  O   UNL     1      -1.216  -4.887   0.321  0.00  0.00    -0.146 OA
BRANCH  13  20
ATOM     16  C   UNL     1       1.116   0.003   4.059  0.00  0.00    +0.044 C 
ATOM     17  C   UNL     1       0.796  -1.290   3.353  0.00  0.00    -0.050 A 
ATOM     18  C   UNL     1       0.202  -1.267   2.105  0.00  0.00    +0.005 A 
ATOM     19  C   UNL     1      -0.092  -2.453   1.458  0.00  0.00    +0.029 A 
ATOM     20  C   UNL     1       0.210  -3.661   2.058  0.00  0.00    +0.112 A 
ATOM     21  C   UNL     1       0.805  -3.684   3.306  0.00  0.00    +0.029 A 
ATOM     22  C   UNL     1       1.103  -2.498   3.951  0.00  0.00    +0.005 A 
ENDBRANCH  13  20
ENDBRANCH   1  13
BRANCH   4  23
ATOM     23  N   UNL     1       5.129  -8.210   0.580  0.00  0.00    -0.311 N 
ATOM     24  H   UNL     1       5.727  -7.604   1.046  0.00  0.00    +0.152 HD
BRANCH  23  25
ATOM     25  C   UNL     1       5.652  -9.227  -0.225  0.00  0.00    +0.032 A 
ATOM     26  C   UNL     1       4.808  -9.969  -1.041  0.00  0.00    +0.027 A 
ATOM     27  C   UNL     1       5.325 -10.973  -1.836  0.00  0.00    +0.047 A 
ATOM     28  C   UNL     1       6.686 -11.241  -1.818  0.00  0.00    +0.117 A 
ATOM     29  C   UNL     1       7.529 -10.500  -1.003  0.00  0.00    +0.047 A 
ATOM     30  C   UNL     1       7.015  -9.491  -0.213  0.00  0.00    +0.027 A 
BRANCH  28  31
ATOM     31  O   UNL     1       7.194 -12.231  -2.600  0.00  0.00    -0.507 OA
ATOM     32  H   UNL     1       7.463 -11.937  -3.482  0.00  0.00    +0.292 HD
ENDBRANCH  28  31
ENDBRANCH  23  25
ENDBRANCH   4  23
TORSDOF 5
