REMARK  Name = ZINC07850726
REMARK  7 active torsions:
REMARK  status: ('A' for Active; 'I' for Inactive)
REMARK    1  A    between atoms: C_1  and  C_2
REMARK    2  A    between atoms: C_3  and  O_23
REMARK    3  A    between atoms: C_12  and  C_13
REMARK    4  A    between atoms: C_13  and  O_14
REMARK    5  A    between atoms: O_14  and  C_15
REMARK    6  A    between atoms: C_15  and  C_17
REMARK    7  A    between atoms: C_21  and  C_22
REMARK                            x       y       z     vdW  Elec       q    Type
REMARK                         _______ _______ _______ _____ _____    ______ ____
ROOT
ATOM      1  C   UNL     1       3.679   2.218  -0.022  0.00  0.00    +0.051 C 
ATOM      2  C   UNL     1       2.396   1.427  -0.013  0.00  0.00    +0.034 A 
ATOM      3  C   UNL     1       1.175   2.083   0.002  0.00  0.00    +0.123 A 
ATOM      4  C   UNL     1      -0.016   1.361   0.009  0.00  0.00    +0.046 A 
ATOM      5  C   UNL     1       0.002  -0.004   0.002  0.00  0.00    +0.015 A 
ATOM      6  C   UNL     1       1.226  -0.683  -0.013  0.00  0.00    +0.024 A 
ATOM      7  C   UNL     1       2.433   0.041  -0.021  0.00  0.00    +0.146 A 
ATOM      8  O   UNL     1       3.611  -0.618  -0.035  0.00  0.00    -0.422 OA
ATOM      9  C   UNL     1       3.664  -1.959  -0.042  0.00  0.00    +0.338 A 
ATOM     10  O   UNL     1       4.751  -2.510  -0.054  0.00  0.00    -0.245 OA
ATOM     11  C   UNL     1       2.495  -2.746  -0.035  0.00  0.00    +0.099 A 
ATOM     12  C   UNL     1       1.276  -2.146  -0.021  0.00  0.00    +0.007 A 
ENDROOT
BRANCH   3  13
ATOM     13  O   UNL     1       1.140   3.440   0.010  0.00  0.00    -0.506 OA
ATOM     14  H   UNL     1       1.138   3.828   0.895  0.00  0.00    +0.292 HD
ENDBRANCH   3  13
BRANCH  12  15
ATOM     15  C   UNL     1       0.011  -2.965  -0.013  0.00  0.00    +0.269 C 
BRANCH  15  16
ATOM     16  O   UNL     1       0.347  -4.377  -0.023  0.00  0.00    -0.456 OA
BRANCH  16  17
ATOM     17  C   UNL     1      -0.679  -5.251  -0.018  0.00  0.00    +0.343 C 
ATOM     18  O   UNL     1      -1.824  -4.843  -0.005  0.00  0.00    -0.245 OA
BRANCH  17  19
ATOM     19  C   UNL     1      -0.413  -6.699  -0.028  0.00  0.00    +0.099 A 
ATOM     20  C   UNL     1       0.900  -7.361  -0.050  0.00  0.00    +0.056 A 
ATOM     21  C   UNL     1       0.648  -8.679  -0.048  0.00  0.00    +0.196 A 
ATOM     22  O   UNL     1      -0.680  -8.873  -0.036  0.00  0.00    -0.467 OA
ATOM     23  C   UNL     1      -1.333  -7.707  -0.024  0.00  0.00    +0.116 A 
ATOM     24  C   UNL     1      -2.830  -7.534  -0.009  0.00  0.00    +0.087 C 
ENDBRANCH  17  19
ENDBRANCH  16  17
ENDBRANCH  15  16
ENDBRANCH  12  15
TORSDOF 5
