REMARK  Name = ZINC59461037
REMARK  4 active torsions:
REMARK  status: ('A' for Active; 'I' for Inactive)
REMARK    1  A    between atoms: C_6  and  C_11
REMARK    2  A    between atoms: N_12  and  C_13
REMARK    3  A    between atoms: C_16  and  S_19
REMARK    4  A    between atoms: S_19  and  N_22
REMARK                            x       y       z     vdW  Elec       q    Type
REMARK                         _______ _______ _______ _____ _____    ______ ____
ROOT
ATOM      1  C   UNL     1       6.189  -4.679  -0.082  0.00  0.00    +0.064 A 
ATOM      2  C   UNL     1       7.210  -4.266  -0.940  0.00  0.00    +0.029 A 
ATOM      3  C   UNL     1       8.414  -4.940  -0.951  0.00  0.00    +0.031 A 
ATOM      4  C   UNL     1       8.610  -6.024  -0.114  0.00  0.00    +0.113 A 
ATOM      5  C   UNL     1       7.602  -6.440   0.739  0.00  0.00    +0.031 A 
ATOM      6  C   UNL     1       6.396  -5.771   0.764  0.00  0.00    +0.029 A 
ENDROOT
BRANCH   4   7
ATOM      7  S   UNL     1      10.150  -6.880  -0.134  0.00  0.00    +0.102 S 
ATOM      8  O   UNL     1       9.892  -8.192   0.347  0.00  0.00    -0.146 OA
ATOM      9  O   UNL     1      10.734  -6.636  -1.406  0.00  0.00    -0.146 OA
BRANCH   7  10
ATOM     10  N   UNL     1      11.130  -6.151   0.984  0.00  0.00    -0.093 NA
ATOM     11  C   UNL     1      12.342  -6.591   1.175  0.00  0.00    +0.212 C 
ATOM     12  N   UNL     1      12.806  -7.662   0.448  0.00  0.00    -0.369 N 
ATOM     13  N   UNL     1      13.155  -5.986   2.103  0.00  0.00    -0.369 N 
ATOM     14  H   UNL     1      12.232  -8.089  -0.207  0.00  0.00    +0.159 HD
ATOM     15  H   UNL     1      12.828  -5.231   2.616  0.00  0.00    +0.159 HD
ATOM     16  H   UNL     1      14.057  -6.314   2.245  0.00  0.00    +0.159 HD
ATOM     17  H   UNL     1      13.708  -7.990   0.589  0.00  0.00    +0.159 HD
ENDBRANCH   7  10
ENDBRANCH   4   7
BRANCH   1  19
ATOM     18  C   UNL     1       4.971  -2.712  -0.060  0.00  0.00    +0.119 C 
ATOM     19  N   UNL     1       4.993  -4.015  -0.067  0.00  0.00    -0.255 NA
BRANCH  18  25
ATOM     20  C   UNL     1      -0.016   1.357   0.009  0.00  0.00    +0.001 A 
ATOM     21  C   UNL     1       1.168   2.092   0.002  0.00  0.00    +0.001 A 
ATOM     22  C   UNL     1       2.378   1.468  -0.013  0.00  0.00    +0.008 A 
ATOM     23  C   UNL     1       2.437   0.063  -0.021  0.00  0.00    -0.017 A 
ATOM     24  C   UNL     1       3.667  -0.611  -0.036  0.00  0.00    +0.018 A 
ATOM     25  C   UNL     1       3.684  -1.998  -0.044  0.00  0.00    -0.006 A 
ATOM     26  C   UNL     1       2.479  -2.727  -0.036  0.00  0.00    +0.010 A 
ATOM     27  C   UNL     1       1.282  -2.091  -0.021  0.00  0.00    +0.009 A 
ATOM     28  C   UNL     1       1.231  -0.684  -0.013  0.00  0.00    -0.018 A 
ATOM     29  C   UNL     1       0.002  -0.004   0.002  0.00  0.00    +0.008 A 
ENDBRANCH  18  25
ENDBRANCH   1  19
TORSDOF 4
