REMARK  Name = ZINC53044617
REMARK  10 active torsions:
REMARK  status: ('A' for Active; 'I' for Inactive)
REMARK    1  A    between atoms: C_1  and  C_2
REMARK    2  A    between atoms: C_2  and  C_3
REMARK    3  A    between atoms: C_3  and  C_4
REMARK    4  A    between atoms: C_3  and  C_6
REMARK    5  A    between atoms: C_3  and  N_8
REMARK    6  A    between atoms: C_4  and  C_5
REMARK    7  A    between atoms: C_6  and  O_7
REMARK    8  A    between atoms: N_8  and  S_9
REMARK    9  A    between atoms: S_9  and  C_12
REMARK   10  A    between atoms: C_15  and  N_19
REMARK                            x       y       z     vdW  Elec       q    Type
REMARK                         _______ _______ _______ _____ _____    ______ ____
ROOT
ATOM      1  S   UNL     1       3.285  -0.483   0.395  0.00  0.00    +0.061 S 
ATOM      2  O   UNL     1       4.664  -0.194   0.580  0.00  0.00    -0.153 OA
ATOM      3  O   UNL     1       2.775  -1.810   0.417  0.00  0.00    -0.153 OA
ENDROOT
BRANCH   1   4
ATOM      4  C   UNL     1       2.829   0.206  -1.161  0.00  0.00    +0.133 A 
ATOM      5  C   UNL     1       1.966  -0.482  -1.995  0.00  0.00    +0.047 A 
ATOM      6  C   UNL     1       1.607   0.056  -3.216  0.00  0.00    +0.040 A 
ATOM      7  C   UNL     1       2.114   1.289  -3.606  0.00  0.00    +0.027 A 
ATOM      8  C   UNL     1       2.980   1.978  -2.767  0.00  0.00    +0.040 A 
ATOM      9  C   UNL     1       3.331   1.437  -1.545  0.00  0.00    +0.047 A 
ATOM     10 BR   UNL     1       4.505   2.377  -0.398  0.00  0.00    -0.048 Br
ATOM     11 BR   UNL     1       1.276  -2.161  -1.463  0.00  0.00    -0.048 Br
BRANCH   7  12
ATOM     12  N   UNL     1       1.754   1.835  -4.840  0.00  0.00    -0.358 N 
ATOM     13  H   UNL     1       1.149   1.353  -5.426  0.00  0.00    +0.142 HD
ATOM     14  H   UNL     1       2.108   2.696  -5.112  0.00  0.00    +0.142 HD
ENDBRANCH   7  12
ENDBRANCH   1   4
BRANCH   1  15
ATOM     15  N   UNL     1       2.464   0.358   1.562  0.00  0.00    -0.182 NA
ATOM     16  H   UNL     1       2.949   0.924   2.183  0.00  0.00    +0.149 HD
BRANCH  15  17
ATOM     17  C   UNL     1       1.007   0.247   1.657  0.00  0.00    +0.062 C 
BRANCH  17  19
ATOM     18  C   UNL     1       0.793   2.319   0.276  0.00  0.00    +0.006 C 
ATOM     19  C   UNL     1       0.367   0.855   0.406  0.00  0.00    +0.022 C 
ENDBRANCH  17  19
BRANCH  17  20
ATOM     20  C   UNL     1       0.517   0.999   2.896  0.00  0.00    +0.022 C 
ATOM     21  C   UNL     1      -1.005   0.884   2.995  0.00  0.00    +0.006 C 
ENDBRANCH  17  20
BRANCH  17  22
ATOM     22  C   UNL     1       0.613  -1.227   1.766  0.00  0.00    +0.179 C 
BRANCH  22  23
ATOM     23  O   UNL     1       1.319  -1.829   2.853  0.00  0.00    -0.393 OA
ATOM     24  H   UNL     1       1.117  -2.766   2.981  0.00  0.00    +0.209 HD
ENDBRANCH  22  23
ENDBRANCH  17  22
ENDBRANCH  15  17
ENDBRANCH   1  15
TORSDOF 8
