REMARK  Name = ZINC66561727
REMARK  9 active torsions:
REMARK  status: ('A' for Active; 'I' for Inactive)
REMARK    1  A    between atoms: C_1  and  C_2
REMARK    2  A    between atoms: N_5  and  C_9
REMARK    3  A    between atoms: N_12  and  C_15
REMARK    4  A    between atoms: C_15  and  C_17
REMARK    5  A    between atoms: C_15  and  C_18
REMARK    6  A    between atoms: N_23  and  C_24
REMARK    7  A    between atoms: C_24  and  C_25
REMARK    8  A    between atoms: C_24  and  C_26
REMARK    9  A    between atoms: C_24  and  C_27
REMARK                            x       y       z     vdW  Elec       q    Type
REMARK                         _______ _______ _______ _____ _____    ______ ____
ROOT
ATOM      1  C   UNL     1       2.958  -1.520  -3.515  0.00  0.00    +0.053 C 
ATOM      2  C   UNL     1       2.088  -1.233  -4.743  0.00  0.00    +0.000 C 
ATOM      3  C   UNL     1       2.198  -2.403  -5.723  0.00  0.00    -0.076 C 
ATOM      4  N   UNL     1       1.737  -3.636  -5.073  0.00  0.00    +0.387 N 
ATOM      5  C   UNL     1       2.610  -3.956  -3.937  0.00  0.00    -0.076 C 
ATOM      6  C   UNL     1       2.517  -2.846  -2.888  0.00  0.00    +0.000 C 
ATOM      7  H   UNL     1       0.792  -3.508  -4.744  0.00  0.00    -0.081 HD
ENDROOT
BRANCH   1  11
ATOM      8  C   UNL     1       3.479   3.294  -2.632  0.00  0.00    +0.039 C 
ATOM      9  C   UNL     1       2.975   1.961  -2.075  0.00  0.00    +0.129 C 
ATOM     10  C   UNL     1       3.213   0.854  -3.106  0.00  0.00    +0.116 C 
ATOM     11  N   UNL     1       2.798  -0.437  -2.536  0.00  0.00    -0.295 NA
ATOM     12  C   UNL     1       3.545  -0.726  -1.303  0.00  0.00    +0.113 C 
ATOM     13  C   UNL     1       3.303   0.397  -0.291  0.00  0.00    +0.175 C 
ATOM     14  O   UNL     1       3.682   1.647  -0.873  0.00  0.00    -0.374 OA
ENDBRANCH   1  11
BRANCH   4  15
ATOM     15  C   UNL     1       1.771  -4.740  -6.041  0.00  0.00    +0.017 C 
ATOM     16  C   UNL     1       1.344  -6.037  -5.350  0.00  0.00    -0.004 C 
BRANCH  15  17
ATOM     17  C   UNL     1       0.826  -4.441  -7.176  0.00  0.00    +0.207 C 
ATOM     18  O   UNL     1      -0.138  -3.729  -6.992  0.00  0.00    -0.277 OA
ATOM     19  N   UNL     1       1.051  -4.967  -8.397  0.00  0.00    -0.242 N 
ATOM     20  C   UNL     1       0.206  -4.700  -9.412  0.00  0.00    +0.306 C 
ATOM     21  O   UNL     1      -0.759  -3.985  -9.227  0.00  0.00    -0.252 OA
ATOM     22  N   UNL     1       0.432  -5.226 -10.633  0.00  0.00    -0.294 N 
ATOM     23  H   UNL     1       1.822  -5.537  -8.544  0.00  0.00    +0.159 HD
ATOM     24  H   UNL     1       1.202  -5.796 -10.780  0.00  0.00    +0.151 HD
BRANCH  22  25
ATOM     25  C   UNL     1      -0.487  -4.935 -11.736  0.00  0.00    +0.028 C 
ATOM     26  C   UNL     1      -0.525  -3.426 -11.985  0.00  0.00    +0.031 C 
ATOM     27  C   UNL     1      -0.006  -5.649 -13.001  0.00  0.00    +0.031 C 
ATOM     28  C   UNL     1      -1.890  -5.428 -11.375  0.00  0.00    +0.031 C 
ENDBRANCH  22  25
ENDBRANCH  15  17
ENDBRANCH   4  15
TORSDOF 4
