REMARK  Name = ZINC63303103
REMARK  5 active torsions:
REMARK  status: ('A' for Active; 'I' for Inactive)
REMARK    1  A    between atoms: C_7  and  C_10
REMARK    2  A    between atoms: C_10  and  C_11
REMARK    3  A    between atoms: C_11  and  N_12
REMARK    4  A    between atoms: C_13  and  C_15
REMARK    5  A    between atoms: C_18  and  C_21
REMARK                            x       y       z     vdW  Elec       q    Type
REMARK                         _______ _______ _______ _____ _____    ______ ____
ROOT
ATOM      1  N   UNL     1      -0.458  -4.798  -1.460  0.00  0.00    -0.310 N 
ATOM      2  C   UNL     1      -0.811  -5.380  -2.623  0.00  0.00    +0.275 C 
ATOM      3  O   UNL     1      -0.371  -4.957  -3.671  0.00  0.00    -0.270 OA
ATOM      4  H   UNL     1      -0.810  -5.136  -0.622  0.00  0.00    +0.149 HD
ENDROOT
BRANCH   2   5
ATOM      5  C   UNL     1      -1.752  -6.557  -2.622  0.00  0.00    +0.378 C 
ATOM      6  N   UNL     1      -1.104  -7.732  -2.016  0.00  0.00    -0.282 N 
ATOM      7  C   UNL     1      -1.854  -8.073  -0.905  0.00  0.00    +0.168 C 
ATOM      8  N   UNL     1      -2.859  -7.274  -0.756  0.00  0.00    -0.066 NA
ATOM      9  O   UNL     1      -2.884  -6.293  -1.779  0.00  0.00    -0.360 OA
ATOM     10  H   UNL     1      -0.305  -8.180  -2.334  0.00  0.00    +0.152 HD
BRANCH   7  11
ATOM     11  C   UNL     1      -1.547  -9.208  -0.005  0.00  0.00    +0.016 C 
ATOM     12  C   UNL     1      -2.363  -9.441   1.046  0.00  0.00    +0.015 C 
ATOM     13  C   UNL     1      -2.109 -10.640   1.910  0.00  0.00    +0.159 C 
ATOM     14  C   UNL     1      -0.622 -10.938   1.856  0.00  0.00    -0.018 C 
ATOM     15  C   UNL     1      -0.238 -11.085   3.136  0.00  0.00    +0.025 C 
ATOM     16  C   UNL     1      -1.312 -10.745   3.989  0.00  0.00    +0.106 C 
ATOM     17  N   UNL     1      -2.396 -10.450   3.325  0.00  0.00    -0.279 NA
ATOM     18  C   UNL     1       0.117 -10.887   0.657  0.00  0.00    +0.007 C 
ATOM     19  C   UNL     1      -0.371 -10.037  -0.293  0.00  0.00    +0.011 C 
ENDBRANCH   7  11
ENDBRANCH   2   5
BRANCH   1  20
ATOM     20  C   UNL     1       0.457  -3.653  -1.462  0.00  0.00    +0.109 C 
BRANCH  20  21
ATOM     21  C   UNL     1       0.691  -3.186  -0.024  0.00  0.00    +0.052 C 
BRANCH  21  28
ATOM     22  C   UNL     1      -0.016   1.348   0.009  0.00  0.00    +0.001 A 
ATOM     23  C   UNL     1       1.166   2.101   0.002  0.00  0.00    +0.002 A 
ATOM     24  C   UNL     1       2.391   1.535  -0.013  0.00  0.00    +0.026 A 
ATOM     25  C   UNL     1       2.529   0.120  -0.022  0.00  0.00    +0.043 A 
ATOM     26  N   UNL     1       3.587  -0.654  -0.037  0.00  0.00    -0.380 N 
ATOM     27  C   UNL     1       3.143  -2.053  -0.041  0.00  0.00    +0.144 C 
ATOM     28  C   UNL     1       1.631  -2.008  -0.025  0.00  0.00    -0.040 C 
ATOM     29  C   UNL     1       1.295  -0.698  -0.014  0.00  0.00    -0.001 A 
ATOM     30  C   UNL     1       0.002  -0.004   0.002  0.00  0.00    +0.010 A 
ATOM     31  H   UNL     1       4.509  -0.353  -0.045  0.00  0.00    +0.160 HD
ENDBRANCH  21  28
ENDBRANCH  20  21
ENDBRANCH   1  20
TORSDOF 5
