REMARK  Name = ZINC17042371
REMARK  7 active torsions:
REMARK  status: ('A' for Active; 'I' for Inactive)
REMARK    1  A    between atoms: C_1  and  C_2
REMARK    2  A    between atoms: C_5  and  N_8
REMARK    3  A    between atoms: C_9  and  C_11
REMARK    4  A    between atoms: C_14  and  S_19
REMARK    5  A    between atoms: N_15  and  C_18
REMARK    6  A    between atoms: S_19  and  C_20
REMARK    7  A    between atoms: C_20  and  C_21
REMARK                            x       y       z     vdW  Elec       q    Type
REMARK                         _______ _______ _______ _____ _____    ______ ____
ROOT
ATOM      1  C   UNL     1       7.337  -4.938   0.462  0.00  0.00    +0.119 A 
ATOM      2  C   UNL     1       6.118  -4.570   1.035  0.00  0.00    +0.132 A 
ATOM      3  N   UNL     1       5.756  -3.297   1.048  0.00  0.00    -0.231 NA
ATOM      4  C   UNL     1       6.518  -2.355   0.519  0.00  0.00    +0.172 A 
ATOM      5  N   UNL     1       7.717  -2.644  -0.056  0.00  0.00    -0.290 N 
ATOM      6  C   UNL     1       8.155  -3.921  -0.101  0.00  0.00    +0.267 A 
ATOM      7  O   UNL     1       9.226  -4.194  -0.613  0.00  0.00    -0.267 OA
ATOM      8  C   UNL     1       8.533  -1.570  -0.626  0.00  0.00    +0.154 C 
ENDROOT
BRANCH   1  10
ATOM      9  N   UNL     1       8.884  -6.696  -0.219  0.00  0.00    -0.281 N 
ATOM     10  C   UNL     1       7.763  -6.342   0.440  0.00  0.00    +0.255 C 
ATOM     11  O   UNL     1       7.105  -7.187   1.017  0.00  0.00    -0.270 OA
ATOM     12  H   UNL     1       9.451  -6.014  -0.613  0.00  0.00    +0.155 HD
BRANCH   9  17
ATOM     13  C   UNL     1      10.290 -12.171  -0.689  0.00  0.00    +0.044 C 
ATOM     14  C   UNL     1       9.917 -10.717  -0.564  0.00  0.00    -0.050 A 
ATOM     15  C   UNL     1      10.907  -9.756  -0.465  0.00  0.00    +0.005 A 
ATOM     16  C   UNL     1      10.568  -8.422  -0.350  0.00  0.00    +0.023 A 
ATOM     17  C   UNL     1       9.231  -8.046  -0.335  0.00  0.00    +0.034 A 
ATOM     18  C   UNL     1       8.239  -9.013  -0.430  0.00  0.00    +0.023 A 
ATOM     19  C   UNL     1       8.585 -10.345  -0.550  0.00  0.00    +0.005 A 
ENDBRANCH   9  17
ENDBRANCH   1  10
BRANCH   4  20
ATOM     20  S   UNL     1       5.970  -0.681   0.565  0.00  0.00    -0.078 S 
BRANCH  20  21
ATOM     21  C   UNL     1       4.383  -0.893   1.410  0.00  0.00    +0.173 C 
BRANCH  21  22
ATOM     22  C   UNL     1       3.713   0.448   1.565  0.00  0.00    +0.230 C 
ATOM     23  O   UNL     1       4.256   1.449   1.146  0.00  0.00    -0.274 OA
ATOM     24  N   UNL     1       2.512   0.535   2.170  0.00  0.00    -0.270 N 
ATOM     25  C   UNL     1       1.765   1.779   2.379  0.00  0.00    +0.118 C 
ATOM     26  C   UNL     1       0.475   1.357   3.101  0.00  0.00    +0.056 C 
ATOM     27  C   UNL     1       0.594  -0.143   3.250  0.00  0.00    -0.024 A 
ATOM     28  C   UNL     1       1.796  -0.547   2.690  0.00  0.00    +0.040 A 
ATOM     29  C   UNL     1       2.130  -1.903   2.708  0.00  0.00    +0.024 A 
ATOM     30  C   UNL     1       1.274  -2.822   3.277  0.00  0.00    +0.002 A 
ATOM     31  C   UNL     1       0.078  -2.408   3.833  0.00  0.00    +0.000 A 
ATOM     32  C   UNL     1      -0.260  -1.067   3.819  0.00  0.00    +0.005 A 
ENDBRANCH  21  22
ENDBRANCH  20  21
ENDBRANCH   4  20
TORSDOF 5
