REMARK  Name = ZINC50987162
REMARK  11 active torsions:
REMARK  status: ('A' for Active; 'I' for Inactive)
REMARK    1  A    between atoms: C_1  and  C_2
REMARK    2  A    between atoms: C_2  and  C_3
REMARK    3  A    between atoms: C_2  and  N_4
REMARK    4  A    between atoms: N_4  and  C_5
REMARK    5  A    between atoms: C_7  and  C_8
REMARK    6  A    between atoms: C_7  and  C_10
REMARK    7  A    between atoms: C_10  and  C_12
REMARK    8  A    between atoms: C_12  and  C_13
REMARK    9  A    between atoms: N_18  and  C_19
REMARK   10  A    between atoms: C_19  and  C_21
REMARK   11  A    between atoms: C_21  and  C_22
REMARK                            x       y       z     vdW  Elec       q    Type
REMARK                         _______ _______ _______ _____ _____    ______ ____
ROOT
ATOM      1  C   UNL     1      -4.686  -5.407  -1.596  0.00  0.00    +0.032 A 
ATOM      2  C   UNL     1      -4.628  -6.505  -0.834  0.00  0.00    +0.070 A 
ATOM      3  S   UNL     1      -4.701  -7.805  -2.052  0.00  0.00    -0.060 S 
ATOM      4  C   UNL     1      -4.799  -6.853  -3.435  0.00  0.00    +0.163 A 
ATOM      5  N   UNL     1      -4.779  -5.586  -2.941  0.00  0.00    -0.339 N 
ATOM      6  N   UNL     1      -4.881  -7.245  -4.708  0.00  0.00    -0.156 NA
ATOM      7  H   UNL     1      -4.828  -4.823  -3.538  0.00  0.00    +0.167 HD
ENDROOT
BRANCH   6   8
ATOM      8  C   UNL     1      -4.892  -8.539  -5.004  0.00  0.00    +0.243 C 
ATOM      9  O   UNL     1      -4.828  -9.367  -4.115  0.00  0.00    -0.273 OA
BRANCH   8  10
ATOM     10  C   UNL     1      -4.985  -8.982  -6.441  0.00  0.00    +0.140 C 
BRANCH  10  11
ATOM     11  C   UNL     1      -4.979 -10.488  -6.504  0.00  0.00    -0.001 A 
ATOM     12  C   UNL     1      -6.027 -11.347  -6.476  0.00  0.00    +0.011 A 
ATOM     13  C   UNL     1      -5.782 -12.706  -6.548  0.00  0.00    +0.008 A 
ATOM     14  C   UNL     1      -4.501 -13.138  -6.645  0.00  0.00    +0.045 A 
ATOM     15  S   UNL     1      -3.591 -11.602  -6.643  0.00  0.00    -0.101 S 
ENDBRANCH  10  11
ENDBRANCH   8  10
ENDBRANCH   6   8
BRANCH   1  16
ATOM     16  C   UNL     1      -4.654  -4.029  -0.988  0.00  0.00    +0.134 C 
BRANCH  16  17
ATOM     17  C   UNL     1      -3.240  -3.507  -0.999  0.00  0.00    +0.184 C 
ATOM     18  O   UNL     1      -2.345  -4.189  -1.456  0.00  0.00    -0.291 OA
BRANCH  17  21
ATOM     19  C   UNL     1      -1.645  -1.745  -0.489  0.00  0.00    +0.258 C 
ATOM     20  O   UNL     1      -0.653  -2.500  -0.995  0.00  0.00    -0.269 OA
ATOM     21  C   UNL     1      -2.957  -2.229  -0.479  0.00  0.00    +0.156 C 
BRANCH  19  22
ATOM     22  N   UNL     1      -1.372  -0.511   0.012  0.00  0.00    -0.308 N 
ATOM     23  H   UNL     1      -2.087   0.033   0.377  0.00  0.00    +0.149 HD
BRANCH  22  25
ATOM     24  C   UNL     1      -0.019   1.526   0.010  0.00  0.00    +0.027 C 
ATOM     25  C   UNL     1       0.002  -0.004   0.002  0.00  0.00    +0.067 C 
ATOM     26  C   UNL     1       0.742  -0.511   1.242  0.00  0.00    +0.027 C 
ENDBRANCH  22  25
ENDBRANCH  19  22
BRANCH  21  27
ATOM     27  C   UNL     1      -4.013  -1.425   0.059  0.00  0.00    +0.108 C 
ATOM     28  N   UNL     1      -4.850  -0.787   0.486  0.00  0.00    -0.191 NA
ENDBRANCH  21  27
ENDBRANCH  17  21
ENDBRANCH  16  17
ENDBRANCH   1  16
TORSDOF 9
