REMARK  Name = ZINC12563268
REMARK  11 active torsions:
REMARK  status: ('A' for Active; 'I' for Inactive)
REMARK    1  A    between atoms: C_1  and  C_2
REMARK    2  A    between atoms: C_4  and  C_34
REMARK    3  A    between atoms: C_8  and  N_19
REMARK    4  A    between atoms: C_9  and  C_11
REMARK    5  A    between atoms: C_20  and  C_22
REMARK    6  A    between atoms: C_24  and  O_32
REMARK    7  A    between atoms: C_25  and  O_30
REMARK    8  A    between atoms: C_27  and  O_28
REMARK    9  A    between atoms: O_28  and  C_29
REMARK   10  A    between atoms: O_30  and  C_31
REMARK   11  A    between atoms: O_32  and  C_33
REMARK                            x       y       z     vdW  Elec       q    Type
REMARK                         _______ _______ _______ _____ _____    ______ ____
ROOT
ATOM      1  C   UNL     1      -2.703   4.600   0.740  0.00  0.00    +0.044 C 
ATOM      2  C   UNL     1      -1.343   4.165   1.221  0.00  0.00    -0.037 A 
ATOM      3  C   UNL     1      -1.220   3.335   2.311  0.00  0.00    +0.027 A 
ATOM      4  C   UNL     1       0.033   2.941   2.755  0.00  0.00    +0.040 A 
ATOM      5  N   UNL     1       1.122   3.347   2.131  0.00  0.00    -0.245 NA
ATOM      6  C   UNL     1       1.056   4.136   1.081  0.00  0.00    +0.111 A 
ATOM      7  C   UNL     1      -0.171   4.599   0.553  0.00  0.00    +0.033 A 
ATOM      8  C   UNL     1      -0.056   5.464  -0.610  0.00  0.00    +0.063 A 
ATOM      9  C   UNL     1       1.202   5.753  -1.089  0.00  0.00    +0.098 A 
ATOM     10  S   UNL     1       2.279   4.864   0.019  0.00  0.00    -0.062 S 
ATOM     11  C   UNL     1       0.152   2.036   3.954  0.00  0.00    +0.065 C 
ENDROOT
BRANCH   9  12
ATOM     12  C   UNL     1       1.567   6.588  -2.232  0.00  0.00    +0.255 C 
ATOM     13  O   UNL     1       1.166   6.305  -3.346  0.00  0.00    -0.269 OA
ATOM     14  N   UNL     1       2.348   7.672  -2.052  0.00  0.00    -0.293 N 
ATOM     15  C   UNL     1       2.925   7.980  -0.734  0.00  0.00    +0.136 C 
ATOM     16  C   UNL     1       4.432   8.220  -0.915  0.00  0.00    +0.179 C 
ATOM     17  O   UNL     1       4.631   9.198  -1.939  0.00  0.00    -0.377 OA
ATOM     18  C   UNL     1       4.159   8.800  -3.228  0.00  0.00    +0.179 C 
ATOM     19  C   UNL     1       2.643   8.586  -3.167  0.00  0.00    +0.136 C 
ENDBRANCH   9  12
BRANCH   8  20
ATOM     20  N   UNL     1      -1.189   5.987  -1.224  0.00  0.00    -0.280 N 
ATOM     21  C   UNL     1      -1.416   7.315  -1.201  0.00  0.00    +0.252 C 
ATOM     22  O   UNL     1      -0.587   8.066  -0.724  0.00  0.00    -0.270 OA
ATOM     23  H   UNL     1      -1.816   5.395  -1.669  0.00  0.00    +0.155 HD
BRANCH  21  24
ATOM     24  C   UNL     1      -2.669   7.858  -1.753  0.00  0.00    +0.082 A 
ATOM     25  C   UNL     1      -3.623   6.997  -2.308  0.00  0.00    +0.066 A 
ATOM     26  C   UNL     1      -4.797   7.509  -2.818  0.00  0.00    +0.162 A 
ATOM     27  C   UNL     1      -5.031   8.885  -2.793  0.00  0.00    +0.165 A 
ATOM     28  C   UNL     1      -4.088   9.743  -2.250  0.00  0.00    +0.095 A 
ATOM     29  C   UNL     1      -2.908   9.239  -1.729  0.00  0.00    +0.136 A 
BRANCH  29  30
ATOM     30  O   UNL     1      -1.985  10.080  -1.198  0.00  0.00    -0.494 OA
ATOM     31  C   UNL     1      -2.296  11.475  -1.208  0.00  0.00    +0.277 C 
ENDBRANCH  29  30
BRANCH  27  32
ATOM     32  O   UNL     1      -6.186   9.384  -3.303  0.00  0.00    -0.491 OA
ATOM     33  C   UNL     1      -6.362  10.802  -3.245  0.00  0.00    +0.277 C 
ENDBRANCH  27  32
BRANCH  26  34
ATOM     34  O   UNL     1      -5.727   6.673  -3.352  0.00  0.00    -0.491 OA
ATOM     35  C   UNL     1      -5.424   5.276  -3.345  0.00  0.00    +0.277 C 
ENDBRANCH  26  34
ENDBRANCH  21  24
ENDBRANCH   8  20
TORSDOF 6
