REMARK  Name = ZINC60361337
REMARK  4 active torsions:
REMARK  status: ('A' for Active; 'I' for Inactive)
REMARK    1  A    between atoms: C_1  and  N_2
REMARK    2  A    between atoms: N_2  and  C_3
REMARK    3  A    between atoms: C_6  and  C_11
REMARK    4  A    between atoms: C_11  and  N_12
REMARK                            x       y       z     vdW  Elec       q    Type
REMARK                         _______ _______ _______ _____ _____    ______ ____
ROOT
ATOM      1  N   UNL     1      -1.355  -4.684  -2.349  0.00  0.00    -0.287 NA
ATOM      2  C   UNL     1      -2.044  -4.305  -1.113  0.00  0.00    +0.121 C 
ATOM      3  C   UNL     1      -1.683  -5.226   0.019  0.00  0.00    -0.026 A 
ATOM      4  C   UNL     1      -0.793  -4.837   0.997  0.00  0.00    +0.005 A 
ATOM      5  C   UNL     1      -0.491  -5.697   2.038  0.00  0.00    +0.000 A 
ATOM      6  C   UNL     1      -1.078  -6.948   2.107  0.00  0.00    +0.001 A 
ATOM      7  C   UNL     1      -1.966  -7.351   1.128  0.00  0.00    +0.009 A 
ATOM      8  C   UNL     1      -2.264  -6.494   0.077  0.00  0.00    -0.013 A 
ATOM      9  C   UNL     1      -3.175  -6.900  -1.020  0.00  0.00    -0.013 A 
ATOM     10  C   UNL     1      -4.416  -7.469  -0.761  0.00  0.00    +0.009 A 
ATOM     11  C   UNL     1      -5.240  -7.815  -1.815  0.00  0.00    +0.001 A 
ATOM     12  C   UNL     1      -4.831  -7.594  -3.118  0.00  0.00    +0.000 A 
ATOM     13  C   UNL     1      -3.593  -7.034  -3.379  0.00  0.00    +0.005 A 
ATOM     14  C   UNL     1      -2.758  -6.693  -2.336  0.00  0.00    -0.026 A 
ATOM     15  C   UNL     1      -1.388  -6.128  -2.590  0.00  0.00    +0.121 C 
ENDROOT
BRANCH   1  16
ATOM     16  C   UNL     1       0.025  -4.181  -2.357  0.00  0.00    +0.161 C 
BRANCH  16  22
ATOM     17  C   UNL     1      -0.018   1.461   0.010  0.00  0.00    +0.132 C 
ATOM     18  N   UNL     1       0.002  -0.004   0.002  0.00  0.00    -0.306 N 
ATOM     19  C   UNL     1       0.024  -0.743   1.267  0.00  0.00    +0.132 C 
ATOM     20  C   UNL     1       0.000  -0.688  -1.197  0.00  0.00    +0.222 A 
ATOM     21  N   UNL     1       0.013  -2.019  -1.205  0.00  0.00    -0.198 NA
ATOM     22  C   UNL     1       0.011  -2.674  -2.353  0.00  0.00    +0.150 A 
ATOM     23  N   UNL     1      -0.004  -2.011  -3.496  0.00  0.00    -0.198 NA
ATOM     24  C   UNL     1      -0.016  -0.681  -3.496  0.00  0.00    +0.217 A 
ATOM     25  N   UNL     1      -0.020  -0.018  -2.344  0.00  0.00    -0.181 NA
ATOM     26  N   UNL     1      -0.031   0.010  -4.690  0.00  0.00    -0.327 N 
ATOM     27  H   UNL     1      -0.032  -0.474  -5.531  0.00  0.00    +0.145 HD
ATOM     28  H   UNL     1      -0.040   0.980  -4.689  0.00  0.00    +0.145 HD
ENDBRANCH  16  22
ENDBRANCH   1  16
TORSDOF 2
