REMARK  Name = ZINC45486298
REMARK  11 active torsions:
REMARK  status: ('A' for Active; 'I' for Inactive)
REMARK    1  A    between atoms: C_1  and  C_2
REMARK    2  A    between atoms: C_2  and  C_4
REMARK    3  A    between atoms: C_2  and  N_35
REMARK    4  A    between atoms: C_7  and  S_16
REMARK    5  A    between atoms: N_8  and  C_9
REMARK    6  A    between atoms: S_16  and  C_17
REMARK    7  A    between atoms: C_17  and  C_19
REMARK    8  A    between atoms: C_17  and  C_20
REMARK    9  A    between atoms: N_22  and  C_23
REMARK   10  A    between atoms: N_35  and  C_36
REMARK   11  A    between atoms: N_35  and  C_37
REMARK                            x       y       z     vdW  Elec       q    Type
REMARK                         _______ _______ _______ _____ _____    ______ ____
ROOT
ATOM      1  S   UNL     1      -4.581  -2.536  -1.359  0.00  0.00    -0.073 S 
ENDROOT
BRANCH   1   5
ATOM      2  C   UNL     1      -1.303  -0.965   0.066  0.00  0.00    +0.125 A 
ATOM      3  N   UNL     1      -2.148  -0.795   1.044  0.00  0.00    -0.135 NA
ATOM      4  N   UNL     1      -3.298  -1.270   0.723  0.00  0.00    -0.122 NA
ATOM      5  C   UNL     1      -3.251  -1.774  -0.489  0.00  0.00    +0.197 A 
ATOM      6  N   UNL     1      -1.976  -1.590  -0.950  0.00  0.00    -0.275 N 
BRANCH   6   7
ATOM      7  C   UNL     1      -1.465  -1.967  -2.200  0.00  0.00    +0.050 A 
ATOM      8  C   UNL     1      -1.036  -0.997  -3.096  0.00  0.00    +0.028 A 
ATOM      9  C   UNL     1      -0.532  -1.371  -4.327  0.00  0.00    +0.022 A 
ATOM     10  C   UNL     1      -0.455  -2.710  -4.667  0.00  0.00    +0.041 A 
ATOM     11  C   UNL     1      -0.881  -3.678  -3.775  0.00  0.00    +0.022 A 
ATOM     12  C   UNL     1      -1.381  -3.310  -2.541  0.00  0.00    +0.028 A 
ATOM     13 CL   UNL     1       0.178  -3.176  -6.215  0.00  0.00    -0.084 Cl
ENDBRANCH   6   7
BRANCH   2  15
ATOM     14  C   UNL     1       0.235   0.971  -0.127  0.00  0.00    -0.005 C 
ATOM     15  C   UNL     1       0.144  -0.546   0.053  0.00  0.00    -0.003 C 
BRANCH  15  16
ATOM     16  N   UNL     1       0.776  -0.926   1.324  0.00  0.00    +0.382 N 
ATOM     17  C   UNL     1       0.689  -2.382   1.497  0.00  0.00    -0.096 C 
ATOM     18  C   UNL     1       2.187  -0.518   1.311  0.00  0.00    -0.096 C 
ATOM     19  H   UNL     1       0.300  -0.468   2.087  0.00  0.00    -0.082 HD
ENDBRANCH  15  16
ENDBRANCH   2  15
ENDBRANCH   1   5
BRANCH   1  20
ATOM     20  C   UNL     1      -5.972  -2.447  -0.199  0.00  0.00    +0.137 C 
ATOM     21  C   UNL     1      -5.666  -3.304   1.032  0.00  0.00    +0.029 C 
BRANCH  20  22
ATOM     22  C   UNL     1      -7.220  -2.961  -0.871  0.00  0.00    +0.230 C 
ATOM     23  O   UNL     1      -7.133  -3.742  -1.794  0.00  0.00    -0.274 OA
ATOM     24  N   UNL     1      -8.431  -2.553  -0.445  0.00  0.00    -0.285 N 
ATOM     25  H   UNL     1      -8.505  -1.989   0.341  0.00  0.00    +0.155 HD
BRANCH  24  26
ATOM     26  C   UNL     1      -9.585  -2.942  -1.137  0.00  0.00    +0.035 A 
ATOM     27  C   UNL     1     -10.772  -3.155  -0.445  0.00  0.00    +0.025 A 
ATOM     28  C   UNL     1     -11.912  -3.538  -1.121  0.00  0.00    +0.029 A 
ATOM     29  C   UNL     1     -11.875  -3.712  -2.497  0.00  0.00    +0.067 A 
ATOM     30  C   UNL     1     -10.685  -3.499  -3.195  0.00  0.00    +0.069 A 
ATOM     31  C   UNL     1      -9.543  -3.109  -2.514  0.00  0.00    +0.051 A 
ATOM     32  N   UNL     1     -10.956  -3.748  -4.539  0.00  0.00    -0.306 N 
ATOM     33  H   UNL     1     -10.320  -3.682  -5.268  0.00  0.00    +0.170 HD
ATOM     34  C   UNL     1     -12.252  -4.096  -4.653  0.00  0.00    +0.325 A 
ATOM     35  O   UNL     1     -12.812  -4.379  -5.696  0.00  0.00    -0.247 OA
ATOM     36  N   UNL     1     -12.834  -4.084  -3.439  0.00  0.00    -0.306 N 
ATOM     37  H   UNL     1     -13.761  -4.298  -3.251  0.00  0.00    +0.170 HD
ENDBRANCH  24  26
ENDBRANCH  20  22
ENDBRANCH   1  20
TORSDOF 7
