REMARK  Name = ZINC17590986
REMARK  9 active torsions:
REMARK  status: ('A' for Active; 'I' for Inactive)
REMARK    1  A    between atoms: C_1  and  C_2
REMARK    2  A    between atoms: N_5  and  S_8
REMARK    3  A    between atoms: S_8  and  C_11
REMARK    4  A    between atoms: C_14  and  N_20
REMARK    5  A    between atoms: C_15  and  N_17
REMARK    6  A    between atoms: N_20  and  C_21
REMARK    7  A    between atoms: C_21  and  C_23
REMARK    8  A    between atoms: C_21  and  C_30
REMARK    9  A    between atoms: N_34  and  C_35
REMARK                            x       y       z     vdW  Elec       q    Type
REMARK                         _______ _______ _______ _____ _____    ______ ____
ROOT
ATOM      1  C   UNL     1       6.694   4.892   2.583  0.00  0.00    +0.108 A 
ATOM      2  C   UNL     1       5.645   5.668   2.124  0.00  0.00    +0.030 A 
ATOM      3  C   UNL     1       4.597   5.080   1.443  0.00  0.00    +0.027 A 
ATOM      4  C   UNL     1       4.592   3.708   1.228  0.00  0.00    +0.059 A 
ATOM      5  C   UNL     1       5.648   2.932   1.690  0.00  0.00    +0.149 A 
ATOM      6  C   UNL     1       6.696   3.527   2.366  0.00  0.00    +0.063 A 
ENDROOT
BRANCH   1   7
ATOM      7  S   UNL     1       8.033   5.646   3.444  0.00  0.00    +0.061 S 
ATOM      8  O   UNL     1       7.532   6.857   3.995  0.00  0.00    -0.153 OA
ATOM      9  O   UNL     1       8.624   4.632   4.245  0.00  0.00    -0.153 OA
BRANCH   7  14
ATOM     10  C   UNL     1      12.941   7.830   1.437  0.00  0.00    +0.007 C 
ATOM     11  C   UNL     1      11.579   7.146   1.301  0.00  0.00    -0.012 C 
ATOM     12  C   UNL     1      10.487   8.071   1.844  0.00  0.00    +0.020 C 
ATOM     13  C   UNL     1       9.122   7.397   1.675  0.00  0.00    +0.110 C 
ATOM     14  N   UNL     1       9.165   6.074   2.313  0.00  0.00    -0.177 NA
ATOM     15  C   UNL     1      10.234   5.141   1.933  0.00  0.00    +0.110 C 
ATOM     16  C   UNL     1      11.584   5.838   2.096  0.00  0.00    +0.020 C 
ENDBRANCH   7  14
ENDBRANCH   1   7
BRANCH   5  17
ATOM     17  N   UNL     1       5.649   1.470   1.459  0.00  0.00    +0.058 N 
ATOM     18  O   UNL     1       6.621   0.806   1.772  0.00  0.00    -0.126 OA
ATOM     19  O   UNL     1       4.680   0.932   0.956  0.00  0.00    -0.126 OA
ENDBRANCH   5  17
BRANCH   4  20
ATOM     20  N   UNL     1       3.531   3.110   0.545  0.00  0.00    -0.329 N 
ATOM     21  H   UNL     1       3.485   2.144   0.470  0.00  0.00    +0.147 HD
BRANCH  20  22
ATOM     22  C   UNL     1       2.487   3.942  -0.059  0.00  0.00    +0.170 C 
BRANCH  22  23
ATOM     23  C   UNL     1       1.199   3.162  -0.127  0.00  0.00    +0.015 A 
ATOM     24  C   UNL     1       1.230   1.784  -0.230  0.00  0.00    +0.009 A 
ATOM     25  C   UNL     1       0.050   1.068  -0.292  0.00  0.00    +0.001 A 
ATOM     26  C   UNL     1      -1.164   1.730  -0.256  0.00  0.00    +0.003 A 
ATOM     27  C   UNL     1      -1.198   3.107  -0.147  0.00  0.00    +0.039 A 
ATOM     28  C   UNL     1      -0.015   3.825  -0.085  0.00  0.00    +0.129 A 
ATOM     29  F   UNL     1      -0.047   5.172   0.016  0.00  0.00    -0.205 F 
ENDBRANCH  22  23
BRANCH  22  30
ATOM     30  C   UNL     1       2.906   4.342  -1.450  0.00  0.00    +0.134 A 
ATOM     31  N   UNL     1       3.433   3.550  -2.343  0.00  0.00    -0.238 NA
ATOM     32  C   UNL     1       3.675   4.246  -3.464  0.00  0.00    +0.130 A 
ATOM     33  C   UNL     1       3.292   5.520  -3.254  0.00  0.00    +0.106 A 
ATOM     34  N   UNL     1       2.803   5.581  -1.977  0.00  0.00    -0.336 N 
ATOM     35  C   UNL     1       2.269   6.769  -1.307  0.00  0.00    +0.150 C 
ENDBRANCH  22  30
ENDBRANCH  20  22
ENDBRANCH   4  20
TORSDOF 7
