REMARK  Name = ZINC21264358
REMARK  11 active torsions:
REMARK  status: ('A' for Active; 'I' for Inactive)
REMARK    1  A    between atoms: C_1  and  C_2
REMARK    2  A    between atoms: C_8  and  N_10
REMARK    3  A    between atoms: N_10  and  C_11
REMARK    4  A    between atoms: N_10  and  C_17
REMARK    5  A    between atoms: C_11  and  C_12
REMARK    6  A    between atoms: C_17  and  N_19
REMARK    7  A    between atoms: N_19  and  C_20
REMARK    8  A    between atoms: C_22  and  C_28
REMARK    9  A    between atoms: C_22  and  C_29
REMARK   10  A    between atoms: C_24  and  C_26
REMARK   11  A    between atoms: C_24  and  C_27
REMARK                            x       y       z     vdW  Elec       q    Type
REMARK                         _______ _______ _______ _____ _____    ______ ____
ROOT
ATOM      1  C   UNL     1       0.297   1.304  -5.587  0.00  0.00    +0.134 C 
ATOM      2  S   UNL     1      -0.705   2.389  -6.452  0.00  0.00    -0.019 S 
ENDROOT
BRANCH   1   3
ATOM      3  N   UNL     1       1.228   1.778  -4.736  0.00  0.00    -0.324 N 
ATOM      4  H   UNL     1       1.905   1.083  -4.218  0.00  0.00    +0.148 HD
BRANCH   3   5
ATOM      5  C   UNL     1       1.338   3.223  -4.500  0.00  0.00    +0.069 C 
ATOM      6  C   UNL     1       1.884   3.463  -3.092  0.00  0.00    +0.009 C 
ATOM      7  C   UNL     1       2.029   4.959  -2.827  0.00  0.00    -0.072 C 
ATOM      8  N   UNL     1       2.728   5.656  -3.887  0.00  0.00    +0.386 N 
ATOM      9  C   UNL     1       2.469   5.325  -5.272  0.00  0.00    -0.072 C 
ATOM     10  C   UNL     1       2.316   3.824  -5.509  0.00  0.00    +0.009 C 
ATOM     11  C   UNL     1       3.669   5.809  -6.116  0.00  0.00    -0.010 C 
ATOM     12  C   UNL     1       1.225   6.055  -5.793  0.00  0.00    -0.010 C 
ATOM     13  C   UNL     1       0.645   5.572  -2.579  0.00  0.00    -0.010 C 
ATOM     14  C   UNL     1       2.842   5.124  -1.524  0.00  0.00    -0.010 C 
ATOM     15  H   UNL     1       2.505   6.731  -3.827  0.00  0.00    -0.084 HD
ATOM     16  H   UNL     1       3.811   5.499  -3.777  0.00  0.00    -0.084 HD
ENDBRANCH   3   5
ENDBRANCH   1   3
BRANCH   1  17
ATOM     17  N   UNL     1       0.154  -0.026  -5.757  0.00  0.00    -0.302 N 
BRANCH  17  24
ATOM     18  C   UNL     1      -0.792  -2.688  -5.119  0.00  0.00    +0.009 C 
ATOM     19  C   UNL     1       0.678  -2.392  -5.424  0.00  0.00    +0.006 C 
ATOM     20  C   UNL     1       0.932  -2.561  -6.923  0.00  0.00    +0.005 C 
ATOM     21  C   UNL     1       2.402  -2.264  -7.228  0.00  0.00    +0.000 C 
ATOM     22  C   UNL     1       2.729  -0.828  -6.814  0.00  0.00    +0.002 C 
ATOM     23  C   UNL     1       2.475  -0.659  -5.314  0.00  0.00    +0.023 C 
ATOM     24  C   UNL     1       1.005  -0.955  -5.010  0.00  0.00    +0.078 C 
ENDBRANCH  17  24
BRANCH  17  25
ATOM     25  C   UNL     1      -0.851  -0.541  -6.689  0.00  0.00    +0.181 C 
BRANCH  25  26
ATOM     26  C   UNL     1      -0.554  -0.037  -8.078  0.00  0.00    +0.122 A 
ATOM     27  C   UNL     1       0.399  -0.512  -8.900  0.00  0.00    +0.046 A 
ATOM     28  C   UNL     1       0.327   0.246 -10.091  0.00  0.00    +0.041 A 
ATOM     29  C   UNL     1      -0.666   1.138  -9.926  0.00  0.00    +0.195 A 
ATOM     30  O   UNL     1      -1.200   0.958  -8.707  0.00  0.00    -0.466 OA
ENDBRANCH  25  26
ENDBRANCH  17  25
ENDBRANCH   1  17
TORSDOF 6
