REMARK  Name = ZINC33140052
REMARK  6 active torsions:
REMARK  status: ('A' for Active; 'I' for Inactive)
REMARK    1  A    between atoms: C_1  and  C_2
REMARK    2  A    between atoms: C_6  and  N_9
REMARK    3  A    between atoms: C_7  and  C_8
REMARK    4  A    between atoms: N_12  and  C_13
REMARK    5  A    between atoms: N_21  and  S_22
REMARK    6  A    between atoms: S_22  and  C_25
REMARK                            x       y       z     vdW  Elec       q    Type
REMARK                         _______ _______ _______ _____ _____    ______ ____
ROOT
ATOM      1  N   UNL     1      -4.754   1.001   0.233  0.00  0.00    -0.269 N 
ATOM      2  C   UNL     1      -3.602   1.693   0.135  0.00  0.00    +0.308 C 
ATOM      3  O   UNL     1      -3.621   2.909   0.138  0.00  0.00    -0.252 OA
ATOM      4  N   UNL     1      -2.429   1.038   0.033  0.00  0.00    -0.269 N 
ATOM      5  H   UNL     1      -4.732  -0.096   0.306  0.00  0.00    +0.156 HD
ATOM      6  H   UNL     1      -2.418  -0.057  -0.070  0.00  0.00    +0.156 HD
ENDROOT
BRANCH   4   7
ATOM      7  C   UNL     1      -1.223   1.752   0.056  0.00  0.00    +0.035 A 
ATOM      8  C   UNL     1      -0.095   1.237  -0.569  0.00  0.00    +0.025 A 
ATOM      9  C   UNL     1       1.092   1.936  -0.540  0.00  0.00    +0.027 A 
ATOM     10  C   UNL     1       1.170   3.169   0.111  0.00  0.00    +0.054 A 
ATOM     11  C   UNL     1       0.039   3.680   0.727  0.00  0.00    -0.021 A 
ATOM     12  C   UNL     1      -1.152   2.980   0.699  0.00  0.00    +0.029 A 
ATOM     13  C   UNL     1       0.390   5.012   1.350  0.00  0.00    +0.058 C 
ATOM     14  C   UNL     1       1.877   5.215   1.018  0.00  0.00    +0.136 C 
ATOM     15  N   UNL     1       2.266   4.027   0.253  0.00  0.00    -0.207 N 
BRANCH  15  16
ATOM     16  S   UNL     1       3.780   3.742  -0.354  0.00  0.00    +0.043 S 
ATOM     17  O   UNL     1       4.654   4.473   0.494  0.00  0.00    -0.155 OA
ATOM     18  O   UNL     1       3.873   2.327  -0.445  0.00  0.00    -0.155 OA
ATOM     19  C   UNL     1       3.762   4.474  -2.014  0.00  0.00    +0.218 C 
ENDBRANCH  15  16
ENDBRANCH   4   7
BRANCH   1  25
ATOM     20  C   UNL     1      -9.513   1.160  -0.993  0.00  0.00    +0.044 C 
ATOM     21  C   UNL     1      -8.302   1.778  -0.344  0.00  0.00    -0.046 A 
ATOM     22  C   UNL     1      -8.400   3.017   0.263  0.00  0.00    +0.004 A 
ATOM     23  C   UNL     1      -7.291   3.588   0.859  0.00  0.00    +0.002 A 
ATOM     24  C   UNL     1      -6.081   2.922   0.851  0.00  0.00    +0.023 A 
ATOM     25  C   UNL     1      -5.979   1.678   0.243  0.00  0.00    +0.038 A 
ATOM     26  C   UNL     1      -7.093   1.110  -0.361  0.00  0.00    -0.026 A 
ATOM     27  C   UNL     1      -6.985  -0.237  -1.028  0.00  0.00    +0.046 C 
ENDBRANCH   1  25
TORSDOF 3
