REMARK  Name = ZINC63530466
REMARK  6 active torsions:
REMARK  status: ('A' for Active; 'I' for Inactive)
REMARK    1  A    between atoms: C_1  and  C_2
REMARK    2  A    between atoms: C_2  and  C_4
REMARK    3  A    between atoms: C_2  and  N_14
REMARK    4  A    between atoms: C_15  and  C_17
REMARK    5  A    between atoms: C_19  and  S_27
REMARK    6  A    between atoms: S_27  and  C_28
REMARK                            x       y       z     vdW  Elec       q    Type
REMARK                         _______ _______ _______ _____ _____    ______ ____
ROOT
ATOM      1  C   UNL     1       0.593  -0.969  -3.488  0.00  0.00    +0.204 C 
ATOM      2  C   UNL     1       1.450   0.041  -4.218  0.00  0.00    +0.030 C 
ATOM      3  C   UNL     1       0.981   0.054  -5.528  0.00  0.00    +0.010 A 
ATOM      4  C   UNL     1       1.372   0.783  -6.673  0.00  0.00    +0.011 A 
ATOM      5  C   UNL     1       0.721   0.591  -7.849  0.00  0.00    +0.001 A 
ATOM      6  C   UNL     1      -0.333  -0.317  -7.960  0.00  0.00    +0.002 A 
ATOM      7  C   UNL     1      -0.760  -1.050  -6.902  0.00  0.00    +0.026 A 
ATOM      8  C   UNL     1      -0.129  -0.903  -5.641  0.00  0.00    +0.044 A 
ATOM      9  N   UNL     1      -0.354  -1.490  -4.478  0.00  0.00    -0.369 N 
ATOM     10  H   UNL     1      -1.036  -2.159  -4.307  0.00  0.00    +0.161 HD
ENDROOT
BRANCH   1  12
ATOM     11  N   UNL     1       0.470  -0.067  -1.188  0.00  0.00    -0.307 N 
ATOM     12  C   UNL     1      -0.151  -0.299  -2.361  0.00  0.00    +0.241 C 
ATOM     13  O   UNL     1      -1.309   0.031  -2.510  0.00  0.00    -0.273 OA
ATOM     14  H   UNL     1       1.395  -0.331  -1.068  0.00  0.00    +0.149 HD
BRANCH  11  16
ATOM     15  C   UNL     1      -0.180   2.103  -0.264  0.00  0.00    +0.033 C 
ATOM     16  C   UNL     1      -0.254   0.584  -0.092  0.00  0.00    +0.100 C 
BRANCH  16  17
ATOM     17  C   UNL     1       0.372   0.196   1.223  0.00  0.00    -0.024 A 
ATOM     18  C   UNL     1       1.747   0.113   1.335  0.00  0.00    +0.009 A 
ATOM     19  C   UNL     1       2.324  -0.243   2.539  0.00  0.00    +0.050 A 
ATOM     20  C   UNL     1       1.524  -0.518   3.639  0.00  0.00    +0.162 A 
ATOM     21  C   UNL     1       0.142  -0.433   3.526  0.00  0.00    +0.162 A 
ATOM     22  C   UNL     1      -0.431  -0.070   2.316  0.00  0.00    +0.055 A 
ATOM     23  O   UNL     1      -0.661  -0.691   4.594  0.00  0.00    -0.485 OA
ATOM     24  C   UNL     1      -0.071  -1.405   5.686  0.00  0.00    +0.270 C 
ATOM     25  C   UNL     1       1.294  -0.774   5.991  0.00  0.00    +0.270 C 
ATOM     26  O   UNL     1       2.107  -0.872   4.817  0.00  0.00    -0.485 OA
ENDBRANCH  16  17
ENDBRANCH  11  16
ENDBRANCH   1  12
BRANCH   2  27
ATOM     27  S   UNL     1       2.691   0.945  -3.588  0.00  0.00    -0.091 S 
BRANCH  27  28
ATOM     28  C   UNL     1       3.945  -0.241  -3.233  0.00  0.00    +0.013 A 
ATOM     29  C   UNL     1       3.783  -1.564  -3.626  0.00  0.00    +0.016 A 
ATOM     30  C   UNL     1       4.767  -2.491  -3.346  0.00  0.00    +0.021 A 
ATOM     31  C   UNL     1       5.914  -2.103  -2.675  0.00  0.00    +0.041 A 
ATOM     32  C   UNL     1       6.079  -0.786  -2.283  0.00  0.00    +0.021 A 
ATOM     33  C   UNL     1       5.100   0.146  -2.566  0.00  0.00    +0.016 A 
ATOM     34 CL   UNL     1       7.149  -3.272  -2.324  0.00  0.00    -0.084 Cl
ENDBRANCH  27  28
ENDBRANCH   2  27
TORSDOF 5
