REMARK  Name = ZINC39506088
REMARK  3 active torsions:
REMARK  status: ('A' for Active; 'I' for Inactive)
REMARK    1  A    between atoms: C_1  and  S_2
REMARK    2  A    between atoms: S_2  and  C_3
REMARK    3  A    between atoms: C_10  and  O_15
REMARK                            x       y       z     vdW  Elec       q    Type
REMARK                         _______ _______ _______ _____ _____    ______ ____
ROOT
ATOM      1  C   UNL     1      -1.752  -0.467   0.016  0.00  0.00    +0.048 C 
ATOM      2  C   UNL     1      -2.403  -0.110   1.376  0.00  0.00    +0.016 C 
ATOM      3  C   UNL     1      -3.611  -1.066   1.481  0.00  0.00    +0.025 C 
ATOM      4  C   UNL     1      -3.294  -2.264   0.579  0.00  0.00    +0.040 C 
ATOM      5  C   UNL     1      -1.914  -2.007  -0.054  0.00  0.00    +0.038 C 
ATOM      6  C   UNL     1      -4.358  -2.399  -0.523  0.00  0.00    +0.056 C 
ATOM      7  C   UNL     1      -4.511  -3.938  -0.669  0.00  0.00    +0.132 C 
ATOM      8  C   UNL     1      -4.320  -4.412   0.794  0.00  0.00    +0.134 C 
ATOM      9  N   UNL     1      -3.285  -3.513   1.352  0.00  0.00    -0.211 NA
ATOM     10 CL   UNL     1      -3.568  -3.209   3.011  0.00  0.00    -0.020 Cl
ENDROOT
BRANCH   1  12
ATOM     11  C   UNL     1      -0.022   1.810   0.012  0.00  0.00    +0.084 C 
ATOM     12  S   UNL     1       0.002  -0.004   0.002  0.00  0.00    -0.161 S 
ENDBRANCH   1  12
BRANCH   7  13
ATOM     13  O   UNL     1      -5.812  -4.279  -1.153  0.00  0.00    -0.390 OA
ATOM     14  H   UNL     1      -5.955  -5.229  -1.260  0.00  0.00    +0.210 HD
ENDBRANCH   7  13
TORSDOF 2
