REMARK  Name = ZINC02217747
REMARK  6 active torsions:
REMARK  status: ('A' for Active; 'I' for Inactive)
REMARK    1  A    between atoms: C_1  and  C_2
REMARK    2  A    between atoms: C_2  and  C_28
REMARK    3  A    between atoms: N_11  and  C_25
REMARK    4  A    between atoms: N_14  and  N_15
REMARK    5  A    between atoms: C_16  and  C_18
REMARK    6  A    between atoms: C_18  and  C_19
REMARK                            x       y       z     vdW  Elec       q    Type
REMARK                         _______ _______ _______ _____ _____    ______ ____
ROOT
ATOM      1  C   UNL     1       0.002  -0.004   0.002  0.00  0.00    +0.041 C 
ATOM      2  C   UNL     1      -0.019   1.526   0.010  0.00  0.00    +0.068 C 
ATOM      3  C   UNL     1      -0.730   2.017   1.274  0.00  0.00    +0.071 C 
ATOM      4  C   UNL     1      -2.211   1.678   1.151  0.00  0.00    -0.018 A 
ATOM      5  C   UNL     1      -2.726   1.387  -0.067  0.00  0.00    +0.021 A 
ATOM      6  S   UNL     1      -4.443   1.055   0.222  0.00  0.00    -0.071 S 
ATOM      7  C   UNL     1      -4.469   1.306   1.969  0.00  0.00    +0.118 A 
ATOM      8  C   UNL     1      -3.129   1.643   2.274  0.00  0.00    +0.076 A 
ATOM      9  C   UNL     1      -2.820   1.913   3.647  0.00  0.00    +0.264 A 
ATOM     10  O   UNL     1      -1.695   2.213   4.010  0.00  0.00    -0.267 OA
ATOM     11  N   UNL     1      -3.853   1.816   4.516  0.00  0.00    -0.282 N 
ATOM     12  C   UNL     1      -5.115   1.484   4.133  0.00  0.00    +0.216 A 
ATOM     13  N   UNL     1      -5.437   1.227   2.873  0.00  0.00    -0.207 NA
ATOM     14  N   UNL     1      -6.096   1.411   5.091  0.00  0.00    -0.234 N 
ATOM     15  C   UNL     1      -3.600   2.080   5.935  0.00  0.00    +0.155 C 
ATOM     16  C   UNL     1      -1.976   1.361  -1.362  0.00  0.00    +0.203 C 
ATOM     17  O   UNL     1      -0.706   1.997  -1.152  0.00  0.00    -0.368 OA
ATOM     18  C   UNL     1       1.418   2.053  -0.001  0.00  0.00    +0.041 C 
ATOM     19  H   UNL     1      -5.883   1.595   6.019  0.00  0.00    +0.173 HD
ENDROOT
BRANCH  14  20
ATOM     20  N   UNL     1      -7.406   1.072   4.727  0.00  0.00    -0.234 N 
ATOM     21  C   UNL     1      -8.369   1.000   5.668  0.00  0.00    +0.233 C 
ATOM     22  O   UNL     1      -8.102   1.230   6.828  0.00  0.00    -0.274 OA
ATOM     23  H   UNL     1      -7.620   0.888   3.799  0.00  0.00    +0.173 HD
BRANCH  21  24
ATOM     24  C   UNL     1      -9.778   0.635   5.277  0.00  0.00    +0.132 C 
BRANCH  24  25
ATOM     25  C   UNL     1     -10.653   0.625   6.504  0.00  0.00    -0.039 A 
ATOM     26  C   UNL     1     -10.806  -0.538   7.234  0.00  0.00    +0.004 A 
ATOM     27  C   UNL     1     -11.605  -0.546   8.362  0.00  0.00    +0.000 A 
ATOM     28  C   UNL     1     -12.259   0.607   8.754  0.00  0.00    +0.000 A 
ATOM     29  C   UNL     1     -12.110   1.769   8.021  0.00  0.00    +0.000 A 
ATOM     30  C   UNL     1     -11.307   1.778   6.896  0.00  0.00    +0.004 A 
ENDBRANCH  24  25
ENDBRANCH  21  24
ENDBRANCH  14  20
TORSDOF 3
