REMARK  Name = ZINC07215232
REMARK  8 active torsions:
REMARK  status: ('A' for Active; 'I' for Inactive)
REMARK    1  A    between atoms: C_1  and  C_2
REMARK    2  A    between atoms: N_11  and  C_12
REMARK    3  A    between atoms: C_12  and  C_13
REMARK    4  A    between atoms: N_15  and  N_16
REMARK    5  A    between atoms: C_19  and  C_23
REMARK    6  A    between atoms: C_19  and  C_24
REMARK    7  A    between atoms: C_24  and  C_25
REMARK    8  A    between atoms: C_25  and  C_26
REMARK                            x       y       z     vdW  Elec       q    Type
REMARK                         _______ _______ _______ _____ _____    ______ ____
ROOT
ATOM      1  N   UNL     1       0.298  -0.482   0.105  0.00  0.00    -0.137 N 
ATOM      2  C   UNL     1       0.529   0.844   0.046  0.00  0.00    +0.263 C 
ATOM      3  O   UNL     1      -0.294   1.728  -0.056  0.00  0.00    -0.271 OA
ATOM      4  C   UNL     1       2.035   1.001   0.128  0.00  0.00    +0.112 C 
ATOM      5  N   UNL     1       2.522  -0.385   0.233  0.00  0.00    -0.284 N 
ATOM      6  C   UNL     1       1.435  -1.178   0.211  0.00  0.00    +0.326 C 
ATOM      7  O   UNL     1       1.482  -2.391   0.280  0.00  0.00    -0.251 OA
ATOM      8  C   UNL     1       2.576   1.667  -1.139  0.00  0.00    +0.041 C 
ATOM      9  H   UNL     1       3.447  -0.671   0.303  0.00  0.00    +0.151 HD
ENDROOT
BRANCH   1  12
ATOM     10  C   UNL     1      -1.400  -1.675  -1.062  0.00  0.00    +0.247 C 
ATOM     11  O   UNL     1      -0.677  -1.727  -2.034  0.00  0.00    -0.273 OA
ATOM     12  N   UNL     1      -0.978  -1.061   0.060  0.00  0.00    -0.222 N 
ATOM     13  H   UNL     1      -1.556  -1.020   0.838  0.00  0.00    +0.174 HD
BRANCH  10  14
ATOM     14  C   UNL     1      -2.772  -2.298  -1.110  0.00  0.00    +0.202 C 
BRANCH  14  25
ATOM     15  C   UNL     1       0.547  -6.957  -3.788  0.00  0.00    +0.044 C 
ATOM     16  C   UNL     1      -0.405  -5.838  -3.452  0.00  0.00    -0.050 A 
ATOM     17  C   UNL     1      -0.862  -5.684  -2.156  0.00  0.00    +0.005 A 
ATOM     18  C   UNL     1      -1.735  -4.662  -1.851  0.00  0.00    +0.023 A 
ATOM     19  C   UNL     1      -2.162  -3.777  -2.844  0.00  0.00    +0.033 A 
ATOM     20  C   UNL     1      -1.697  -3.934  -4.138  0.00  0.00    -0.026 A 
ATOM     21  C   UNL     1      -0.822  -4.966  -4.437  0.00  0.00    +0.008 A 
ATOM     22  C   UNL     1      -2.111  -3.007  -5.253  0.00  0.00    +0.038 C 
ATOM     23  C   UNL     1      -3.341  -2.203  -4.825  0.00  0.00    +0.024 C 
ATOM     24  C   UNL     1      -3.077  -1.650  -3.419  0.00  0.00    +0.106 C 
ATOM     25  N   UNL     1      -3.049  -2.768  -2.473  0.00  0.00    -0.321 N 
ENDBRANCH  14  25
ENDBRANCH  10  14
ENDBRANCH   1  12
BRANCH   4  26
ATOM     26  C   UNL     1       2.426   1.804   1.370  0.00  0.00    +0.040 C 
BRANCH  26  27
ATOM     27  C   UNL     1       3.948   1.947   1.427  0.00  0.00    +0.038 C 
BRANCH  27  28
ATOM     28  C   UNL     1       4.333   2.738   2.650  0.00  0.00    -0.047 A 
ATOM     29  C   UNL     1       4.444   4.114   2.576  0.00  0.00    +0.003 A 
ATOM     30  C   UNL     1       4.792   4.840   3.700  0.00  0.00    +0.000 A 
ATOM     31  C   UNL     1       5.040   4.190   4.894  0.00  0.00    +0.000 A 
ATOM     32  C   UNL     1       4.935   2.813   4.966  0.00  0.00    +0.000 A 
ATOM     33  C   UNL     1       4.581   2.087   3.844  0.00  0.00    +0.003 A 
ENDBRANCH  27  28
ENDBRANCH  26  27
ENDBRANCH   4  26
TORSDOF 6
