REMARK  Name = ZINC41584023
REMARK  10 active torsions:
REMARK  status: ('A' for Active; 'I' for Inactive)
REMARK    1  A    between atoms: C_1  and  C_2
REMARK    2  A    between atoms: C_2  and  C_3
REMARK    3  A    between atoms: C_3  and  C_4
REMARK    4  A    between atoms: C_4  and  N_5
REMARK    5  A    between atoms: N_5  and  C_6
REMARK    6  A    between atoms: N_5  and  C_7
REMARK    7  A    between atoms: C_7  and  C_8
REMARK    8  A    between atoms: C_9  and  O_28
REMARK    9  A    between atoms: C_11  and  C_27
REMARK   10  A    between atoms: C_16  and  C_17
REMARK                            x       y       z     vdW  Elec       q    Type
REMARK                         _______ _______ _______ _____ _____    ______ ____
ROOT
ATOM      1  C   UNL     1       2.432  -4.477   3.512  0.00  0.00    +0.020 A 
ATOM      2  C   UNL     1       3.808  -4.580   3.379  0.00  0.00    +0.122 A 
ATOM      3  C   UNL     1       4.590  -5.029   4.440  0.00  0.00    +0.050 A 
ATOM      4  C   UNL     1       4.005  -5.373   5.626  0.00  0.00    -0.033 A 
ATOM      5  C   UNL     1       2.622  -5.274   5.774  0.00  0.00    +0.071 A 
ATOM      6  C   UNL     1       1.823  -4.817   4.713  0.00  0.00    +0.145 A 
ATOM      7  O   UNL     1       0.527  -4.800   5.093  0.00  0.00    -0.451 OA
ATOM      8  C   UNL     1       0.371  -5.218   6.371  0.00  0.00    +0.176 C 
ATOM      9  C   UNL     1      -0.802  -5.315   7.046  0.00  0.00    +0.061 C 
ATOM     10  C   UNL     1       1.704  -5.559   6.892  0.00  0.00    +0.232 C 
ATOM     11  O   UNL     1       1.988  -5.972   8.003  0.00  0.00    -0.283 OA
ATOM     12  C   UNL     1       4.854  -5.859   6.772  0.00  0.00    +0.045 C 
ENDROOT
BRANCH   9  13
ATOM     13  C   UNL     1      -2.061  -4.948   6.386  0.00  0.00    +0.015 A 
ATOM     14  C   UNL     1      -2.174  -3.725   5.712  0.00  0.00    +0.050 A 
ATOM     15  C   UNL     1      -3.361  -3.389   5.094  0.00  0.00    +0.021 A 
ATOM     16  C   UNL     1      -4.439  -4.256   5.139  0.00  0.00    +0.003 A 
ATOM     17  C   UNL     1      -4.337  -5.466   5.802  0.00  0.00    +0.021 A 
ATOM     18  C   UNL     1      -3.156  -5.822   6.420  0.00  0.00    +0.050 A 
ATOM     19 CL   UNL     1      -3.029  -7.344   7.245  0.00  0.00    -0.083 Cl
ATOM     20 CL   UNL     1      -0.824  -2.635   5.656  0.00  0.00    -0.083 Cl
ENDBRANCH   9  13
BRANCH   2  21
ATOM     21  O   UNL     1       4.397  -4.241   2.205  0.00  0.00    -0.506 OA
ATOM     22  H   UNL     1       4.658  -3.311   2.149  0.00  0.00    +0.292 HD
ENDBRANCH   2  21
BRANCH   1  23
ATOM     23  C   UNL     1       1.598  -3.990   2.355  0.00  0.00    -0.036 C 
BRANCH  23  24
ATOM     24  N   UNL     1       1.473  -2.527   2.423  0.00  0.00    +0.381 N 
ATOM     25  C   UNL     1       0.721  -2.155   3.629  0.00  0.00    -0.096 C 
ATOM     26  H   UNL     1       2.393  -2.113   2.459  0.00  0.00    -0.082 HD
BRANCH  24  27
ATOM     27  C   UNL     1       0.763  -2.041   1.233  0.00  0.00    -0.079 C 
BRANCH  27  28
ATOM     28  C   UNL     1       0.742  -0.511   1.242  0.00  0.00    -0.019 C 
BRANCH  28  30
ATOM     29  C   UNL     1      -0.019   1.526   0.010  0.00  0.00    +0.004 C 
ATOM     30  C   UNL     1       0.002  -0.004   0.002  0.00  0.00    -0.005 C 
ENDBRANCH  28  30
ENDBRANCH  27  28
ENDBRANCH  24  27
ENDBRANCH  23  24
ENDBRANCH   1  23
TORSDOF 7
