REMARK  Name = ZINC64411041
REMARK  5 active torsions:
REMARK  status: ('A' for Active; 'I' for Inactive)
REMARK    1  A    between atoms: C_1  and  C_2
REMARK    2  A    between atoms: C_2  and  C_4
REMARK    3  A    between atoms: C_2  and  N_16
REMARK    4  A    between atoms: N_6  and  C_7
REMARK    5  A    between atoms: C_21  and  C_23
REMARK                            x       y       z     vdW  Elec       q    Type
REMARK                         _______ _______ _______ _____ _____    ______ ____
ROOT
ATOM      1  C   UNL     1       0.731  -0.503   1.223  0.00  0.00    +0.240 C 
ATOM      2  O   UNL     1       0.159  -1.213   2.023  0.00  0.00    -0.273 OA
ATOM      3  N   UNL     1       2.019  -0.161   1.426  0.00  0.00    -0.277 N 
ATOM      4  H   UNL     1       2.476   0.406   0.786  0.00  0.00    +0.152 HD
ENDROOT
BRANCH   3   5
ATOM      5  C   UNL     1       2.727  -0.647   2.613  0.00  0.00    +0.269 C 
ATOM      6  N   UNL     1       2.338   0.141   3.789  0.00  0.00    -0.348 N 
ATOM      7  C   UNL     1       3.413   0.713   4.250  0.00  0.00    +0.061 A 
ATOM      8  C   UNL     1       3.658   1.608   5.388  0.00  0.00    +0.027 A 
ATOM      9  C   UNL     1       4.908   2.054   5.627  0.00  0.00    +0.002 A 
ATOM     10  C   UNL     1       6.006   1.696   4.825  0.00  0.00    +0.002 A 
ATOM     11  C   UNL     1       5.891   0.881   3.757  0.00  0.00    +0.027 A 
ATOM     12  C   UNL     1       4.575   0.334   3.401  0.00  0.00    +0.061 A 
ATOM     13  N   UNL     1       4.174  -0.458   2.448  0.00  0.00    -0.348 N 
ATOM     14  H   UNL     1       1.443   0.221   4.156  0.00  0.00    +0.163 HD
ATOM     15  H   UNL     1       4.729  -0.851   1.757  0.00  0.00    +0.163 HD
ENDBRANCH   3   5
BRANCH   1  17
ATOM     16  C   UNL     1      -0.019   1.526   0.010  0.00  0.00    +0.043 C 
ATOM     17  C   UNL     1       0.002  -0.004   0.002  0.00  0.00    +0.193 C 
BRANCH  17  18
ATOM     18  N   UNL     1      -1.372  -0.511   0.012  0.00  0.00    -0.217 N 
ATOM     19  C   UNL     1      -1.791  -1.288  -1.004  0.00  0.00    +0.268 A 
ATOM     20  O   UNL     1      -1.032  -1.565  -1.919  0.00  0.00    -0.266 OA
ATOM     21  C   UNL     1      -3.115  -1.783  -1.004  0.00  0.00    +0.074 A 
ATOM     22  C   UNL     1      -3.922  -1.446   0.041  0.00  0.00    +0.038 A 
ATOM     23  C   UNL     1      -3.388  -0.622   1.063  0.00  0.00    +0.127 A 
ATOM     24  N   UNL     1      -2.143  -0.206   0.993  0.00  0.00    -0.164 NA
BRANCH  23  25
ATOM     25  C   UNL     1      -4.231  -0.234   2.212  0.00  0.00    +0.155 A 
ATOM     26  C   UNL     1      -5.525  -0.601   2.413  0.00  0.00    +0.051 A 
ATOM     27  C   UNL     1      -5.931  -0.009   3.625  0.00  0.00    +0.042 A 
ATOM     28  C   UNL     1      -4.877   0.683   4.099  0.00  0.00    +0.196 A 
ATOM     29  O   UNL     1      -3.849   0.540   3.246  0.00  0.00    -0.461 OA
ENDBRANCH  23  25
ENDBRANCH  17  18
ENDBRANCH   1  17
TORSDOF 4
