REMARK  Name = ZINC01432233
REMARK  1 active torsions:
REMARK  status: ('A' for Active; 'I' for Inactive)
REMARK    1  A    between atoms: C_6  and  C_7
REMARK                            x       y       z     vdW  Elec       q    Type
REMARK                         _______ _______ _______ _____ _____    ______ ____
ROOT
ATOM      1  C   UNL     1       4.441   0.712  -0.035  0.00  0.00    +0.090 A 
ATOM      2  C   UNL     1       3.662  -0.406  -0.034  0.00  0.00    +0.121 A 
ATOM      3  N   UNL     1       2.361   0.011  -0.020  0.00  0.00    -0.305 N 
ATOM      4  C   UNL     1       1.177  -0.669  -0.013  0.00  0.00    +0.107 A 
ATOM      5  C   UNL     1       0.002  -0.004   0.002  0.00  0.00    +0.030 A 
ATOM      6  C   UNL     1      -0.017   1.401   0.010  0.00  0.00    +0.019 A 
ATOM      7  C   UNL     1       1.155   2.091   0.002  0.00  0.00    +0.048 A 
ATOM      8  C   UNL     1       2.374   1.382  -0.013  0.00  0.00    +0.138 A 
ATOM      9  N   UNL     1       3.636   1.786  -0.022  0.00  0.00    -0.228 NA
ATOM     10  I   UNL     1      -1.800  -1.072   0.013  0.00  0.00    -0.042 I 
ENDROOT
BRANCH   1  16
ATOM     11  C   UNL     1       6.644  -0.455  -0.056  0.00  0.00    +0.011 A 
ATOM     12  C   UNL     1       8.024  -0.426  -0.073  0.00  0.00    +0.020 A 
ATOM     13  C   UNL     1       8.693   0.786  -0.073  0.00  0.00    +0.041 A 
ATOM     14  C   UNL     1       7.982   1.974  -0.060  0.00  0.00    +0.020 A 
ATOM     15  C   UNL     1       6.603   1.955  -0.048  0.00  0.00    +0.011 A 
ATOM     16  C   UNL     1       5.925   0.738  -0.049  0.00  0.00    +0.002 A 
ATOM     17 CL   UNL     1      10.429   0.816  -0.087  0.00  0.00    -0.084 Cl
ENDBRANCH   1  16
TORSDOF 1
