REMARK  Name = ZINC62631751
REMARK  14 active torsions:
REMARK  status: ('A' for Active; 'I' for Inactive)
REMARK    1  A    between atoms: C_1  and  C_2
REMARK    2  A    between atoms: C_2  and  C_3
REMARK    3  A    between atoms: C_3  and  C_4
REMARK    4  A    between atoms: C_3  and  N_5
REMARK    5  A    between atoms: C_6  and  C_8
REMARK    6  A    between atoms: C_8  and  C_9
REMARK    7  A    between atoms: C_8  and  N_10
REMARK    8  A    between atoms: C_11  and  C_13
REMARK    9  A    between atoms: N_15  and  C_16
REMARK   10  A    between atoms: C_20  and  C_22
REMARK   11  A    between atoms: N_24  and  C_25
REMARK   12  A    between atoms: C_25  and  C_26
REMARK   13  A    between atoms: C_25  and  C_27
REMARK   14  A    between atoms: C_25  and  C_28
REMARK                            x       y       z     vdW  Elec       q    Type
REMARK                         _______ _______ _______ _____ _____    ______ ____
ROOT
ATOM      1  C   UNL     1       1.108   0.266  -8.435  0.00  0.00    +0.303 C 
ATOM      2  O   UNL     1       2.311   0.328  -8.287  0.00  0.00    -0.265 OA
ATOM      3  N   UNL     1       0.582   0.269  -9.676  0.00  0.00    -0.278 N 
ATOM      4  H   UNL     1      -0.372   0.143  -9.799  0.00  0.00    +0.155 HD
ENDROOT
BRANCH   3   5
ATOM      5  C   UNL     1       1.410   0.455 -10.786  0.00  0.00    +0.035 A 
ATOM      6  C   UNL     1       1.113  -0.177 -11.989  0.00  0.00    +0.023 A 
ATOM      7  C   UNL     1       1.930   0.003 -13.089  0.00  0.00    +0.003 A 
ATOM      8  C   UNL     1       3.045   0.812 -13.002  0.00  0.00    +0.013 A 
ATOM      9  C   UNL     1       3.351   1.451 -11.800  0.00  0.00    +0.038 A 
ATOM     10  C   UNL     1       2.524   1.275 -10.691  0.00  0.00    +0.036 A 
BRANCH   9  11
ATOM     11  C   UNL     1       4.545   2.318 -11.704  0.00  0.00    +0.245 C 
ATOM     12  O   UNL     1       4.810   2.874 -10.656  0.00  0.00    -0.270 OA
ATOM     13  N   UNL     1       5.340   2.492 -12.778  0.00  0.00    -0.307 N 
ATOM     14  H   UNL     1       5.129   2.048 -13.615  0.00  0.00    +0.150 HD
BRANCH  13  15
ATOM     15  C   UNL     1       6.523   3.350 -12.684  0.00  0.00    +0.026 C 
ATOM     16  C   UNL     1       7.466   2.802 -11.611  0.00  0.00    +0.031 C 
ATOM     17  C   UNL     1       7.245   3.376 -14.033  0.00  0.00    +0.031 C 
ATOM     18  C   UNL     1       6.094   4.770 -12.308  0.00  0.00    +0.031 C 
ENDBRANCH  13  15
ENDBRANCH   9  11
ENDBRANCH   3   5
BRANCH   1  20
ATOM     19  N   UNL     1       0.738   0.182  -6.003  0.00  0.00    -0.297 N 
ATOM     20  C   UNL     1       0.211   0.186  -7.244  0.00  0.00    +0.300 C 
ATOM     21  O   UNL     1      -0.992   0.124  -7.393  0.00  0.00    -0.265 OA
ATOM     22  H   UNL     1       1.699   0.232  -5.884  0.00  0.00    +0.150 HD
BRANCH  19  23
ATOM     23  C   UNL     1      -0.142   0.104  -4.834  0.00  0.00    +0.156 C 
ATOM     24  C   UNL     1      -0.627   1.507  -4.466  0.00  0.00    +0.038 C 
BRANCH  23  26
ATOM     25  N   UNL     1       0.005  -0.655  -2.485  0.00  0.00    -0.311 N 
ATOM     26  C   UNL     1       0.617  -0.486  -3.674  0.00  0.00    +0.233 C 
ATOM     27  O   UNL     1       1.778  -0.809  -3.809  0.00  0.00    -0.274 OA
ATOM     28  H   UNL     1      -0.924  -0.397  -2.376  0.00  0.00    +0.149 HD
BRANCH  25  29
ATOM     29  C   UNL     1       0.742  -1.228  -1.356  0.00  0.00    +0.070 C 
ATOM     30  C   UNL     1       0.688  -2.756  -1.435  0.00  0.00    +0.028 C 
BRANCH  29  32
ATOM     31  C   UNL     1       0.274   0.752   0.093  0.00  0.00    +0.005 C 
ATOM     32  C   UNL     1       0.109  -0.763  -0.043  0.00  0.00    +0.018 C 
ENDBRANCH  29  32
ENDBRANCH  25  29
ENDBRANCH  23  26
ENDBRANCH  19  23
ENDBRANCH   1  20
TORSDOF 8
