REMARK  Name = ZINC33026087
REMARK  10 active torsions:
REMARK  status: ('A' for Active; 'I' for Inactive)
REMARK    1  A    between atoms: C_1  and  C_2
REMARK    2  A    between atoms: C_6  and  O_8
REMARK    3  A    between atoms: O_8  and  C_9
REMARK    4  A    between atoms: C_9  and  C_11
REMARK    5  A    between atoms: C_9  and  C_12
REMARK    6  A    between atoms: N_14  and  C_15
REMARK    7  A    between atoms: C_20  and  S_21
REMARK    8  A    between atoms: S_21  and  C_22
REMARK    9  A    between atoms: C_22  and  C_23
REMARK   10  A    between atoms: C_31  and  C_34
REMARK                            x       y       z     vdW  Elec       q    Type
REMARK                         _______ _______ _______ _____ _____    ______ ____
ROOT
ATOM      1  C   UNL     1       2.234   9.070   1.996  0.00  0.00    +0.047 A 
ATOM      2  C   UNL     1       1.039   9.504   2.548  0.00  0.00    +0.024 A 
ATOM      3  C   UNL     1       1.020  10.616   3.369  0.00  0.00    +0.002 A 
ATOM      4  C   UNL     1       2.190  11.306   3.633  0.00  0.00    +0.001 A 
ATOM      5  C   UNL     1       3.385  10.883   3.083  0.00  0.00    +0.016 A 
ATOM      6  C   UNL     1       3.414   9.764   2.263  0.00  0.00    +0.029 A 
ENDROOT
BRANCH   1   9
ATOM      7  C   UNL     1       1.422   6.909   1.411  0.00  0.00    +0.258 C 
ATOM      8  O   UNL     1       0.599   6.992   2.298  0.00  0.00    -0.271 OA
ATOM      9  N   UNL     1       2.256   7.939   1.168  0.00  0.00    -0.282 N 
ATOM     10  H   UNL     1       2.953   7.893   0.318  0.00  0.00    +0.155 HD
BRANCH   7  11
ATOM     11  C   UNL     1       1.513   5.654   0.583  0.00  0.00    +0.256 C 
ATOM     12  C   UNL     1       1.260   5.994  -0.887  0.00  0.00    +0.062 C 
BRANCH  11  13
ATOM     13  O   UNL     1       0.532   4.715   1.030  0.00  0.00    -0.480 OA
BRANCH  13  19
ATOM     14  C   UNL     1      -0.579   0.062   1.995  0.00  0.00    +0.044 C 
ATOM     15  C   UNL     1       0.347   1.103   1.422  0.00  0.00    -0.047 A 
ATOM     16  C   UNL     1       1.535   0.719   0.827  0.00  0.00    +0.003 A 
ATOM     17  C   UNL     1       2.384   1.671   0.295  0.00  0.00    +0.004 A 
ATOM     18  C   UNL     1       2.050   3.010   0.361  0.00  0.00    +0.046 A 
ATOM     19  C   UNL     1       0.862   3.399   0.963  0.00  0.00    +0.122 A 
ATOM     20  C   UNL     1       0.012   2.441   1.496  0.00  0.00    +0.049 A 
ENDBRANCH  13  19
ENDBRANCH  11  13
ENDBRANCH   7  11
ENDBRANCH   1   9
BRANCH   6  21
ATOM     21  S   UNL     1       4.936   9.224   1.559  0.00  0.00    -0.117 S 
BRANCH  21  22
ATOM     22  C   UNL     1       6.155  10.416   2.180  0.00  0.00    +0.130 C 
BRANCH  22  23
ATOM     23  C   UNL     1       7.519  10.063   1.646  0.00  0.00    +0.059 A 
ATOM     24  C   UNL     1       8.078  10.816   0.631  0.00  0.00    +0.094 A 
ATOM     25  C   UNL     1       9.347  10.469   0.152  0.00  0.00    +0.259 A 
ATOM     26  O   UNL     1       9.869  11.114  -0.744  0.00  0.00    -0.267 OA
ATOM     27  N   UNL     1       9.985   9.411   0.696  0.00  0.00    -0.268 N 
ATOM     28  C   UNL     1      11.220   9.061   0.241  0.00  0.00    +0.096 A 
ATOM     29  C   UNL     1      11.878   8.005   0.770  0.00  0.00    +0.019 A 
ATOM     30  C   UNL     1      11.293   7.255   1.800  0.00  0.00    +0.008 A 
ATOM     31  C   UNL     1      10.058   7.596   2.263  0.00  0.00    -0.008 A 
ATOM     32  C   UNL     1       9.389   8.699   1.700  0.00  0.00    +0.143 A 
ATOM     33  N   UNL     1       8.183   9.037   2.154  0.00  0.00    -0.233 NA
ATOM     34  C   UNL     1       9.414   6.801   3.368  0.00  0.00    +0.047 C 
ENDBRANCH  22  23
ENDBRANCH  21  22
ENDBRANCH   6  21
TORSDOF 7
