REMARK  Name = ZINC19960394
REMARK  7 active torsions:
REMARK  status: ('A' for Active; 'I' for Inactive)
REMARK    1  A    between atoms: C_1  and  O_2
REMARK    2  A    between atoms: O_2  and  C_3
REMARK    3  A    between atoms: C_6  and  C_11
REMARK    4  A    between atoms: C_7  and  O_9
REMARK    5  A    between atoms: O_9  and  C_10
REMARK    6  A    between atoms: N_17  and  C_29
REMARK    7  A    between atoms: C_29  and  C_30
REMARK                            x       y       z     vdW  Elec       q    Type
REMARK                         _______ _______ _______ _____ _____    ______ ____
ROOT
ATOM      1  C   UNL     1       1.726  -0.417   1.077  0.00  0.00    +0.245 C 
ATOM      2  N   UNL     1       0.405   0.220   0.966  0.00  0.00    -0.225 NA
ATOM      3  C   UNL     1       0.274   1.490   0.742  0.00  0.00    +0.189 C 
ATOM      4  N   UNL     1      -0.974   2.052   0.552  0.00  0.00    -0.304 N 
ATOM      5  C   UNL     1      -1.059   3.248  -0.303  0.00  0.00    +0.193 C 
ATOM      6  N   UNL     1      -0.015   4.196   0.124  0.00  0.00    -0.268 NA
ATOM      7  C   UNL     1       1.320   3.592  -0.026  0.00  0.00    +0.204 C 
ATOM      8  N   UNL     1       1.371   2.338   0.717  0.00  0.00    -0.230 N 
ATOM      9  C   UNL     1       2.495   1.920   1.402  0.00  0.00    +0.209 A 
ATOM     10  N   UNL     1       2.674   0.561   1.620  0.00  0.00    -0.284 N 
ATOM     11  C   UNL     1       3.809   0.417   2.353  0.00  0.00    +0.072 A 
ATOM     12  C   UNL     1       4.468  -0.691   2.875  0.00  0.00    +0.028 A 
ATOM     13  C   UNL     1       5.633  -0.457   3.587  0.00  0.00    +0.002 A 
ATOM     14  C   UNL     1       6.133   0.819   3.778  0.00  0.00    +0.002 A 
ATOM     15  C   UNL     1       5.497   1.938   3.271  0.00  0.00    +0.030 A 
ATOM     16  C   UNL     1       4.317   1.727   2.550  0.00  0.00    +0.091 A 
ATOM     17  N   UNL     1       3.472   2.585   1.940  0.00  0.00    -0.214 NA
ATOM     18  H   UNL     1      -1.884   1.639   1.012  0.00  0.00    +0.150 HD
ENDROOT
BRANCH   1  22
ATOM     19  C   UNL     1       3.035  -1.690  -2.790  0.00  0.00    +0.124 A 
ATOM     20  C   UNL     1       2.126  -0.649  -2.669  0.00  0.00    +0.046 A 
ATOM     21  C   UNL     1       1.701  -0.243  -1.419  0.00  0.00    +0.015 A 
ATOM     22  C   UNL     1       2.188  -0.866  -0.285  0.00  0.00    +0.039 A 
ATOM     23  C   UNL     1       3.097  -1.908  -0.401  0.00  0.00    +0.131 A 
ATOM     24  C   UNL     1       3.521  -2.320  -1.655  0.00  0.00    +0.091 A 
BRANCH  19  26
ATOM     25  C   UNL     1       2.907  -1.399  -5.146  0.00  0.00    +0.277 C 
ATOM     26  O   UNL     1       3.449  -2.093  -4.021  0.00  0.00    -0.495 OA
ENDBRANCH  19  26
BRANCH  23  27
ATOM     27  O   UNL     1       3.571  -2.523   0.714  0.00  0.00    -0.495 OA
ATOM     28  C   UNL     1       4.505  -3.588   0.520  0.00  0.00    +0.277 C 
ENDBRANCH  23  27
ENDBRANCH   1  22
BRANCH   6  29
ATOM     29  C   UNL     1      -0.110   5.456  -0.625  0.00  0.00    +0.119 C 
BRANCH  29  30
ATOM     30  C   UNL     1      -1.535   6.003  -0.524  0.00  0.00    +0.132 C 
ATOM     31  C   UNL     1      -1.650   7.345  -1.281  0.00  0.00    +0.035 C 
ATOM     32  C   UNL     1      -2.607   8.187  -0.408  0.00  0.00    +0.031 C 
ATOM     33  C   UNL     1      -2.956   7.255   0.773  0.00  0.00    +0.160 C 
ATOM     34  O   UNL     1      -1.854   6.324   0.847  0.00  0.00    -0.375 OA
ENDBRANCH  29  30
ENDBRANCH   6  29
TORSDOF 5
