REMARK  Name = ZINC12135368
REMARK  11 active torsions:
REMARK  status: ('A' for Active; 'I' for Inactive)
REMARK    1  A    between atoms: C_1  and  C_2
REMARK    2  A    between atoms: C_2  and  C_3
REMARK    3  A    between atoms: C_3  and  C_5
REMARK    4  A    between atoms: C_3  and  C_28
REMARK    5  A    between atoms: C_5  and  N_6
REMARK    6  A    between atoms: C_7  and  C_9
REMARK    7  A    between atoms: C_9  and  S_10
REMARK    8  A    between atoms: S_10  and  C_11
REMARK    9  A    between atoms: C_14  and  C_22
REMARK   10  A    between atoms: N_15  and  C_16
REMARK   11  A    between atoms: C_22  and  N_66
REMARK                            x       y       z     vdW  Elec       q    Type
REMARK                         _______ _______ _______ _____ _____    ______ ____
ROOT
ATOM      1  C   UNL     1      -1.751   3.016  -6.232  0.00  0.00    +0.197 A 
ATOM      2  N   UNL     1      -0.569   2.446  -6.258  0.00  0.00    -0.122 NA
ATOM      3  N   UNL     1      -0.240   2.173  -7.470  0.00  0.00    -0.135 NA
ATOM      4  C   UNL     1      -1.180   2.558  -8.287  0.00  0.00    +0.122 A 
ATOM      5  N   UNL     1      -2.178   3.110  -7.528  0.00  0.00    -0.276 N 
ENDROOT
BRANCH   5   6
ATOM      6  C   UNL     1      -3.386   3.657  -7.985  0.00  0.00    +0.050 A 
ATOM      7  C   UNL     1      -4.324   2.847  -8.610  0.00  0.00    +0.026 A 
ATOM      8  C   UNL     1      -5.515   3.389  -9.054  0.00  0.00    +0.002 A 
ATOM      9  C   UNL     1      -5.768   4.738  -8.887  0.00  0.00    +0.000 A 
ATOM     10  C   UNL     1      -4.833   5.548  -8.270  0.00  0.00    +0.002 A 
ATOM     11  C   UNL     1      -3.643   5.011  -7.819  0.00  0.00    +0.026 A 
ENDBRANCH   5   6
BRANCH   1  12
ATOM     12  S   UNL     1      -2.619   3.564  -4.800  0.00  0.00    -0.076 S 
BRANCH  12  13
ATOM     13  C   UNL     1      -1.432   3.099  -3.515  0.00  0.00    +0.173 C 
BRANCH  13  15
ATOM     14  N   UNL     1      -1.260   3.232  -1.051  0.00  0.00    -0.314 N 
ATOM     15  C   UNL     1      -1.978   3.483  -2.164  0.00  0.00    +0.223 C 
ATOM     16  O   UNL     1      -3.063   4.018  -2.078  0.00  0.00    -0.275 OA
ATOM     17  H   UNL     1      -0.392   2.804  -1.120  0.00  0.00    +0.149 HD
BRANCH  14  18
ATOM     18  C   UNL     1      -1.791   3.605   0.262  0.00  0.00    +0.112 C 
BRANCH  18  19
ATOM     19  C   UNL     1      -0.830   3.131   1.354  0.00  0.00    +0.036 C 
BRANCH  19  20
ATOM     20  C   UNL     1      -1.302   3.635   2.693  0.00  0.00    -0.043 A 
ATOM     21  C   UNL     1      -2.553   3.279   3.164  0.00  0.00    +0.004 A 
ATOM     22  C   UNL     1      -2.984   3.738   4.394  0.00  0.00    +0.000 A 
ATOM     23  C   UNL     1      -2.170   4.561   5.150  0.00  0.00    +0.000 A 
ATOM     24  C   UNL     1      -0.922   4.921   4.677  0.00  0.00    +0.000 A 
ATOM     25  C   UNL     1      -0.488   4.458   3.448  0.00  0.00    +0.004 A 
ENDBRANCH  19  20
BRANCH  19  27
ATOM     26  C   UNL     1       0.266   1.128   2.370  0.00  0.00    +0.004 C 
ATOM     27  C   UNL     1      -0.791   1.601   1.370  0.00  0.00    +0.006 C 
ENDBRANCH  19  27
ENDBRANCH  18  19
ENDBRANCH  14  18
ENDBRANCH  13  15
ENDBRANCH  12  13
ENDBRANCH   1  12
BRANCH   4  28
ATOM     28  C   UNL     1      -1.170   2.422  -9.788  0.00  0.00    -0.001 C 
BRANCH  28  34
ATOM     29  C   UNL     1      -1.393   4.806 -10.141  0.00  0.00    -0.078 C 
ATOM     30  C   UNL     1      -0.663   6.053 -10.646  0.00  0.00    -0.019 C 
ATOM     31  C   UNL     1      -0.381   5.902 -12.144  0.00  0.00    -0.004 C 
ATOM     32  C   UNL     1       0.443   4.632 -12.375  0.00  0.00    -0.019 C 
ATOM     33  C   UNL     1      -0.319   3.427 -11.819  0.00  0.00    -0.078 C 
ATOM     34  N   UNL     1      -0.537   3.623 -10.370  0.00  0.00    +0.384 N 
ATOM     35  H   UNL     1       0.371   3.775  -9.915  0.00  0.00    -0.081 HD
ENDBRANCH  28  34
ENDBRANCH   4  28
TORSDOF 10
