REMARK  Name = ZINC66722298
REMARK  5 active torsions:
REMARK  status: ('A' for Active; 'I' for Inactive)
REMARK    1  A    between atoms: C_1  and  C_2
REMARK    2  A    between atoms: C_2  and  C_7
REMARK    3  A    between atoms: C_7  and  N_8
REMARK    4  A    between atoms: C_9  and  C_11
REMARK    5  A    between atoms: N_13  and  C_14
REMARK                            x       y       z     vdW  Elec       q    Type
REMARK                         _______ _______ _______ _____ _____    ______ ____
ROOT
ATOM      1  C   UNL     1      -4.100   0.096  -2.669  0.00  0.00    +0.303 C 
ATOM      2  O   UNL     1      -3.520   0.825  -3.447  0.00  0.00    -0.265 OA
ATOM      3  N   UNL     1      -5.380  -0.255  -2.901  0.00  0.00    -0.276 N 
ATOM      4  H   UNL     1      -5.823  -0.891  -2.317  0.00  0.00    +0.155 HD
ENDROOT
BRANCH   3   5
ATOM      5  C   UNL     1      -6.071   0.297  -3.984  0.00  0.00    +0.052 A 
ATOM      6  C   UNL     1      -5.407   0.574  -5.178  0.00  0.00    +0.028 A 
ATOM      7  C   UNL     1      -6.131   1.120  -6.223  0.00  0.00    +0.048 A 
ATOM      8  C   UNL     1      -7.487   1.372  -6.049  0.00  0.00    +0.139 A 
ATOM      9  N   UNL     1      -8.085   1.097  -4.901  0.00  0.00    -0.236 NA
ATOM     10  C   UNL     1      -7.428   0.571  -3.886  0.00  0.00    +0.136 A 
ATOM     11  N   UNL     1      -8.226   1.923  -7.099  0.00  0.00    -0.283 N 
ATOM     12  C   UNL     1      -7.755   2.253  -8.335  0.00  0.00    +0.206 A 
ATOM     13  N   UNL     1      -8.715   2.742  -9.063  0.00  0.00    -0.235 NA
ATOM     14  C   UNL     1      -9.870   2.760  -8.348  0.00  0.00    +0.089 A 
ATOM     15  C   UNL     1      -9.575   2.230  -7.080  0.00  0.00    +0.075 A 
ATOM     16  C   UNL     1     -10.576   2.119  -6.126  0.00  0.00    +0.028 A 
ATOM     17  C   UNL     1     -11.859   2.526  -6.427  0.00  0.00    +0.002 A 
ATOM     18  C   UNL     1     -12.156   3.047  -7.678  0.00  0.00    +0.002 A 
ATOM     19  C   UNL     1     -11.173   3.172  -8.634  0.00  0.00    +0.030 A 
ENDBRANCH   3   5
BRANCH   1  21
ATOM     20  N   UNL     1      -2.115  -0.062  -1.222  0.00  0.00    -0.307 N 
ATOM     21  C   UNL     1      -3.395  -0.412  -1.454  0.00  0.00    +0.299 C 
ATOM     22  O   UNL     1      -3.975  -1.141  -0.676  0.00  0.00    -0.265 OA
ATOM     23  H   UNL     1      -1.651   0.521  -1.844  0.00  0.00    +0.149 HD
BRANCH  20  24
ATOM     24  C   UNL     1      -1.423  -0.560  -0.031  0.00  0.00    +0.111 C 
BRANCH  24  26
ATOM     25  C   UNL     1      -0.014   1.513   0.010  0.00  0.00    +0.013 C 
ATOM     26  C   UNL     1       0.007  -0.017  -0.006  0.00  0.00    -0.017 C 
ATOM     27  C   UNL     1       0.786  -0.521  -1.238  0.00  0.00    +0.008 C 
ATOM     28  C   UNL     1       2.218  -0.777  -0.704  0.00  0.00    +0.001 C 
ATOM     29  C   UNL     1       1.957  -1.355   0.709  0.00  0.00    +0.001 C 
ATOM     30  C   UNL     1       0.751  -0.546   1.232  0.00  0.00    +0.008 C 
ENDBRANCH  24  26
ENDBRANCH  20  24
ENDBRANCH   1  21
TORSDOF 4
