REMARK  Name = ZINC02135414
REMARK  10 active torsions:
REMARK  status: ('A' for Active; 'I' for Inactive)
REMARK    1  A    between atoms: C_1  and  C_2
REMARK    2  A    between atoms: C_5  and  C_8
REMARK    3  A    between atoms: N_10  and  N_11
REMARK    4  A    between atoms: N_11  and  C_12
REMARK    5  A    between atoms: C_12  and  N_14
REMARK    6  A    between atoms: C_15  and  C_17
REMARK    7  A    between atoms: C_20  and  C_23
REMARK    8  A    between atoms: C_23  and  C_24
REMARK    9  A    between atoms: C_23  and  C_25
REMARK   10  A    between atoms: C_23  and  C_26
REMARK                            x       y       z     vdW  Elec       q    Type
REMARK                         _______ _______ _______ _____ _____    ______ ____
ROOT
ATOM      1  C   UNL     1       3.524   1.907  -0.021  0.00  0.00    +0.153 C 
ATOM      2  S   UNL     1       5.018   1.071  -0.040  0.00  0.00    -0.017 S 
ENDROOT
BRANCH   1   3
ATOM      3  N   UNL     1       3.506   3.254  -0.014  0.00  0.00    -0.263 N 
ATOM      4  C   UNL     1       4.664   3.944  -0.021  0.00  0.00    +0.250 C 
ATOM      5  O   UNL     1       5.724   3.351  -0.035  0.00  0.00    -0.270 OA
ATOM      6  H   UNL     1       2.659   3.728  -0.003  0.00  0.00    +0.157 HD
BRANCH   4   7
ATOM      7  C   UNL     1       4.644   5.422  -0.013  0.00  0.00    +0.037 A 
ATOM      8  C   UNL     1       3.427   6.106  -0.004  0.00  0.00    +0.013 A 
ATOM      9  C   UNL     1       3.416   7.486   0.010  0.00  0.00    +0.005 A 
ATOM     10  C   UNL     1       4.606   8.191   0.002  0.00  0.00    -0.042 A 
ATOM     11  C   UNL     1       5.815   7.518  -0.013  0.00  0.00    +0.005 A 
ATOM     12  C   UNL     1       5.841   6.139  -0.021  0.00  0.00    +0.013 A 
BRANCH  10  13
ATOM     13  C   UNL     1       4.586   9.698   0.011  0.00  0.00    -0.013 C 
ATOM     14  C   UNL     1       5.288  10.225  -1.242  0.00  0.00    +0.015 C 
ATOM     15  C   UNL     1       3.136  10.188   0.027  0.00  0.00    +0.015 C 
ATOM     16  C   UNL     1       5.312  10.210   1.256  0.00  0.00    +0.015 C 
ENDBRANCH  10  13
ENDBRANCH   4   7
ENDBRANCH   1   3
BRANCH   1  17
ATOM     17  N   UNL     1       2.366   1.217  -0.014  0.00  0.00    -0.245 N 
ATOM     18  H   UNL     1       2.379   0.247  -0.019  0.00  0.00    +0.172 HD
BRANCH  17  21
ATOM     19  C   UNL     1      -0.014   1.211   0.009  0.00  0.00    +0.260 C 
ATOM     20  O   UNL     1       0.002  -0.004   0.002  0.00  0.00    -0.269 OA
ATOM     21  N   UNL     1       1.143   1.901   0.001  0.00  0.00    -0.231 N 
ATOM     22  H   UNL     1       1.130   2.871   0.007  0.00  0.00    +0.173 HD
BRANCH  19  27
ATOM     23  C   UNL     1      -5.037   4.021   0.050  0.00  0.00    +0.044 C 
ATOM     24  C   UNL     1      -3.721   3.285   0.039  0.00  0.00    -0.050 A 
ATOM     25  C   UNL     1      -3.706   1.901   0.030  0.00  0.00    +0.004 A 
ATOM     26  C   UNL     1      -2.506   1.222   0.021  0.00  0.00    +0.013 A 
ATOM     27  C   UNL     1      -1.305   1.933   0.019  0.00  0.00    +0.038 A 
ATOM     28  C   UNL     1      -1.327   3.329   0.032  0.00  0.00    +0.013 A 
ATOM     29  C   UNL     1      -2.534   3.996   0.037  0.00  0.00    +0.004 A 
ENDBRANCH  19  27
ENDBRANCH  17  21
ENDBRANCH   1  17
TORSDOF 6
