REMARK  Name = ZINC05499548
REMARK  4 active torsions:
REMARK  status: ('A' for Active; 'I' for Inactive)
REMARK    1  A    between atoms: C_1  and  C_2
REMARK    2  A    between atoms: C_2  and  N_3
REMARK    3  A    between atoms: C_10  and  O_23
REMARK    4  A    between atoms: O_23  and  C_24
REMARK                            x       y       z     vdW  Elec       q    Type
REMARK                         _______ _______ _______ _____ _____    ______ ____
ROOT
ATOM      1  N   UNL     1      -1.659   2.440   8.984  0.00  0.00    -0.328 N 
ATOM      2  C   UNL     1      -2.790   2.433   8.098  0.00  0.00    +0.128 C 
ATOM      3  C   UNL     1      -2.564   3.304   6.885  0.00  0.00    +0.161 C 
ATOM      4  N   UNL     1      -1.699   2.706   5.916  0.00  0.00    -0.281 NA
ATOM      5  C   UNL     1      -0.652   1.973   6.084  0.00  0.00    +0.079 A 
ATOM      6  C   UNL     1       0.067   1.603   4.824  0.00  0.00    +0.028 A 
ATOM      7  C   UNL     1      -0.419   2.076   3.605  0.00  0.00    +0.057 A 
ATOM      8  C   UNL     1       0.231   1.738   2.432  0.00  0.00    +0.121 A 
ATOM      9  C   UNL     1       1.370   0.942   2.467  0.00  0.00    +0.048 A 
ATOM     10  C   UNL     1       1.859   0.476   3.670  0.00  0.00    +0.030 A 
ATOM     11  C   UNL     1       1.211   0.802   4.855  0.00  0.00    +0.057 A 
ATOM     12  N   UNL     1       1.695   0.334   6.073  0.00  0.00    -0.297 N 
ATOM     13  C   UNL     1       2.751  -0.452   6.441  0.00  0.00    +0.205 A 
ATOM     14  N   UNL     1       2.763  -0.602   7.740  0.00  0.00    -0.235 NA
ATOM     15  C   UNL     1       1.720   0.076   8.284  0.00  0.00    +0.090 A 
ATOM     16  C   UNL     1       1.050   0.669   7.221  0.00  0.00    +0.084 A 
ATOM     17  C   UNL     1      -0.094   1.466   7.344  0.00  0.00    +0.047 A 
ATOM     18  C   UNL     1      -0.570   1.675   8.636  0.00  0.00    +0.041 A 
ATOM     19  C   UNL     1       0.101   1.077   9.720  0.00  0.00    +0.026 A 
ATOM     20  C   UNL     1       1.217   0.293   9.570  0.00  0.00    +0.032 A 
ENDROOT
BRANCH   1  22
ATOM     21  C   UNL     1      -3.347   2.955  10.682  0.00  0.00    +0.024 C 
ATOM     22  C   UNL     1      -2.073   2.168  10.367  0.00  0.00    +0.102 C 
ENDBRANCH   1  22
BRANCH   8  23
ATOM     23  O   UNL     1      -0.242   2.191   1.240  0.00  0.00    -0.495 OA
ATOM     24  C   UNL     1       0.481   1.810   0.068  0.00  0.00    +0.277 C 
ENDBRANCH   8  23
TORSDOF 2
