REMARK  Name = ZINC20734173
REMARK  8 active torsions:
REMARK  status: ('A' for Active; 'I' for Inactive)
REMARK    1  A    between atoms: C_1  and  S_2
REMARK    2  A    between atoms: S_2  and  C_3
REMARK    3  A    between atoms: C_3  and  C_4
REMARK    4  A    between atoms: C_4  and  C_5
REMARK    5  A    between atoms: C_5  and  C_7
REMARK    6  A    between atoms: C_5  and  N_20
REMARK    7  A    between atoms: C_7  and  N_9
REMARK    8  A    between atoms: C_21  and  C_23
REMARK                            x       y       z     vdW  Elec       q    Type
REMARK                         _______ _______ _______ _____ _____    ______ ____
ROOT
ATOM      1  C   UNL     1       1.774  -2.325   2.917  0.00  0.00    +0.162 C 
ENDROOT
BRANCH   1   2
ATOM      2  N   UNL     1       1.016  -1.890   4.093  0.00  0.00    -0.297 N 
ATOM      3  C   UNL     1       1.137  -0.625   4.543  0.00  0.00    +0.280 C 
ATOM      4  O   UNL     1       1.876   0.155   3.973  0.00  0.00    -0.267 OA
ATOM      5  H   UNL     1       0.427  -2.512   4.548  0.00  0.00    +0.150 HD
BRANCH   3   6
ATOM      6  C   UNL     1       0.377  -0.189   5.723  0.00  0.00    +0.190 A 
ATOM      7  C   UNL     1       0.415   1.057   6.261  0.00  0.00    +0.063 A 
ATOM      8  C   UNL     1      -0.490   1.031   7.409  0.00  0.00    +0.021 A 
ATOM      9  C   UNL     1      -0.885   1.976   8.359  0.00  0.00    +0.011 A 
ATOM     10  C   UNL     1      -1.775   1.625   9.334  0.00  0.00    +0.001 A 
ATOM     11  C   UNL     1      -2.289   0.336   9.386  0.00  0.00    +0.004 A 
ATOM     12  C   UNL     1      -1.912  -0.611   8.458  0.00  0.00    +0.047 A 
ATOM     13  C   UNL     1      -1.008  -0.276   7.456  0.00  0.00    +0.136 A 
ATOM     14  O   UNL     1      -0.469  -0.965   6.432  0.00  0.00    -0.450 OA
ENDBRANCH   3   6
ENDBRANCH   1   2
BRANCH   1  15
ATOM     15  C   UNL     1       1.970  -3.818   2.970  0.00  0.00    +0.259 C 
ATOM     16  O   UNL     1       1.518  -4.458   3.900  0.00  0.00    -0.272 OA
BRANCH  15  17
ATOM     17  N   UNL     1       2.635  -4.436   1.998  0.00  0.00    -0.145 NA
ATOM     18  C   UNL     1       2.898  -5.737   2.095  0.00  0.00    +0.198 A 
ATOM     19  N   UNL     1       2.442  -6.561   3.075  0.00  0.00    -0.326 N 
ATOM     20  H   UNL     1       1.874  -6.301   3.817  0.00  0.00    +0.169 HD
ATOM     21  C   UNL     1       2.930  -7.840   2.830  0.00  0.00    +0.065 A 
ATOM     22  C   UNL     1       2.787  -9.051   3.492  0.00  0.00    +0.028 A 
ATOM     23  C   UNL     1       3.405 -10.183   2.998  0.00  0.00    +0.002 A 
ATOM     24  C   UNL     1       4.169 -10.114   1.845  0.00  0.00    +0.002 A 
ATOM     25  C   UNL     1       4.318  -8.914   1.179  0.00  0.00    +0.028 A 
ATOM     26  C   UNL     1       3.700  -7.771   1.667  0.00  0.00    +0.065 A 
ATOM     27  N   UNL     1       3.659  -6.452   1.227  0.00  0.00    -0.326 N 
ATOM     28  H   UNL     1       4.101  -6.103   0.437  0.00  0.00    +0.169 HD
ENDBRANCH  15  17
ENDBRANCH   1  15
BRANCH   1  29
ATOM     29  C   UNL     1       1.004  -1.955   1.648  0.00  0.00    +0.042 C 
BRANCH  29  30
ATOM     30  C   UNL     1       0.914  -0.432   1.532  0.00  0.00    +0.071 C 
BRANCH  30  32
ATOM     31  C   UNL     1      -0.017   1.820   0.037  0.00  0.00    +0.084 C 
ATOM     32  S   UNL     1       0.001   0.006   0.027  0.00  0.00    -0.164 S 
ENDBRANCH  30  32
ENDBRANCH  29  30
ENDBRANCH   1  29
TORSDOF 7
