REMARK  Name = ZINC20581300
REMARK  3 active torsions:
REMARK  status: ('A' for Active; 'I' for Inactive)
REMARK    1  A    between atoms: C_1  and  C_2
REMARK    2  A    between atoms: C_7  and  N_12
REMARK    3  A    between atoms: C_9  and  C_11
REMARK                            x       y       z     vdW  Elec       q    Type
REMARK                         _______ _______ _______ _____ _____    ______ ____
ROOT
ATOM      1  C   UNL     1       2.510  -1.158   5.360  0.00  0.00    +0.008 C 
ATOM      2  C   UNL     1       1.287  -0.536   4.682  0.00  0.00    -0.009 C 
ATOM      3  C   UNL     1       0.018  -0.986   5.407  0.00  0.00    +0.004 C 
ATOM      4  C   UNL     1      -1.205  -0.365   4.729  0.00  0.00    +0.002 C 
ATOM      5  C   UNL     1      -1.264  -0.818   3.269  0.00  0.00    +0.025 C 
ATOM      6  C   UNL     1       0.006  -0.368   2.544  0.00  0.00    +0.092 C 
ATOM      7  C   UNL     1       1.228  -0.990   3.222  0.00  0.00    +0.012 C 
ATOM      8  C   UNL     1       1.122  -2.515   3.166  0.00  0.00    +0.010 C 
ENDROOT
BRANCH   6   9
ATOM      9  N   UNL     1      -0.051  -0.803   1.146  0.00  0.00    -0.323 N 
ATOM     10  C   UNL     1      -0.281  -2.083   0.695  0.00  0.00    +0.106 A 
ATOM     11  C   UNL     1      -0.249  -2.037  -0.648  0.00  0.00    +0.102 A 
ATOM     12  N   UNL     1      -0.012  -0.769  -1.022  0.00  0.00    -0.340 N 
ATOM     13  C   UNL     1       0.115  -0.017   0.046  0.00  0.00    +0.158 A 
ATOM     14  S   UNL     1       0.438   1.715   0.057  0.00  0.00    -0.013 S 
ATOM     15  H   UNL     1       0.047  -0.512  -2.091  0.00  0.00    +0.167 HD
ENDBRANCH   6   9
TORSDOF 1
