REMARK  Name = ZINC02046962
REMARK  0 active torsions:
REMARK  status: ('A' for Active; 'I' for Inactive)
REMARK                            x       y       z     vdW  Elec       q    Type
REMARK                         _______ _______ _______ _____ _____    ______ ____
ROOT
ATOM      1  C   UNL     1       2.120   0.681  -0.015  0.00  0.00    +0.119 A 
ATOM      2  C   UNL     1       1.337  -0.423  -0.013  0.00  0.00    +0.051 A 
ATOM      3  C   UNL     1       0.002  -0.004   0.002  0.00  0.00    +0.148 A 
ATOM      4  N   UNL     1      -0.016   1.304   0.009  0.00  0.00    -0.181 NA
ATOM      5  N   UNL     1       1.309   1.760  -0.001  0.00  0.00    -0.284 N 
ATOM      6  H   UNL     1       1.602   2.716   0.001  0.00  0.00    +0.188 HD
ATOM      7  I   UNL     1       2.006  -2.408  -0.029  0.00  0.00    -0.041 I 
ENDROOT
TORSDOF 0
