REMARK  Name = ZINC22398482
REMARK  14 active torsions:
REMARK  status: ('A' for Active; 'I' for Inactive)
REMARK    1  A    between atoms: C_1  and  C_2
REMARK    2  A    between atoms: C_2  and  C_3
REMARK    3  A    between atoms: C_2  and  C_4
REMARK    4  A    between atoms: C_4  and  C_5
REMARK    5  A    between atoms: C_5  and  C_7
REMARK    6  A    between atoms: C_5  and  N_15
REMARK    7  A    between atoms: C_10  and  O_13
REMARK    8  A    between atoms: O_13  and  C_14
REMARK    9  A    between atoms: C_16  and  C_18
REMARK   10  A    between atoms: C_18  and  N_19
REMARK   11  A    between atoms: N_19  and  C_20
REMARK   12  A    between atoms: N_19  and  S_34
REMARK   13  A    between atoms: C_23  and  C_26
REMARK   14  A    between atoms: S_34  and  C_37
REMARK                            x       y       z     vdW  Elec       q    Type
REMARK                         _______ _______ _______ _____ _____    ______ ____
ROOT
ATOM      1  N   UNL     1      -5.152   4.473   0.670  0.00  0.00    -0.199 N 
ENDROOT
BRANCH   1   2
ATOM      2  C   UNL     1      -4.071   3.601   0.728  0.00  0.00    +0.051 A 
ATOM      3  C   UNL     1      -2.822   4.068   1.130  0.00  0.00    +0.025 A 
ATOM      4  C   UNL     1      -1.750   3.207   1.188  0.00  0.00    +0.015 A 
ATOM      5  C   UNL     1      -1.916   1.863   0.844  0.00  0.00    +0.037 A 
ATOM      6  C   UNL     1      -3.170   1.398   0.436  0.00  0.00    +0.015 A 
ATOM      7  C   UNL     1      -4.239   2.262   0.385  0.00  0.00    +0.025 A 
BRANCH   5   8
ATOM      8  C   UNL     1      -0.769   0.937   0.906  0.00  0.00    +0.247 C 
ATOM      9  O   UNL     1       0.087   1.086   1.757  0.00  0.00    -0.270 OA
ATOM     10  N   UNL     1      -0.672  -0.077   0.023  0.00  0.00    -0.293 N 
ATOM     11  C   UNL     1      -1.735  -0.325  -0.964  0.00  0.00    +0.136 C 
ATOM     12  C   UNL     1      -1.084  -0.440  -2.351  0.00  0.00    +0.179 C 
ATOM     13  O   UNL     1      -0.030  -1.405  -2.296  0.00  0.00    -0.377 OA
ATOM     14  C   UNL     1       1.037  -1.058  -1.411  0.00  0.00    +0.179 C 
ATOM     15  C   UNL     1       0.496  -0.971   0.021  0.00  0.00    +0.136 C 
ENDBRANCH   5   8
ENDBRANCH   1   2
BRANCH   1  16
ATOM     16  S   UNL     1      -6.484   4.205   1.616  0.00  0.00    +0.043 S 
ATOM     17  O   UNL     1      -7.533   4.918   0.975  0.00  0.00    -0.155 OA
ATOM     18  O   UNL     1      -6.550   2.793   1.758  0.00  0.00    -0.155 OA
ATOM     19  C   UNL     1      -6.087   4.976   3.209  0.00  0.00    +0.218 C 
ENDBRANCH   1  16
BRANCH   1  20
ATOM     20  C   UNL     1      -5.112   5.630  -0.229  0.00  0.00    +0.226 C 
BRANCH  20  22
ATOM     21  N   UNL     1      -5.605   6.117  -2.604  0.00  0.00    -0.307 N 
ATOM     22  C   UNL     1      -5.561   5.212  -1.606  0.00  0.00    +0.233 C 
ATOM     23  O   UNL     1      -5.881   4.061  -1.816  0.00  0.00    -0.274 OA
ATOM     24  H   UNL     1      -5.237   7.140  -2.435  0.00  0.00    +0.149 HD
BRANCH  21  25
ATOM     25  C   UNL     1      -6.143   5.738  -3.913  0.00  0.00    +0.103 C 
BRANCH  25  26
ATOM     26  C   UNL     1      -5.503   6.585  -4.983  0.00  0.00    -0.027 A 
ATOM     27  C   UNL     1      -5.280   7.930  -4.757  0.00  0.00    +0.009 A 
ATOM     28  C   UNL     1      -4.689   8.707  -5.734  0.00  0.00    +0.046 A 
ATOM     29  C   UNL     1      -4.330   8.139  -6.947  0.00  0.00    +0.120 A 
ATOM     30  C   UNL     1      -4.559   6.790  -7.174  0.00  0.00    +0.046 A 
ATOM     31  C   UNL     1      -5.145   6.016  -6.191  0.00  0.00    +0.009 A 
BRANCH  29  32
ATOM     32  O   UNL     1      -3.754   8.903  -7.912  0.00  0.00    -0.495 OA
ATOM     33  C   UNL     1      -3.547  10.284  -7.610  0.00  0.00    +0.277 C 
ENDBRANCH  29  32
ENDBRANCH  25  26
BRANCH  25  34
ATOM     34  C   UNL     1      -7.657   5.958  -3.925  0.00  0.00    +0.030 C 
BRANCH  34  36
ATOM     35  C   UNL     1      -8.050   3.915  -5.308  0.00  0.00    +0.007 C 
ATOM     36  C   UNL     1      -8.238   5.432  -5.239  0.00  0.00    -0.015 C 
ATOM     37  C   UNL     1      -9.729   5.765  -5.307  0.00  0.00    +0.007 C 
ENDBRANCH  34  36
ENDBRANCH  25  34
ENDBRANCH  21  25
ENDBRANCH  20  22
ENDBRANCH   1  20
TORSDOF 10
