REMARK  Name = ZINC62716619
REMARK  2 active torsions:
REMARK  status: ('A' for Active; 'I' for Inactive)
REMARK    1  A    between atoms: C_1  and  N_2
REMARK    2  A    between atoms: C_5  and  C_8
REMARK                            x       y       z     vdW  Elec       q    Type
REMARK                         _______ _______ _______ _____ _____    ______ ____
ROOT
ATOM      1  C   UNL     1       1.671  -3.686   2.708  0.00  0.00    +0.038 C 
ATOM      2  C   UNL     1       1.270  -4.746   1.977  0.00  0.00    +0.022 C 
ATOM      3  C   UNL     1       1.582  -6.094   2.486  0.00  0.00    +0.019 A 
ATOM      4  C   UNL     1       1.517  -7.216   1.662  0.00  0.00    +0.031 A 
ATOM      5  C   UNL     1       1.819  -8.460   2.182  0.00  0.00    +0.042 A 
ATOM      6  C   UNL     1       2.183  -8.592   3.512  0.00  0.00    +0.023 A 
ATOM      7  C   UNL     1       2.251  -7.484   4.337  0.00  0.00    +0.048 A 
ATOM      8  C   UNL     1       1.953  -6.231   3.833  0.00  0.00    +0.128 A 
ATOM      9  O   UNL     1       2.010  -5.124   4.615  0.00  0.00    -0.487 OA
ATOM     10  C   UNL     1       2.429  -3.906   3.991  0.00  0.00    +0.268 C 
ATOM     11 CL   UNL     1       1.740  -9.864   1.164  0.00  0.00    -0.084 Cl
ENDROOT
BRANCH   1  16
ATOM     12  C   UNL     1      -0.018   1.461   0.010  0.00  0.00    +0.130 C 
ATOM     13  N   UNL     1       0.002  -0.004   0.002  0.00  0.00    -0.300 N 
ATOM     14  C   UNL     1       0.616  -0.688   1.023  0.00  0.00    +0.314 A 
ATOM     15  N   UNL     1       0.706  -1.993   1.128  0.00  0.00    -0.174 NA
ATOM     16  C   UNL     1       1.373  -2.317   2.251  0.00  0.00    +0.203 A 
ATOM     17  N   UNL     1       1.714  -1.211   2.873  0.00  0.00    -0.054 NA
ATOM     18  O   UNL     1       1.232  -0.136   2.081  0.00  0.00    -0.317 OA
ATOM     19  H   UNL     1      -0.418  -0.491  -0.724  0.00  0.00    +0.150 HD
ENDBRANCH   1  16
TORSDOF 1
