REMARK  Name = ZINC45115028
REMARK  8 active torsions:
REMARK  status: ('A' for Active; 'I' for Inactive)
REMARK    1  A    between atoms: C_1  and  C_2
REMARK    2  A    between atoms: C_3  and  N_18
REMARK    3  A    between atoms: C_4  and  C_17
REMARK    4  A    between atoms: N_5  and  C_7
REMARK    5  A    between atoms: C_7  and  C_8
REMARK    6  A    between atoms: N_10  and  C_11
REMARK    7  A    between atoms: C_14  and  C_15
REMARK    8  A    between atoms: C_14  and  C_16
REMARK                            x       y       z     vdW  Elec       q    Type
REMARK                         _______ _______ _______ _____ _____    ______ ____
ROOT
ATOM      1  C   UNL     1      -0.018   1.503   0.010  0.00  0.00    +0.069 C 
ATOM      2  C   UNL     1       0.002  -0.004   0.002  0.00  0.00    +0.081 A 
ATOM      3  C   UNL     1       0.008  -0.818  -1.139  0.00  0.00    +0.068 A 
ATOM      4  C   UNL     1       0.027  -2.111  -0.728  0.00  0.00    +0.058 A 
ATOM      5  N   UNL     1       0.034  -2.109   0.631  0.00  0.00    -0.258 N 
ATOM      6  N   UNL     1       0.023  -0.775   1.059  0.00  0.00    -0.174 NA
ATOM      7  C   UNL     1       0.040  -3.329  -1.617  0.00  0.00    +0.067 C 
ENDROOT
BRANCH   3   8
ATOM      8  N   UNL     1      -0.005  -0.373  -2.475  0.00  0.00    -0.355 N 
ATOM      9  H   UNL     1      -0.018   0.577  -2.670  0.00  0.00    +0.142 HD
ATOM     10  H   UNL     1       0.001  -1.017  -3.201  0.00  0.00    +0.142 HD
ENDBRANCH   3   8
BRANCH   5  11
ATOM     11  C   UNL     1       0.053  -3.292   1.496  0.00  0.00    +0.239 C 
BRANCH  11  12
ATOM     12  C   UNL     1       1.481  -3.678   1.786  0.00  0.00    +0.235 C 
ATOM     13  O   UNL     1       2.392  -3.030   1.316  0.00  0.00    -0.274 OA
ATOM     14  N   UNL     1       1.745  -4.745   2.566  0.00  0.00    -0.310 N 
ATOM     15  H   UNL     1       1.017  -5.264   2.942  0.00  0.00    +0.149 HD
BRANCH  14  16
ATOM     16  C   UNL     1       3.133  -5.120   2.848  0.00  0.00    +0.079 C 
ATOM     17  C   UNL     1       3.484  -5.498   4.288  0.00  0.00    +0.031 C 
ATOM     18  C   UNL     1       3.410  -6.581   3.209  0.00  0.00    -0.015 C 
ATOM     19  C   UNL     1       2.217  -7.538   3.248  0.00  0.00    +0.013 C 
ATOM     20  C   UNL     1       4.729  -7.189   2.728  0.00  0.00    +0.013 C 
ENDBRANCH  14  16
ENDBRANCH  11  12
ENDBRANCH   5  11
TORSDOF 4
