REMARK  Name = ZINC29565605
REMARK  8 active torsions:
REMARK  status: ('A' for Active; 'I' for Inactive)
REMARK    1  A    between atoms: C_1  and  C_2
REMARK    2  A    between atoms: C_2  and  N_3
REMARK    3  A    between atoms: N_3  and  C_4
REMARK    4  A    between atoms: C_4  and  C_5
REMARK    5  A    between atoms: C_13  and  C_25
REMARK    6  A    between atoms: C_15  and  C_17
REMARK    7  A    between atoms: C_20  and  O_24
REMARK    8  A    between atoms: C_21  and  C_23
REMARK                            x       y       z     vdW  Elec       q    Type
REMARK                         _______ _______ _______ _____ _____    ______ ____
ROOT
ATOM      1  N   UNL     1       2.921   0.865  -1.403  0.00  0.00    -0.313 N 
ATOM      2  C   UNL     1       2.554  -0.303  -2.062  0.00  0.00    +0.100 A 
ATOM      3  C   UNL     1       1.705  -1.207  -1.434  0.00  0.00    +0.050 A 
ATOM      4  C   UNL     1       1.342  -2.376  -2.103  0.00  0.00    -0.013 A 
ATOM      5  C   UNL     1       1.851  -2.593  -3.386  0.00  0.00    +0.034 A 
ATOM      6  C   UNL     1       2.695  -1.642  -3.947  0.00  0.00    +0.048 A 
ATOM      7  N   UNL     1       3.013  -0.538  -3.280  0.00  0.00    -0.343 N 
ATOM      8  H   UNL     1       3.677   0.191  -3.768  0.00  0.00    +0.167 HD
ENDROOT
BRANCH   6   9
ATOM      9  C   UNL     1       3.242  -1.859  -5.308  0.00  0.00    -0.001 A 
ATOM     10  C   UNL     1       2.829  -2.959  -6.060  0.00  0.00    +0.013 A 
ATOM     11  C   UNL     1       3.339  -3.158  -7.325  0.00  0.00    +0.046 A 
ATOM     12  C   UNL     1       4.263  -2.265  -7.851  0.00  0.00    +0.120 A 
ATOM     13  C   UNL     1       4.676  -1.170  -7.105  0.00  0.00    -0.008 A 
ATOM     14  C   UNL     1       4.166  -0.962  -5.841  0.00  0.00    +0.017 A 
ATOM     15  C   UNL     1       5.679  -0.203  -7.680  0.00  0.00    +0.047 C 
BRANCH  12  16
ATOM     16  O   UNL     1       4.764  -2.465  -9.098  0.00  0.00    -0.507 OA
ATOM     17  H   UNL     1       5.496  -1.758  -9.516  0.00  0.00    +0.292 HD
ENDBRANCH  12  16
ENDBRANCH   6   9
BRANCH   4  18
ATOM     18  C   UNL     1       0.437  -3.366  -1.467  0.00  0.00    -0.018 A 
ATOM     19  C   UNL     1      -0.059  -3.138  -0.185  0.00  0.00    +0.008 A 
ATOM     20  C   UNL     1      -0.905  -4.058   0.399  0.00  0.00    +0.001 A 
ATOM     21  C   UNL     1      -1.252  -5.212  -0.281  0.00  0.00    +0.000 A 
ATOM     22  C   UNL     1      -0.759  -5.446  -1.552  0.00  0.00    +0.001 A 
ATOM     23  C   UNL     1       0.083  -4.529  -2.148  0.00  0.00    +0.008 A 
ENDBRANCH   4  18
BRANCH   1  25
ATOM     24  C   UNL     1       5.212   1.584  -1.872  0.00  0.00    +0.024 C 
ATOM     25  C   UNL     1       3.726   1.874  -2.096  0.00  0.00    +0.103 C 
ENDBRANCH   1  25
BRANCH   1  26
ATOM     26  C   UNL     1       2.504   1.086  -0.017  0.00  0.00    +0.141 C 
BRANCH  26  27
ATOM     27  C   UNL     1       1.173   1.794   0.001  0.00  0.00    -0.027 A 
ATOM     28  C   UNL     1      -0.013   1.076   0.008  0.00  0.00    +0.025 A 
ATOM     29  C   UNL     1      -1.214   1.759   0.017  0.00  0.00    +0.111 A 
ATOM     30  N   UNL     1      -1.240   3.078   0.030  0.00  0.00    -0.263 NA
ATOM     31  C   UNL     1      -0.132   3.793   0.024  0.00  0.00    +0.111 A 
ATOM     32  C   UNL     1       1.106   3.179   0.009  0.00  0.00    +0.025 A 
ENDBRANCH  26  27
ENDBRANCH   1  26
TORSDOF 6
