REMARK  Name = ZINC66981983
REMARK  6 active torsions:
REMARK  status: ('A' for Active; 'I' for Inactive)
REMARK    1  A    between atoms: C_1  and  C_2
REMARK    2  A    between atoms: C_5  and  C_8
REMARK    3  A    between atoms: C_8  and  N_9
REMARK    4  A    between atoms: C_10  and  C_12
REMARK    5  A    between atoms: N_14  and  C_15
REMARK    6  A    between atoms: C_18  and  C_21
REMARK                            x       y       z     vdW  Elec       q    Type
REMARK                         _______ _______ _______ _____ _____    ______ ____
ROOT
ATOM      1  C   UNL     1       3.084  -6.668  -0.590  0.00  0.00    +0.303 C 
ATOM      2  O   UNL     1       3.957  -5.983  -1.081  0.00  0.00    -0.265 OA
ATOM      3  N   UNL     1       3.388  -7.869  -0.059  0.00  0.00    -0.278 N 
ATOM      4  H   UNL     1       2.703  -8.387   0.392  0.00  0.00    +0.155 HD
ENDROOT
BRANCH   3   5
ATOM      5  C   UNL     1       4.687  -8.367  -0.159  0.00  0.00    +0.034 A 
ATOM      6  C   UNL     1       5.771  -7.498  -0.087  0.00  0.00    +0.024 A 
ATOM      7  C   UNL     1       7.056  -7.987  -0.185  0.00  0.00    +0.013 A 
ATOM      8  C   UNL     1       7.269  -9.356  -0.358  0.00  0.00    +0.019 A 
ATOM      9  C   UNL     1       6.179 -10.226  -0.431  0.00  0.00    +0.013 A 
ATOM     10  C   UNL     1       4.897  -9.732  -0.326  0.00  0.00    +0.024 A 
BRANCH   8  11
ATOM     11  C   UNL     1       8.646  -9.884  -0.464  0.00  0.00    +0.164 A 
ATOM     12  N   UNL     1       9.754  -9.267  -0.106  0.00  0.00    -0.129 NA
ATOM     13  N   UNL     1      10.770 -10.025  -0.341  0.00  0.00    -0.134 NA
ATOM     14  C   UNL     1      10.373 -11.150  -0.854  0.00  0.00    +0.134 A 
ATOM     15  N   UNL     1       9.013 -11.102  -0.946  0.00  0.00    -0.311 N 
ATOM     16  C   UNL     1       8.173 -12.176  -1.472  0.00  0.00    +0.125 C 
ATOM     17  C   UNL     1       9.055 -13.145  -2.268  0.00  0.00    +0.022 C 
ATOM     18  C   UNL     1      10.269 -13.545  -1.425  0.00  0.00    +0.009 C 
ATOM     19  C   UNL     1      11.204 -12.333  -1.283  0.00  0.00    +0.076 C 
ENDBRANCH   8  11
ENDBRANCH   3   5
BRANCH   1  21
ATOM     20  N   UNL     1       1.368  -4.979  -1.104  0.00  0.00    -0.303 N 
ATOM     21  C   UNL     1       1.672  -6.180  -0.573  0.00  0.00    +0.300 C 
ATOM     22  O   UNL     1       0.799  -6.865  -0.082  0.00  0.00    -0.265 OA
ATOM     23  H   UNL     1       2.066  -4.431  -1.497  0.00  0.00    +0.149 HD
BRANCH  20  24
ATOM     24  C   UNL     1      -0.016  -4.500  -1.088  0.00  0.00    +0.140 C 
BRANCH  24  29
ATOM     25  C   UNL     1      -0.286   0.708  -3.577  0.00  0.00    +0.044 C 
ATOM     26  C   UNL     1      -0.216  -0.650  -2.928  0.00  0.00    -0.050 A 
ATOM     27  C   UNL     1      -0.374  -1.791  -3.693  0.00  0.00    +0.003 A 
ATOM     28  C   UNL     1      -0.309  -3.037  -3.097  0.00  0.00    +0.005 A 
ATOM     29  C   UNL     1      -0.086  -3.142  -1.737  0.00  0.00    -0.030 A 
ATOM     30  C   UNL     1       0.073  -2.001  -0.973  0.00  0.00    +0.005 A 
ATOM     31  C   UNL     1       0.013  -0.755  -1.569  0.00  0.00    +0.003 A 
ENDBRANCH  24  29
ENDBRANCH  20  24
ENDBRANCH   1  21
TORSDOF 5
