REMARK  Name = ZINC35175226
REMARK  4 active torsions:
REMARK  status: ('A' for Active; 'I' for Inactive)
REMARK    1  A    between atoms: C_1  and  C_2
REMARK    2  A    between atoms: C_3  and  S_9
REMARK    3  A    between atoms: C_4  and  C_8
REMARK    4  A    between atoms: S_9  and  N_12
REMARK                            x       y       z     vdW  Elec       q    Type
REMARK                         _______ _______ _______ _____ _____    ______ ____
ROOT
ATOM      1  S   UNL     1       0.341  -0.422  -2.727  0.00  0.00    +0.065 S 
ATOM      2  O   UNL     1      -0.058  -1.323  -3.750  0.00  0.00    -0.153 OA
ATOM      3  O   UNL     1      -0.252   0.859  -2.565  0.00  0.00    -0.153 OA
ENDROOT
BRANCH   1   4
ATOM      4  N   UNL     1       1.966  -0.169  -2.925  0.00  0.00    -0.173 NA
ATOM      5  C   UNL     1       2.575   1.128  -2.593  0.00  0.00    +0.110 C 
ATOM      6  C   UNL     1       3.366   1.635  -3.802  0.00  0.00    +0.017 C 
ATOM      7  C   UNL     1       4.362   0.562  -4.254  0.00  0.00    +0.006 C 
ATOM      8  C   UNL     1       3.596  -0.697  -4.655  0.00  0.00    +0.008 C 
ATOM      9  C   UNL     1       2.837  -1.235  -3.432  0.00  0.00    +0.083 C 
ATOM     10  C   UNL     1       2.012  -2.451  -3.848  0.00  0.00    +0.021 C 
ATOM     11  C   UNL     1       2.956  -3.542  -4.364  0.00  0.00    +0.002 C 
ATOM     12  C   UNL     1       3.749  -3.018  -5.561  0.00  0.00    +0.000 C 
ATOM     13  C   UNL     1       4.555  -1.778  -5.152  0.00  0.00    +0.005 C 
ENDBRANCH   1   4
BRANCH   1  16
ATOM     14  C   UNL     1       0.771   0.655   0.347  0.00  0.00    +0.067 C 
ATOM     15  C   UNL     1       0.329  -0.751   0.036  0.00  0.00    +0.060 A 
ATOM     16  C   UNL     1       0.129  -1.271  -1.197  0.00  0.00    +0.148 A 
ATOM     17  C   UNL     1      -0.275  -2.601  -1.044  0.00  0.00    +0.086 A 
ATOM     18  N   UNL     1      -0.317  -2.871   0.236  0.00  0.00    -0.177 NA
ATOM     19  N   UNL     1       0.065  -1.720   0.938  0.00  0.00    -0.280 N 
ATOM     20  H   UNL     1       0.127  -1.634   1.902  0.00  0.00    +0.189 HD
ATOM     21  C   UNL     1      -0.606  -3.558  -2.160  0.00  0.00    +0.069 C 
ENDBRANCH   1  16
TORSDOF 2
