REMARK  Name = ZINC09572962
REMARK  8 active torsions:
REMARK  status: ('A' for Active; 'I' for Inactive)
REMARK    1  A    between atoms: C_1  and  C_2
REMARK    2  A    between atoms: C_6  and  N_8
REMARK    3  A    between atoms: C_9  and  C_29
REMARK    4  A    between atoms: C_12  and  S_13
REMARK    5  A    between atoms: S_13  and  C_14
REMARK    6  A    between atoms: C_14  and  C_15
REMARK    7  A    between atoms: N_17  and  C_18
REMARK    8  A    between atoms: C_19  and  C_26
REMARK                            x       y       z     vdW  Elec       q    Type
REMARK                         _______ _______ _______ _____ _____    ______ ____
ROOT
ATOM      1  C   UNL     1       2.010   7.072  -4.584  0.00  0.00    +0.228 C 
ATOM      2  O   UNL     1       2.223   5.963  -5.024  0.00  0.00    -0.275 OA
ATOM      3  N   UNL     1       2.329   8.159  -5.314  0.00  0.00    -0.279 N 
ATOM      4  H   UNL     1       2.159   9.047  -4.962  0.00  0.00    +0.155 HD
ENDROOT
BRANCH   3   5
ATOM      5  C   UNL     1       2.902   8.009  -6.568  0.00  0.00    +0.084 A 
ATOM      6  C   UNL     1       3.290   8.993  -7.460  0.00  0.00    +0.068 A 
ATOM      7  C   UNL     1       3.878   8.564  -8.728  0.00  0.00    -0.023 A 
ATOM      8  C   UNL     1       3.969   7.232  -8.894  0.00  0.00    -0.004 A 
ATOM      9  S   UNL     1       3.297   6.544  -7.401  0.00  0.00    -0.077 S 
ATOM     10  C   UNL     1       4.580   6.869 -10.220  0.00  0.00    +0.043 C 
ATOM     11  C   UNL     1       5.266   8.166 -10.701  0.00  0.00    +0.010 C 
ATOM     12  C   UNL     1       4.437   9.246  -9.977  0.00  0.00    +0.037 C 
BRANCH   6  13
ATOM     13  C   UNL     1       3.122  10.415  -7.143  0.00  0.00    +0.244 C 
ATOM     14  O   UNL     1       4.012  11.021  -6.576  0.00  0.00    -0.270 OA
ATOM     15  N   UNL     1       1.982  11.050  -7.480  0.00  0.00    -0.325 N 
ATOM     16  H   UNL     1       1.273  10.567  -7.932  0.00  0.00    +0.145 HD
ATOM     17  H   UNL     1       1.871  11.991  -7.271  0.00  0.00    +0.145 HD
ENDBRANCH   6  13
ENDBRANCH   3   5
BRANCH   1  18
ATOM     18  C   UNL     1       1.388   7.236  -3.221  0.00  0.00    +0.173 C 
BRANCH  18  19
ATOM     19  S   UNL     1       1.078   5.606  -2.499  0.00  0.00    -0.076 S 
BRANCH  19  24
ATOM     20  N   UNL     1      -0.069   5.245   0.030  0.00  0.00    -0.274 N 
ATOM     21  C   UNL     1      -0.537   6.061   1.026  0.00  0.00    +0.135 A 
ATOM     22  N   UNL     1      -0.365   7.291   0.631  0.00  0.00    -0.133 NA
ATOM     23  N   UNL     1       0.167   7.310  -0.538  0.00  0.00    -0.122 NA
ATOM     24  C   UNL     1       0.371   6.083  -0.958  0.00  0.00    +0.197 A 
ATOM     25  C   UNL     1      -1.137   5.618   2.335  0.00  0.00    +0.088 C 
BRANCH  20  31
ATOM     26  C   UNL     1       2.490   1.044  -0.016  0.00  0.00    +0.044 C 
ATOM     27  C   UNL     1       1.176   1.782   0.000  0.00  0.00    -0.048 A 
ATOM     28  C   UNL     1      -0.013   1.076   0.008  0.00  0.00    +0.003 A 
ATOM     29  C   UNL     1      -1.220   1.749   0.017  0.00  0.00    +0.002 A 
ATOM     30  C   UNL     1      -1.242   3.131   0.030  0.00  0.00    +0.026 A 
ATOM     31  C   UNL     1      -0.050   3.842   0.022  0.00  0.00    +0.050 A 
ATOM     32  C   UNL     1       1.161   3.163   0.007  0.00  0.00    +0.029 A 
ENDBRANCH  20  31
ENDBRANCH  19  24
ENDBRANCH  18  19
ENDBRANCH   1  18
TORSDOF 6
