REMARK  Name = ZINC19818248
REMARK  12 active torsions:
REMARK  status: ('A' for Active; 'I' for Inactive)
REMARK    1  A    between atoms: C_1  and  C_2
REMARK    2  A    between atoms: C_2  and  O_3
REMARK    3  A    between atoms: O_3  and  C_4
REMARK    4  A    between atoms: C_4  and  C_6
REMARK    5  A    between atoms: C_7  and  C_25
REMARK    6  A    between atoms: N_8  and  C_24
REMARK    7  A    between atoms: C_11  and  C_16
REMARK    8  A    between atoms: C_12  and  O_15
REMARK    9  A    between atoms: C_16  and  N_17
REMARK   10  A    between atoms: N_20  and  C_23
REMARK   11  A    between atoms: C_25  and  S_26
REMARK   12  A    between atoms: S_26  and  C_27
REMARK                            x       y       z     vdW  Elec       q    Type
REMARK                         _______ _______ _______ _____ _____    ______ ____
ROOT
ATOM      1  C   UNL     1       1.074  -2.003  -2.195  0.00  0.00    +0.089 A 
ATOM      2  C   UNL     1       2.423  -2.193  -2.116  0.00  0.00    +0.044 A 
ATOM      3  N   UNL     1       2.881  -2.713  -3.279  0.00  0.00    -0.345 N 
ATOM      4  C   UNL     1       1.843  -2.885  -4.173  0.00  0.00    +0.050 A 
ATOM      5  C   UNL     1       0.666  -2.456  -3.538  0.00  0.00    +0.022 A 
ATOM      6  C   UNL     1      -0.553  -2.520  -4.207  0.00  0.00    +0.018 A 
ATOM      7  C   UNL     1      -0.599  -3.011  -5.499  0.00  0.00    +0.122 A 
ATOM      8  C   UNL     1       0.567  -3.439  -6.126  0.00  0.00    +0.048 A 
ATOM      9  C   UNL     1       1.779  -3.372  -5.474  0.00  0.00    +0.030 A 
ATOM     10  C   UNL     1       4.282  -3.046  -3.551  0.00  0.00    +0.149 C 
ENDROOT
BRANCH   1  11
ATOM     11  C   UNL     1       0.201  -1.460  -1.149  0.00  0.00    +0.342 C 
ATOM     12  O   UNL     1      -0.269  -2.199  -0.305  0.00  0.00    -0.245 OA
BRANCH  11  13
ATOM     13  O   UNL     1      -0.080  -0.141  -1.122  0.00  0.00    -0.461 OA
BRANCH  13  15
ATOM     14  C   UNL     1      -1.104   1.835  -0.181  0.00  0.00    +0.048 C 
ATOM     15  C   UNL     1      -0.844   0.337  -0.013  0.00  0.00    +0.229 C 
ENDBRANCH  13  15
ENDBRANCH  11  13
ENDBRANCH   1  11
BRANCH   7  16
ATOM     16  O   UNL     1      -1.787  -3.076  -6.158  0.00  0.00    -0.506 OA
ATOM     17  H   UNL     1      -2.000  -2.280  -6.663  0.00  0.00    +0.292 HD
ENDBRANCH   7  16
BRANCH   6  18
ATOM     18  C   UNL     1      -1.816  -2.058  -3.527  0.00  0.00    +0.123 C 
BRANCH  18  19
ATOM     19  N   UNL     1      -2.354  -3.146  -2.700  0.00  0.00    -0.302 NA
ATOM     20  C   UNL     1      -2.926  -4.210  -3.536  0.00  0.00    +0.066 C 
ATOM     21  C   UNL     1      -3.420  -5.349  -2.641  0.00  0.00    -0.064 C 
ATOM     22  N   UNL     1      -4.434  -4.835  -1.711  0.00  0.00    +0.379 N 
ATOM     23  C   UNL     1      -3.841  -3.791  -0.866  0.00  0.00    -0.064 C 
ATOM     24  C   UNL     1      -3.351  -2.639  -1.746  0.00  0.00    +0.066 C 
ATOM     25  C   UNL     1      -4.920  -5.932  -0.864  0.00  0.00    -0.096 C 
ATOM     26  H   UNL     1      -5.204  -4.448  -2.234  0.00  0.00    -0.082 HD
ENDBRANCH  18  19
ENDBRANCH   6  18
BRANCH   2  27
ATOM     27  C   UNL     1       3.275  -1.873  -0.915  0.00  0.00    +0.128 C 
BRANCH  27  28
ATOM     28  S   UNL     1       3.875  -0.166  -1.036  0.00  0.00    -0.119 S 
BRANCH  28  29
ATOM     29  C   UNL     1       4.841   0.052   0.421  0.00  0.00    +0.008 A 
ATOM     30  C   UNL     1       4.981  -0.994   1.326  0.00  0.00    +0.015 A 
ATOM     31  C   UNL     1       5.739  -0.820   2.467  0.00  0.00    +0.001 A 
ATOM     32  C   UNL     1       6.357   0.393   2.711  0.00  0.00    +0.000 A 
ATOM     33  C   UNL     1       6.219   1.436   1.813  0.00  0.00    +0.001 A 
ATOM     34  C   UNL     1       5.468   1.267   0.666  0.00  0.00    +0.015 A 
ENDBRANCH  28  29
ENDBRANCH  27  28
ENDBRANCH   2  27
TORSDOF 9
