REMARK  Name = ZINC03125404
REMARK  10 active torsions:
REMARK  status: ('A' for Active; 'I' for Inactive)
REMARK    1  A    between atoms: C_1  and  C_2
REMARK    2  A    between atoms: C_2  and  N_3
REMARK    3  A    between atoms: C_4  and  C_20
REMARK    4  A    between atoms: C_7  and  S_8
REMARK    5  A    between atoms: S_8  and  C_9
REMARK    6  A    between atoms: C_9  and  C_10
REMARK    7  A    between atoms: C_13  and  C_16
REMARK    8  A    between atoms: C_20  and  N_21
REMARK    9  A    between atoms: N_21  and  S_22
REMARK   10  A    between atoms: S_22  and  C_25
REMARK                            x       y       z     vdW  Elec       q    Type
REMARK                         _______ _______ _______ _____ _____    ______ ____
ROOT
ATOM      1  N   UNL     1      -0.510   2.761  -1.871  0.00  0.00    -0.305 N 
ATOM      2  C   UNL     1      -0.742   1.585  -1.213  0.00  0.00    +0.150 A 
ATOM      3  N   UNL     1      -1.706   0.973  -1.841  0.00  0.00    -0.132 NA
ATOM      4  N   UNL     1      -2.102   1.681  -2.837  0.00  0.00    -0.122 NA
ATOM      5  C   UNL     1      -1.400   2.788  -2.905  0.00  0.00    +0.192 A 
ENDROOT
BRANCH   1   7
ATOM      6  C   UNL     1       1.797   3.474  -2.263  0.00  0.00    +0.027 C 
ATOM      7  C   UNL     1       0.487   3.781  -1.534  0.00  0.00    +0.122 C 
ENDBRANCH   1   7
BRANCH   5   8
ATOM      8  S   UNL     1      -1.574   4.067  -4.105  0.00  0.00    -0.081 S 
BRANCH   8   9
ATOM      9  C   UNL     1      -2.921   3.382  -5.101  0.00  0.00    +0.112 C 
BRANCH   9  10
ATOM     10  C   UNL     1      -3.251   4.334  -6.222  0.00  0.00    -0.037 A 
ATOM     11  C   UNL     1      -4.205   5.317  -6.036  0.00  0.00    +0.005 A 
ATOM     12  C   UNL     1      -4.505   6.193  -7.063  0.00  0.00    +0.012 A 
ATOM     13  C   UNL     1      -3.857   6.080  -8.278  0.00  0.00    +0.055 A 
ATOM     14  C   UNL     1      -2.906   5.095  -8.466  0.00  0.00    +0.012 A 
ATOM     15  C   UNL     1      -2.603   4.221  -7.438  0.00  0.00    +0.005 A 
BRANCH  13  16
ATOM     16  C   UNL     1      -4.187   7.032  -9.399  0.00  0.00    +0.417 C 
ATOM     17  F   UNL     1      -5.227   6.502 -10.170  0.00  0.00    -0.166 F 
ATOM     18  F   UNL     1      -4.583   8.263  -8.864  0.00  0.00    -0.166 F 
ATOM     19  F   UNL     1      -3.057   7.215 -10.203  0.00  0.00    -0.166 F 
ENDBRANCH  13  16
ENDBRANCH   9  10
ENDBRANCH   8   9
ENDBRANCH   5   8
BRANCH   2  20
ATOM     20  C   UNL     1      -0.013   1.086   0.008  0.00  0.00    +0.182 C 
BRANCH  20  21
ATOM     21  N   UNL     1      -0.698   1.558   1.213  0.00  0.00    -0.183 NA
ATOM     22  H   UNL     1      -1.353   2.272   1.151  0.00  0.00    +0.148 HD
BRANCH  21  23
ATOM     23  S   UNL     1      -0.356   0.875   2.682  0.00  0.00    +0.059 S 
ATOM     24  O   UNL     1      -1.151   1.557   3.643  0.00  0.00    -0.153 OA
ATOM     25  O   UNL     1      -0.422  -0.533   2.500  0.00  0.00    -0.153 OA
BRANCH  23  26
ATOM     26  C   UNL     1       1.323   1.256   3.056  0.00  0.00    +0.105 A 
ATOM     27  C   UNL     1       2.331   0.398   2.658  0.00  0.00    +0.029 A 
ATOM     28  C   UNL     1       3.649   0.699   2.947  0.00  0.00    +0.017 A 
ATOM     29  C   UNL     1       3.958   1.854   3.643  0.00  0.00    +0.018 A 
ATOM     30  C   UNL     1       2.948   2.709   4.045  0.00  0.00    +0.017 A 
ATOM     31  C   UNL     1       1.631   2.410   3.752  0.00  0.00    +0.029 A 
ATOM     32 BR   UNL     1       5.760   2.263   4.044  0.00  0.00    -0.050 Br
ENDBRANCH  23  26
ENDBRANCH  21  23
ENDBRANCH  20  21
ENDBRANCH   2  20
TORSDOF 9
