REMARK  Name = ZINC04026512
REMARK  5 active torsions:
REMARK  status: ('A' for Active; 'I' for Inactive)
REMARK    1  A    between atoms: C_1  and  C_2
REMARK    2  A    between atoms: C_2  and  C_20
REMARK    3  A    between atoms: C_20  and  C_21
REMARK    4  A    between atoms: C_21  and  O_23
REMARK    5  A    between atoms: O_23  and  C_24
REMARK                            x       y       z     vdW  Elec       q    Type
REMARK                         _______ _______ _______ _____ _____    ______ ____
ROOT
ATOM      1  C   UNL     1       0.814  -0.529  -1.184  0.00  0.00    +0.042 C 
ATOM      2  C   UNL     1       0.061  -0.002   0.039  0.00  0.00    +0.080 C 
ATOM      3  C   UNL     1       0.765  -0.465   1.313  0.00  0.00    +0.029 C 
ATOM      4  C   UNL     1       0.849  -1.988   1.395  0.00  0.00    +0.011 C 
ATOM      5  C   UNL     1       1.396  -2.356   2.778  0.00  0.00    +0.027 C 
ATOM      6  C   UNL     1       2.578  -1.506   3.135  0.00  0.00    -0.031 C 
ATOM      7  C   UNL     1       2.932  -0.426   2.506  0.00  0.00    -0.027 C 
ATOM      8  C   UNL     1       2.193   0.091   1.313  0.00  0.00    +0.023 C 
ATOM      9  C   UNL     1       2.115   1.618   1.295  0.00  0.00    +0.025 C 
ATOM     10  C   UNL     1       1.386   2.101   2.551  0.00  0.00    +0.006 C 
ATOM     11  C   UNL     1       1.254   3.624   2.515  0.00  0.00    +0.000 C 
ATOM     12  C   UNL     1       0.453   4.036   1.278  0.00  0.00    +0.003 C 
ATOM     13  C   UNL     1       1.181   3.560   0.020  0.00  0.00    +0.032 C 
ATOM     14  C   UNL     1       1.343   2.039   0.038  0.00  0.00    +0.123 C 
ATOM     15  O   UNL     1       0.054   1.431   0.020  0.00  0.00    -0.369 OA
ENDROOT
BRANCH   2  16
ATOM     16  C   UNL     1      -1.377  -0.524   0.022  0.00  0.00    +0.155 C 
BRANCH  16  17
ATOM     17  C   UNL     1      -2.132   0.046   1.196  0.00  0.00    +0.310 C 
ATOM     18  O   UNL     1      -1.615   0.882   1.898  0.00  0.00    -0.251 OA
BRANCH  17  19
ATOM     19  O   UNL     1      -3.378  -0.375   1.460  0.00  0.00    -0.468 OA
ATOM     20  C   UNL     1      -4.045   0.217   2.606  0.00  0.00    +0.280 C 
ENDBRANCH  17  19
ENDBRANCH  16  17
ENDBRANCH   2  16
TORSDOF 3
