REMARK  Name = ZINC67287565
REMARK  6 active torsions:
REMARK  status: ('A' for Active; 'I' for Inactive)
REMARK    1  A    between atoms: C_1  and  N_2
REMARK    2  A    between atoms: N_2  and  C_3
REMARK    3  A    between atoms: C_6  and  C_10
REMARK    4  A    between atoms: C_10  and  N_11
REMARK    5  A    between atoms: N_14  and  C_15
REMARK    6  A    between atoms: C_18  and  N_22
REMARK                            x       y       z     vdW  Elec       q    Type
REMARK                         _______ _______ _______ _____ _____    ______ ____
ROOT
ATOM      1  N   UNL     1      -1.350  -4.766  -2.440  0.00  0.00    -0.295 N 
ATOM      2  C   UNL     1      -1.584  -6.092  -2.490  0.00  0.00    +0.304 C 
ATOM      3  O   UNL     1      -0.653  -6.873  -2.524  0.00  0.00    -0.252 OA
ATOM      4  N   UNL     1      -2.851  -6.552  -2.503  0.00  0.00    -0.269 N 
ATOM      5  H   UNL     1      -2.093  -4.143  -2.414  0.00  0.00    +0.151 HD
ATOM      6  H   UNL     1      -3.593  -5.934  -2.413  0.00  0.00    +0.156 HD
ENDROOT
BRANCH   4   7
ATOM      7  C   UNL     1      -3.096  -7.924  -2.647  0.00  0.00    +0.036 A 
ATOM      8  C   UNL     1      -4.202  -8.360  -3.364  0.00  0.00    +0.025 A 
ATOM      9  C   UNL     1      -4.444  -9.711  -3.506  0.00  0.00    +0.031 A 
ATOM     10  C   UNL     1      -3.582 -10.635  -2.932  0.00  0.00    +0.084 A 
ATOM     11  C   UNL     1      -2.475 -10.200  -2.214  0.00  0.00    +0.068 A 
ATOM     12  C   UNL     1      -2.229  -8.847  -2.078  0.00  0.00    +0.045 A 
ATOM     13 CL   UNL     1      -1.396 -11.355  -1.496  0.00  0.00    -0.081 Cl
BRANCH  10  14
ATOM     14  N   UNL     1      -3.829 -12.009  -3.075  0.00  0.00    -0.238 N 
ATOM     15  C   UNL     1      -4.092 -12.653  -4.234  0.00  0.00    +0.114 A 
ATOM     16  C   UNL     1      -4.270 -13.964  -3.946  0.00  0.00    +0.041 A 
ATOM     17  C   UNL     1      -4.110 -14.127  -2.566  0.00  0.00    +0.135 A 
ATOM     18  N   UNL     1      -3.840 -12.957  -2.044  0.00  0.00    -0.175 NA
ENDBRANCH  10  14
ENDBRANCH   4   7
BRANCH   1  19
ATOM     19  C   UNL     1       0.027  -4.265  -2.426  0.00  0.00    +0.141 C 
BRANCH  19  25
ATOM     20  C   UNL     1      -0.021   1.435   0.095  0.00  0.00    +0.130 C 
ATOM     21  N   UNL     1      -0.003  -0.030   0.073  0.00  0.00    -0.323 N 
ATOM     22  C   UNL     1       0.014  -0.781   1.331  0.00  0.00    +0.130 C 
ATOM     23  C   UNL     1      -0.001  -0.707  -1.140  0.00  0.00    +0.098 A 
ATOM     24  C   UNL     1       0.011  -2.098  -1.154  0.00  0.00    +0.047 A 
ATOM     25  C   UNL     1       0.013  -2.759  -2.369  0.00  0.00    -0.026 A 
ATOM     26  C   UNL     1       0.003  -2.004  -3.534  0.00  0.00    +0.023 A 
ATOM     27  C   UNL     1      -0.009  -0.626  -3.447  0.00  0.00    +0.084 A 
ATOM     28  N   UNL     1      -0.016  -0.022  -2.274  0.00  0.00    -0.350 N 
ATOM     29  H   UNL     1      -0.028   0.947  -2.240  0.00  0.00    +0.166 HD
ENDBRANCH  19  25
ENDBRANCH   1  19
TORSDOF 4
