REMARK  Name = ZINC13122206
REMARK  6 active torsions:
REMARK  status: ('A' for Active; 'I' for Inactive)
REMARK    1  A    between atoms: C_4  and  C_7
REMARK    2  A    between atoms: C_7  and  N_8
REMARK    3  A    between atoms: C_15  and  N_18
REMARK    4  A    between atoms: C_16  and  O_17
REMARK    5  A    between atoms: N_19  and  C_20
REMARK    6  A    between atoms: C_27  and  O_29
REMARK                            x       y       z     vdW  Elec       q    Type
REMARK                         _______ _______ _______ _____ _____    ______ ____
ROOT
ATOM      1  N   UNL     1       4.152  -0.952   1.338  0.00  0.00    -0.306 N 
ATOM      2  C   UNL     1       4.939  -0.090   2.080  0.00  0.00    +0.055 A 
ATOM      3  C   UNL     1       5.507   1.148   1.802  0.00  0.00    +0.026 A 
ATOM      4  C   UNL     1       6.263   1.790   2.760  0.00  0.00    +0.002 A 
ATOM      5  C   UNL     1       6.465   1.212   4.004  0.00  0.00    +0.001 A 
ATOM      6  C   UNL     1       5.910  -0.014   4.299  0.00  0.00    +0.012 A 
ATOM      7  C   UNL     1       5.144  -0.674   3.340  0.00  0.00    +0.031 A 
ATOM      8  C   UNL     1       4.423  -1.960   3.318  0.00  0.00    +0.154 A 
ATOM      9  C   UNL     1       3.839  -2.057   2.067  0.00  0.00    +0.222 A 
ENDROOT
BRANCH   9  10
ATOM     10  O   UNL     1       3.080  -3.090   1.637  0.00  0.00    -0.492 OA
ATOM     11  H   UNL     1       3.583  -3.796   1.208  0.00  0.00    +0.294 HD
ENDBRANCH   9  10
BRANCH   8  12
ATOM     12  N   UNL     1       4.345  -2.862   4.322  0.00  0.00    -0.148 NA
ATOM     13  N   UNL     1       3.699  -3.909   4.165  0.00  0.00    -0.179 NA
BRANCH  13  14
ATOM     14  C   UNL     1       3.614  -4.887   5.253  0.00  0.00    +0.179 C 
ATOM     15  C   UNL     1       5.032  -5.428   5.542  0.00  0.00    +0.197 C 
ATOM     16  S   UNL     1       4.670  -7.195   5.936  0.00  0.00    -0.026 S 
ATOM     17  O   UNL     1       4.252  -7.299   7.290  0.00  0.00    -0.174 OA
ATOM     18  O   UNL     1       5.732  -8.010   5.461  0.00  0.00    -0.174 OA
ATOM     19  C   UNL     1       3.206  -7.388   4.828  0.00  0.00    +0.199 C 
ATOM     20  C   UNL     1       2.615  -5.965   4.859  0.00  0.00    +0.163 C 
BRANCH  20  21
ATOM     21  O   UNL     1       2.100  -5.657   3.563  0.00  0.00    -0.388 OA
ATOM     22  H   UNL     1       1.453  -6.297   3.235  0.00  0.00    +0.210 HD
ENDBRANCH  20  21
ENDBRANCH  13  14
ENDBRANCH   8  12
BRANCH   1  23
ATOM     23  C   UNL     1       3.711  -0.707  -0.038  0.00  0.00    +0.160 C 
BRANCH  23  27
ATOM     24  C   UNL     1      -0.017   1.378   0.010  0.00  0.00    +0.000 A 
ATOM     25  C   UNL     1       1.171   2.086   0.002  0.00  0.00    +0.000 A 
ATOM     26  C   UNL     1       2.377   1.411  -0.013  0.00  0.00    +0.005 A 
ATOM     27  C   UNL     1       2.396   0.029  -0.020  0.00  0.00    -0.028 A 
ATOM     28  C   UNL     1       1.208  -0.679  -0.012  0.00  0.00    +0.005 A 
ATOM     29  C   UNL     1       0.002  -0.004   0.002  0.00  0.00    +0.000 A 
ENDBRANCH  23  27
ENDBRANCH   1  23
TORSDOF 6
