REMARK  Name = ZINC28117062
REMARK  7 active torsions:
REMARK  status: ('A' for Active; 'I' for Inactive)
REMARK    1  A    between atoms: C_1  and  C_2
REMARK    2  A    between atoms: C_3  and  N_15
REMARK    3  A    between atoms: N_6  and  C_9
REMARK    4  A    between atoms: N_7  and  C_8
REMARK    5  A    between atoms: N_15  and  C_16
REMARK    6  A    between atoms: N_19  and  S_20
REMARK    7  A    between atoms: S_20  and  C_23
REMARK                            x       y       z     vdW  Elec       q    Type
REMARK                         _______ _______ _______ _____ _____    ______ ____
ROOT
ATOM      1  C   UNL     1       0.422  -0.686  -3.395  0.00  0.00    +0.081 C 
ATOM      2  C   UNL     1       0.892  -1.945  -3.240  0.00  0.00    +0.057 C 
ATOM      3  C   UNL     1       1.334  -2.730  -4.397  0.00  0.00    +0.095 C 
ATOM      4  N   UNL     1       1.786  -3.945  -4.231  0.00  0.00    -0.128 NA
ATOM      5  C   UNL     1       1.267  -2.141  -5.756  0.00  0.00    +0.013 A 
ATOM      6  C   UNL     1       1.680  -2.866  -6.866  0.00  0.00    +0.011 A 
ATOM      7  C   UNL     1       1.608  -2.297  -8.125  0.00  0.00    +0.001 A 
ATOM      8  C   UNL     1       1.127  -1.009  -8.287  0.00  0.00    +0.001 A 
ATOM      9  C   UNL     1       0.712  -0.274  -7.193  0.00  0.00    +0.012 A 
ATOM     10  C   UNL     1       0.778  -0.833  -5.919  0.00  0.00    +0.033 A 
ATOM     11  C   UNL     1       0.337  -0.072  -4.734  0.00  0.00    +0.208 C 
ATOM     12  O   UNL     1      -0.092   1.059  -4.861  0.00  0.00    -0.285 OA
ENDROOT
BRANCH   4  13
ATOM     13  S   UNL     1       1.860  -4.600  -2.712  0.00  0.00    +0.106 S 
ATOM     14  O   UNL     1       2.826  -3.848  -1.992  0.00  0.00    -0.146 OA
ATOM     15  O   UNL     1       0.518  -4.744  -2.266  0.00  0.00    -0.146 OA
BRANCH  13  16
ATOM     16  C   UNL     1       2.511  -6.229  -2.879  0.00  0.00    +0.150 A 
ATOM     17  C   UNL     1       3.802  -6.640  -2.838  0.00  0.00    +0.037 A 
ATOM     18  C   UNL     1       4.083  -7.985  -2.993  0.00  0.00    +0.010 A 
ATOM     19  C   UNL     1       3.059  -8.852  -3.182  0.00  0.00    +0.047 A 
ATOM     20  S   UNL     1       1.642  -7.767  -3.137  0.00  0.00    -0.076 S 
ENDBRANCH  13  16
ENDBRANCH   4  13
BRANCH   1  21
ATOM     21  N   UNL     1       0.011   0.032  -2.285  0.00  0.00    -0.306 N 
ATOM     22  H   UNL     1      -0.406   0.900  -2.397  0.00  0.00    +0.152 HD
BRANCH  21  25
ATOM     23  C   UNL     1      -2.249  -0.597  -0.309  0.00  0.00    +0.067 C 
ATOM     24  C   UNL     1      -0.769  -0.787  -0.098  0.00  0.00    +0.059 A 
ATOM     25  C   UNL     1       0.200  -0.497  -0.996  0.00  0.00    +0.119 A 
ATOM     26  C   UNL     1       1.482  -0.836  -0.375  0.00  0.00    +0.293 A 
ATOM     27  O   UNL     1       2.585  -0.714  -0.876  0.00  0.00    -0.264 OA
ATOM     28  N   UNL     1       1.208  -1.310   0.858  0.00  0.00    -0.216 N 
ATOM     29  N   UNL     1      -0.180  -1.277   1.038  0.00  0.00    -0.282 N 
ATOM     30  C   UNL     1      -0.889  -1.702   2.247  0.00  0.00    +0.171 C 
BRANCH  28  31
ATOM     31  C   UNL     1       2.147  -1.753   1.794  0.00  0.00    +0.067 A 
ATOM     32  C   UNL     1       1.963  -2.967   2.444  0.00  0.00    +0.028 A 
ATOM     33  C   UNL     1       2.893  -3.401   3.369  0.00  0.00    +0.002 A 
ATOM     34  C   UNL     1       4.005  -2.629   3.648  0.00  0.00    +0.000 A 
ATOM     35  C   UNL     1       4.191  -1.420   3.003  0.00  0.00    +0.002 A 
ATOM     36  C   UNL     1       3.268  -0.982   2.073  0.00  0.00    +0.028 A 
ENDBRANCH  28  31
ENDBRANCH  21  25
ENDBRANCH   1  21
TORSDOF 5
