REMARK  Name = ZINC60322410
REMARK  12 active torsions:
REMARK  status: ('A' for Active; 'I' for Inactive)
REMARK    1  A    between atoms: C_1  and  C_2
REMARK    2  A    between atoms: C_7  and  S_29
REMARK    3  A    between atoms: C_12  and  C_14
REMARK    4  A    between atoms: C_14  and  O_15
REMARK    5  A    between atoms: O_15  and  C_16
REMARK    6  A    between atoms: C_16  and  C_18
REMARK    7  A    between atoms: C_18  and  C_19
REMARK    8  A    between atoms: C_19  and  C_20
REMARK    9  A    between atoms: C_23  and  O_27
REMARK   10  A    between atoms: C_24  and  O_26
REMARK   11  A    between atoms: O_27  and  C_28
REMARK   12  A    between atoms: S_29  and  N_32
REMARK                            x       y       z     vdW  Elec       q    Type
REMARK                         _______ _______ _______ _____ _____    ______ ____
ROOT
ATOM      1  C   UNL     1      -0.019   1.526   0.010  0.00  0.00    +0.029 C 
ATOM      2  C   UNL     1       0.002  -0.004   0.002  0.00  0.00    +0.083 C 
ATOM      3  C   UNL     1       0.748  -0.520  -1.239  0.00  0.00    +0.059 C 
ATOM      4  C   UNL     1       1.916  -1.304  -0.683  0.00  0.00    -0.022 A 
ATOM      5  C   UNL     1       2.929  -1.995  -1.320  0.00  0.00    +0.034 A 
ATOM      6  C   UNL     1       3.899  -2.643  -0.580  0.00  0.00    +0.105 A 
ATOM      7  C   UNL     1       3.854  -2.599   0.802  0.00  0.00    +0.030 A 
ATOM      8  C   UNL     1       2.846  -1.911   1.442  0.00  0.00    +0.026 A 
ATOM      9  C   UNL     1       1.862  -1.253   0.700  0.00  0.00    +0.040 A 
ATOM     10  N   UNL     1       0.764  -0.508   1.148  0.00  0.00    -0.265 N 
ATOM     11  C   UNL     1       0.453  -0.286   2.440  0.00  0.00    +0.258 C 
ATOM     12  O   UNL     1      -0.523   0.376   2.724  0.00  0.00    -0.272 OA
ENDROOT
BRANCH   6  13
ATOM     13  S   UNL     1       5.190  -3.524  -1.394  0.00  0.00    +0.056 S 
ATOM     14  O   UNL     1       5.661  -4.498  -0.472  0.00  0.00    -0.153 OA
ATOM     15  O   UNL     1       4.697  -3.869  -2.681  0.00  0.00    -0.153 OA
BRANCH  13  16
ATOM     16  N   UNL     1       6.434  -2.458  -1.634  0.00  0.00    -0.204 NA
ATOM     17  H   UNL     1       6.350  -1.539  -1.335  0.00  0.00    +0.144 HD
ATOM     18  H   UNL     1       7.248  -2.753  -2.073  0.00  0.00    +0.144 HD
ENDBRANCH  13  16
ENDBRANCH   6  13
BRANCH  11  19
ATOM     19  C   UNL     1       1.317  -0.861   3.533  0.00  0.00    +0.328 C 
BRANCH  19  20
ATOM     20  O   UNL     1       0.786  -0.489   4.806  0.00  0.00    -0.455 OA
BRANCH  20  21
ATOM     21  C   UNL     1       1.444  -0.924   5.892  0.00  0.00    +0.308 C 
ATOM     22  O   UNL     1       2.439  -1.598   5.765  0.00  0.00    -0.251 OA
BRANCH  21  23
ATOM     23  C   UNL     1       0.943  -0.572   7.269  0.00  0.00    +0.125 C 
BRANCH  23  24
ATOM     24  C   UNL     1       1.867  -1.188   8.321  0.00  0.00    +0.046 C 
BRANCH  24  25
ATOM     25  C   UNL     1       1.366  -0.836   9.698  0.00  0.00    -0.043 A 
ATOM     26  C   UNL     1       1.803   0.321  10.316  0.00  0.00    +0.007 A 
ATOM     27  C   UNL     1       1.346   0.648  11.579  0.00  0.00    +0.049 A 
ATOM     28  C   UNL     1       0.447  -0.183  12.228  0.00  0.00    +0.161 A 
ATOM     29  C   UNL     1       0.006  -1.347  11.605  0.00  0.00    +0.159 A 
ATOM     30  C   UNL     1       0.465  -1.667  10.337  0.00  0.00    +0.052 A 
BRANCH  29  31
ATOM     31  O   UNL     1      -0.876  -2.166  12.238  0.00  0.00    -0.503 OA
ATOM     32  H   UNL     1      -1.803  -1.957  12.061  0.00  0.00    +0.292 HD
ENDBRANCH  29  31
BRANCH  28  33
ATOM     33  O   UNL     1      -0.003   0.137  13.470  0.00  0.00    -0.491 OA
ATOM     34  C   UNL     1       0.492   1.347  14.048  0.00  0.00    +0.277 C 
ENDBRANCH  28  33
ENDBRANCH  24  25
ENDBRANCH  23  24
ENDBRANCH  21  23
ENDBRANCH  20  21
ENDBRANCH  19  20
ENDBRANCH  11  19
TORSDOF 10
