REMARK  Name = ZINC63162239
REMARK  8 active torsions:
REMARK  status: ('A' for Active; 'I' for Inactive)
REMARK    1  A    between atoms: C_1  and  C_2
REMARK    2  A    between atoms: C_2  and  C_3
REMARK    3  A    between atoms: C_2  and  N_12
REMARK    4  A    between atoms: C_3  and  C_4
REMARK    5  A    between atoms: C_4  and  C_5
REMARK    6  A    between atoms: C_8  and  O_11
REMARK    7  A    between atoms: N_15  and  C_16
REMARK    8  A    between atoms: C_18  and  C_24
REMARK                            x       y       z     vdW  Elec       q    Type
REMARK                         _______ _______ _______ _____ _____    ______ ____
ROOT
ATOM      1  N   UNL     1       0.711  -0.315  -1.251  0.00  0.00    -0.297 N 
ATOM      2  C   UNL     1       0.043  -0.450  -2.413  0.00  0.00    +0.304 C 
ATOM      3  O   UNL     1      -1.097  -0.038  -2.510  0.00  0.00    -0.252 OA
ATOM      4  N   UNL     1       0.637  -1.043  -3.467  0.00  0.00    -0.265 N 
ATOM      5  H   UNL     1       1.620  -0.644  -1.173  0.00  0.00    +0.151 HD
ATOM      6  H   UNL     1       1.569  -1.305  -3.414  0.00  0.00    +0.157 HD
ENDROOT
BRANCH   4   7
ATOM      7  C   UNL     1      -0.092  -1.280  -4.641  0.00  0.00    +0.100 A 
ATOM      8  C   UNL     1       0.322  -0.750  -5.832  0.00  0.00    +0.042 A 
ATOM      9  C   UNL     1      -0.425  -1.003  -6.992  0.00  0.00    +0.073 A 
ATOM     10  C   UNL     1      -1.542  -1.764  -6.925  0.00  0.00    +0.098 A 
ATOM     11  N   UNL     1      -1.955  -2.291  -5.742  0.00  0.00    -0.327 N 
ATOM     12  H   UNL     1      -2.759  -2.834  -5.714  0.00  0.00    +0.168 HD
ATOM     13  C   UNL     1      -1.259  -2.074  -4.609  0.00  0.00    +0.270 A 
ATOM     14  O   UNL     1      -1.640  -2.558  -3.556  0.00  0.00    -0.266 OA
BRANCH   9  15
ATOM     15  C   UNL     1       0.015  -0.427  -8.312  0.00  0.00    +0.419 C 
ATOM     16  F   UNL     1      -0.882  -0.815  -9.313  0.00  0.00    -0.166 F 
ATOM     17  F   UNL     1       0.044   0.969  -8.226  0.00  0.00    -0.166 F 
ATOM     18  F   UNL     1       1.294  -0.901  -8.624  0.00  0.00    -0.166 F 
ENDBRANCH   9  15
ENDBRANCH   4   7
BRANCH   1  20
ATOM     19  C   UNL     1       0.234   1.846  -0.209  0.00  0.00    +0.028 C 
ATOM     20  C   UNL     1       0.065   0.329  -0.104  0.00  0.00    +0.072 C 
BRANCH  20  21
ATOM     21  C   UNL     1       0.710  -0.168   1.191  0.00  0.00    +0.026 C 
BRANCH  21  22
ATOM     22  C   UNL     1       0.433  -1.663   1.357  0.00  0.00    +0.037 C 
BRANCH  22  23
ATOM     23  C   UNL     1       1.069  -2.153   2.633  0.00  0.00    -0.047 A 
ATOM     24  C   UNL     1       2.368  -2.625   2.619  0.00  0.00    +0.007 A 
ATOM     25  C   UNL     1       2.953  -3.075   3.787  0.00  0.00    +0.045 A 
ATOM     26  C   UNL     1       2.236  -3.052   4.974  0.00  0.00    +0.117 A 
ATOM     27  C   UNL     1       0.932  -2.577   4.986  0.00  0.00    +0.045 A 
ATOM     28  C   UNL     1       0.354  -2.124   3.816  0.00  0.00    +0.007 A 
BRANCH  26  29
ATOM     29  O   UNL     1       2.809  -3.494   6.125  0.00  0.00    -0.507 OA
ATOM     30  H   UNL     1       3.273  -2.807   6.622  0.00  0.00    +0.292 HD
ENDBRANCH  26  29
ENDBRANCH  22  23
ENDBRANCH  21  22
ENDBRANCH  20  21
ENDBRANCH   1  20
TORSDOF 7
