REMARK  Name = ZINC08800710
REMARK  11 active torsions:
REMARK  status: ('A' for Active; 'I' for Inactive)
REMARK    1  A    between atoms: C_1  and  C_2
REMARK    2  A    between atoms: C_5  and  C_27
REMARK    3  A    between atoms: C_6  and  S_8
REMARK    4  A    between atoms: S_8  and  N_11
REMARK    5  A    between atoms: N_11  and  C_12
REMARK    6  A    between atoms: C_12  and  C_13
REMARK    7  A    between atoms: C_13  and  C_15
REMARK    8  A    between atoms: C_13  and  N_56
REMARK    9  A    between atoms: N_23  and  C_24
REMARK   10  A    between atoms: C_25  and  N_56
REMARK   11  A    between atoms: C_26  and  N_56
REMARK                            x       y       z     vdW  Elec       q    Type
REMARK                         _______ _______ _______ _____ _____    ______ ____
ROOT
ATOM      1  C   UNL     1      -3.812   6.578  -1.049  0.00  0.00    -0.023 C 
ENDROOT
BRANCH   1   2
ATOM      2  C   UNL     1      -2.821   5.782  -0.240  0.00  0.00    -0.059 A 
ATOM      3  C   UNL     1      -2.439   4.520  -0.659  0.00  0.00    +0.004 A 
ATOM      4  C   UNL     1      -1.530   3.789   0.077  0.00  0.00    +0.023 A 
ATOM      5  C   UNL     1      -0.989   4.317   1.248  0.00  0.00    +0.033 A 
ATOM      6  C   UNL     1      -1.383   5.584   1.663  0.00  0.00    -0.025 A 
ATOM      7  C   UNL     1      -2.291   6.311   0.923  0.00  0.00    +0.007 A 
ATOM      8  C   UNL     1      -0.656   5.900   2.955  0.00  0.00    +0.056 C 
ATOM      9  C   UNL     1      -0.144   4.513   3.408  0.00  0.00    +0.109 C 
ATOM     10  N   UNL     1      -0.054   3.765   2.136  0.00  0.00    -0.332 N 
ATOM     11  C   UNL     1      -0.305   2.333   2.348  0.00  0.00    +0.129 C 
ENDBRANCH   1   2
BRANCH   1  14
ATOM     12  C   UNL     1      -5.778   5.278  -0.490  0.00  0.00    -0.096 C 
ATOM     13  C   UNL     1      -4.963   6.962   1.046  0.00  0.00    -0.096 C 
ATOM     14  N   UNL     1      -5.129   6.601  -0.377  0.00  0.00    +0.381 N 
ATOM     15  H   UNL     1      -5.723   7.304  -0.832  0.00  0.00    -0.082 HD
ENDBRANCH   1  14
BRANCH   1  16
ATOM     16  C   UNL     1      -3.311   8.015  -1.199  0.00  0.00    +0.095 C 
BRANCH  16  17
ATOM     17  N   UNL     1      -4.328   8.819  -1.882  0.00  0.00    -0.191 NA
ATOM     18  H   UNL     1      -5.066   8.383  -2.336  0.00  0.00    +0.148 HD
BRANCH  17  19
ATOM     19  S   UNL     1      -4.218  10.471  -1.879  0.00  0.00    +0.059 S 
ATOM     20  O   UNL     1      -5.266  10.950  -2.710  0.00  0.00    -0.153 OA
ATOM     21  O   UNL     1      -4.082  10.866  -0.520  0.00  0.00    -0.153 OA
BRANCH  19  27
ATOM     22  C   UNL     1       0.639  12.401  -1.791  0.00  0.00    +0.044 C 
ATOM     23  C   UNL     1      -0.488  11.788  -2.582  0.00  0.00    -0.049 A 
ATOM     24  C   UNL     1      -0.335  11.557  -3.937  0.00  0.00    +0.004 A 
ATOM     25  C   UNL     1      -1.369  10.995  -4.663  0.00  0.00    +0.005 A 
ATOM     26  C   UNL     1      -2.553  10.658  -4.033  0.00  0.00    -0.024 A 
ATOM     27  C   UNL     1      -2.707  10.894  -2.680  0.00  0.00    +0.108 A 
ATOM     28  C   UNL     1      -1.673  11.457  -1.954  0.00  0.00    +0.032 A 
ATOM     29  C   UNL     1      -3.677  10.040  -4.823  0.00  0.00    +0.046 C 
ENDBRANCH  19  27
ENDBRANCH  17  19
ENDBRANCH  16  17
ENDBRANCH   1  16
TORSDOF 6
