REMARK  Name = ZINC37789124
REMARK  3 active torsions:
REMARK  status: ('A' for Active; 'I' for Inactive)
REMARK    1  A    between atoms: C_3  and  N_12
REMARK    2  A    between atoms: C_6  and  C_7
REMARK    3  A    between atoms: N_12  and  C_13
REMARK                            x       y       z     vdW  Elec       q    Type
REMARK                         _______ _______ _______ _____ _____    ______ ____
ROOT
ATOM      1  C   UNL     1      -0.017   1.392   0.010  0.00  0.00    +0.013 A 
ATOM      2  C   UNL     1       1.168   2.096   0.002  0.00  0.00    +0.023 A 
ATOM      3  C   UNL     1       2.381   1.417  -0.013  0.00  0.00    +0.027 A 
ATOM      4  C   UNL     1       2.404   0.027  -0.021  0.00  0.00    +0.023 A 
ATOM      5  C   UNL     1       1.222  -0.683  -0.014  0.00  0.00    +0.013 A 
ATOM      6  C   UNL     1       0.002  -0.004   0.002  0.00  0.00    +0.019 A 
ENDROOT
BRANCH   6   7
ATOM      7  C   UNL     1      -1.267  -0.762   0.011  0.00  0.00    +0.155 A 
ATOM      8  C   UNL     1      -1.403  -2.113   0.010  0.00  0.00    +0.160 A 
ATOM      9  N   UNL     1      -2.716  -2.387   0.019  0.00  0.00    -0.224 NA
ATOM     10  C   UNL     1      -3.381  -1.266   0.026  0.00  0.00    +0.308 A 
ATOM     11  O   UNL     1      -2.514  -0.243   0.026  0.00  0.00    -0.442 OA
ENDBRANCH   6   7
BRANCH   3  12
ATOM     12  N   UNL     1       3.580   2.133  -0.021  0.00  0.00    -0.339 N 
ATOM     13  H   UNL     1       3.566   3.103  -0.016  0.00  0.00    +0.146 HD
BRANCH  12  14
ATOM     14  C   UNL     1       4.859   1.419  -0.037  0.00  0.00    +0.093 C 
ATOM     15  C   UNL     1       5.236   1.079  -1.489  0.00  0.00    +0.046 C 
ATOM     16  C   UNL     1       6.719   0.613  -1.508  0.00  0.00    +0.168 C 
ATOM     17  S   UNL     1       7.465   1.813  -0.326  0.00  0.00    -0.029 S 
ATOM     18  O   UNL     1       7.955   2.933  -1.051  0.00  0.00    -0.174 OA
ATOM     19  O   UNL     1       8.335   1.115   0.555  0.00  0.00    -0.174 OA
ATOM     20  C   UNL     1       5.954   2.313   0.595  0.00  0.00    +0.188 C 
ENDBRANCH  12  14
ENDBRANCH   3  12
TORSDOF 3
