REMARK  Name = ZINC19996881
REMARK  8 active torsions:
REMARK  status: ('A' for Active; 'I' for Inactive)
REMARK    1  A    between atoms: C_1  and  C_2
REMARK    2  A    between atoms: C_4  and  C_28
REMARK    3  A    between atoms: C_5  and  N_9
REMARK    4  A    between atoms: C_6  and  C_8
REMARK    5  A    between atoms: C_13  and  N_14
REMARK    6  A    between atoms: N_14  and  C_15
REMARK    7  A    between atoms: C_15  and  C_16
REMARK    8  A    between atoms: C_16  and  N_17
REMARK                            x       y       z     vdW  Elec       q    Type
REMARK                         _______ _______ _______ _____ _____    ______ ____
ROOT
ATOM      1  N   UNL     1       0.071  -4.209   0.362  0.00  0.00    -0.189 N 
ATOM      2  C   UNL     1      -1.085  -4.865   0.135  0.00  0.00    +0.265 C 
ATOM      3  O   UNL     1      -2.111  -4.258  -0.106  0.00  0.00    -0.269 OA
ATOM      4  C   UNL     1      -1.071  -6.338   0.186  0.00  0.00    +0.113 C 
ATOM      5  C   UNL     1      -2.218  -7.078  -0.036  0.00  0.00    +0.085 C 
ATOM      6  C   UNL     1       0.217  -6.987   0.485  0.00  0.00    +0.258 C 
ATOM      7  O   UNL     1       0.307  -8.199   0.544  0.00  0.00    -0.270 OA
ATOM      8  N   UNL     1       1.294  -6.202   0.691  0.00  0.00    -0.235 N 
ATOM      9  C   UNL     1       1.210  -4.866   0.624  0.00  0.00    +0.320 C 
ATOM     10  O   UNL     1       2.219  -4.215   0.814  0.00  0.00    -0.251 OA
ATOM     11  H   UNL     1       2.150  -6.613   0.889  0.00  0.00    +0.159 HD
ENDROOT
BRANCH   1  16
ATOM     12  C   UNL     1       0.119   1.464   0.187  0.00  0.00    +0.044 C 
ATOM     13  C   UNL     1       0.106  -0.043   0.233  0.00  0.00    -0.050 A 
ATOM     14  C   UNL     1       0.347  -0.771  -0.917  0.00  0.00    +0.008 A 
ATOM     15  C   UNL     1       0.337  -2.151  -0.878  0.00  0.00    -0.028 A 
ATOM     16  C   UNL     1       0.084  -2.808   0.319  0.00  0.00    +0.052 A 
ATOM     17  C   UNL     1      -0.158  -2.074   1.473  0.00  0.00    -0.028 A 
ATOM     18  C   UNL     1      -0.141  -0.694   1.428  0.00  0.00    +0.008 A 
ATOM     19  C   UNL     1      -0.433  -2.783   2.774  0.00  0.00    +0.046 C 
ATOM     20  C   UNL     1       0.599  -2.944  -2.132  0.00  0.00    +0.046 C 
ENDBRANCH   1  16
BRANCH   5  21
ATOM     21  N   UNL     1      -2.143  -8.419  -0.145  0.00  0.00    -0.351 N 
ATOM     22  H   UNL     1      -1.279  -8.859  -0.148  0.00  0.00    +0.145 HD
BRANCH  21  23
ATOM     23  C   UNL     1      -3.369  -9.214  -0.260  0.00  0.00    +0.082 C 
BRANCH  23  24
ATOM     24  C   UNL     1      -3.007 -10.697  -0.370  0.00  0.00    -0.060 C 
BRANCH  24  25
ATOM     25  N   UNL     1      -4.236 -11.494  -0.485  0.00  0.00    +0.381 N 
ATOM     26  C   UNL     1      -5.017 -11.366   0.751  0.00  0.00    -0.079 C 
ATOM     27  C   UNL     1      -6.336 -12.129   0.606  0.00  0.00    -0.019 C 
ATOM     28  C   UNL     1      -6.038 -13.607   0.339  0.00  0.00    -0.004 C 
ATOM     29  C   UNL     1      -5.160 -13.722  -0.911  0.00  0.00    -0.019 C 
ATOM     30  C   UNL     1      -3.885 -12.901  -0.710  0.00  0.00    -0.079 C 
ATOM     31  H   UNL     1      -4.783 -11.156  -1.262  0.00  0.00    -0.082 HD
ENDBRANCH  24  25
ENDBRANCH  23  24
ENDBRANCH  21  23
ENDBRANCH   5  21
TORSDOF 5
