REMARK  Name = ZINC23748788
REMARK  5 active torsions:
REMARK  status: ('A' for Active; 'I' for Inactive)
REMARK    1  A    between atoms: C_1  and  C_2
REMARK    2  A    between atoms: C_5  and  C_7
REMARK    3  A    between atoms: C_7  and  C_9
REMARK    4  A    between atoms: C_7  and  N_19
REMARK    5  A    between atoms: C_15  and  C_17
REMARK                            x       y       z     vdW  Elec       q    Type
REMARK                         _______ _______ _______ _____ _____    ______ ____
ROOT
ATOM      1  C   UNL     1      -0.487   0.813  -2.365  0.00  0.00    +0.042 C 
ENDROOT
BRANCH   1   2
ATOM      2  C   UNL     1      -1.375   1.286  -3.487  0.00  0.00    +0.053 A 
ATOM      3  C   UNL     1      -1.062   1.542  -4.762  0.00  0.00    +0.282 A 
ATOM      4  N   UNL     1      -2.022   1.970  -5.647  0.00  0.00    -0.170 N 
ATOM      5  C   UNL     1      -3.288   2.120  -5.169  0.00  0.00    +0.199 A 
ATOM      6  S   UNL     1      -3.125   1.646  -3.465  0.00  0.00    -0.050 S 
ATOM      7  N   UNL     1      -4.072   2.529  -6.129  0.00  0.00    -0.205 NA
ATOM      8  C   UNL     1      -3.365   2.661  -7.249  0.00  0.00    +0.150 A 
ATOM      9  N   UNL     1      -2.122   2.337  -7.014  0.00  0.00    -0.147 NA
ATOM     10  C   UNL     1      -3.913   3.114  -8.578  0.00  0.00    +0.090 C 
ATOM     11  O   UNL     1       0.220   1.376  -5.187  0.00  0.00    -0.265 OA
ENDBRANCH   1   2
BRANCH   1  16
ATOM     12  C   UNL     1      -2.751  -3.401  -0.765  0.00  0.00    +0.086 C 
ATOM     13  C   UNL     1      -1.742  -2.476  -1.395  0.00  0.00    +0.102 A 
ATOM     14  C   UNL     1      -0.593  -2.851  -1.987  0.00  0.00    +0.044 A 
ATOM     15  C   UNL     1       0.041  -1.670  -2.435  0.00  0.00    +0.043 A 
ATOM     16  C   UNL     1      -0.757  -0.644  -2.091  0.00  0.00    +0.097 A 
ATOM     17  O   UNL     1      -1.833  -1.137  -1.456  0.00  0.00    -0.466 OA
ENDBRANCH   1  16
BRANCH   1  18
ATOM     18  N   UNL     1      -0.766   1.599  -1.155  0.00  0.00    +0.390 N 
ATOM     19  C   UNL     1      -0.422   3.030  -1.359  0.00  0.00    -0.077 C 
ATOM     20  C   UNL     1      -0.244   3.596   0.067  0.00  0.00    -0.020 C 
ATOM     21  C   UNL     1       0.103   2.370   0.942  0.00  0.00    -0.020 C 
ATOM     22  C   UNL     1       0.105   1.171  -0.030  0.00  0.00    -0.077 C 
ATOM     23  H   UNL     1      -1.835   1.443  -0.949  0.00  0.00    -0.080 HD
ENDBRANCH   1  18
TORSDOF 3
