REMARK  Name = ZINC04616841
REMARK  7 active torsions:
REMARK  status: ('A' for Active; 'I' for Inactive)
REMARK    1  A    between atoms: C_1  and  N_2
REMARK    2  A    between atoms: C_6  and  C_7
REMARK    3  A    between atoms: N_8  and  N_9
REMARK    4  A    between atoms: C_10  and  C_12
REMARK    5  A    between atoms: C_12  and  N_23
REMARK    6  A    between atoms: C_13  and  C_14
REMARK    7  A    between atoms: C_24  and  C_26
REMARK                            x       y       z     vdW  Elec       q    Type
REMARK                         _______ _______ _______ _____ _____    ______ ____
ROOT
ATOM      1  C   UNL     1      -1.078   2.074  -0.260  0.00  0.00    +0.098 C 
ATOM      2  C   UNL     1       0.062   1.487   0.178  0.00  0.00    +0.036 C 
ENDROOT
BRANCH   2   3
ATOM      3  C   UNL     1       0.022   0.124   0.728  0.00  0.00    -0.019 A 
ATOM      4  C   UNL     1      -0.935  -0.216   1.690  0.00  0.00    +0.012 A 
ATOM      5  C   UNL     1      -0.973  -1.495   2.201  0.00  0.00    +0.050 A 
ATOM      6  C   UNL     1      -0.058  -2.447   1.772  0.00  0.00    +0.166 A 
ATOM      7  C   UNL     1       0.903  -2.114   0.816  0.00  0.00    +0.167 A 
ATOM      8  C   UNL     1       0.944  -0.835   0.295  0.00  0.00    +0.057 A 
ATOM      9  O   UNL     1       1.672  -3.214   0.569  0.00  0.00    -0.453 OA
ATOM     10  C   UNL     1       0.918  -4.331   1.076  0.00  0.00    +0.466 C 
ATOM     11  O   UNL     1       0.112  -3.755   2.121  0.00  0.00    -0.453 OA
ENDBRANCH   2   3
BRANCH   1  13
ATOM     12  N   UNL     1      -3.469   1.888  -0.703  0.00  0.00    -0.202 N 
ATOM     13  C   UNL     1      -2.303   1.280  -0.408  0.00  0.00    +0.277 C 
ATOM     14  O   UNL     1      -2.266   0.071  -0.265  0.00  0.00    -0.267 OA
ATOM     15  H   UNL     1      -3.499   2.850  -0.817  0.00  0.00    +0.178 HD
BRANCH  12  17
ATOM     16  C   UNL     1      -5.764   1.716  -1.128  0.00  0.00    +0.156 C 
ATOM     17  N   UNL     1      -4.638   1.129  -0.844  0.00  0.00    -0.186 NA
BRANCH  16  23
ATOM     18  C   UNL     1      -8.580   2.815  -1.796  0.00  0.00    +0.149 C 
ATOM     19  N   UNL     1      -8.240   1.408  -1.573  0.00  0.00    -0.349 N 
ATOM     20  C   UNL     1      -9.111   0.362  -1.624  0.00  0.00    +0.086 A 
ATOM     21  C   UNL     1      -8.436  -0.780  -1.365  0.00  0.00    +0.020 A 
ATOM     22  C   UNL     1      -7.092  -0.445  -1.148  0.00  0.00    +0.029 A 
ATOM     23  C   UNL     1      -6.989   0.923  -1.276  0.00  0.00    +0.061 A 
ENDBRANCH  16  23
ENDBRANCH  12  17
ENDBRANCH   1  13
BRANCH   1  24
ATOM     24  N   UNL     1      -1.087   3.438  -0.571  0.00  0.00    -0.277 N 
ATOM     25  C   UNL     1      -1.403   3.843  -1.817  0.00  0.00    +0.248 C 
ATOM     26  O   UNL     1      -1.770   3.032  -2.645  0.00  0.00    -0.270 OA
ATOM     27  H   UNL     1      -0.865   4.092   0.110  0.00  0.00    +0.155 HD
BRANCH  25  28
ATOM     28  C   UNL     1      -1.306   5.273  -2.176  0.00  0.00    +0.037 A 
ATOM     29  C   UNL     1      -0.891   6.208  -1.226  0.00  0.00    +0.013 A 
ATOM     30  C   UNL     1      -0.797   7.541  -1.569  0.00  0.00    +0.001 A 
ATOM     31  C   UNL     1      -1.124   7.953  -2.849  0.00  0.00    +0.000 A 
ATOM     32  C   UNL     1      -1.540   7.033  -3.794  0.00  0.00    +0.001 A 
ATOM     33  C   UNL     1      -1.633   5.696  -3.466  0.00  0.00    +0.013 A 
ENDBRANCH  25  28
ENDBRANCH   1  24
TORSDOF 6
