REMARK  Name = ZINC15239315
REMARK  9 active torsions:
REMARK  status: ('A' for Active; 'I' for Inactive)
REMARK    1  A    between atoms: C_1  and  C_2
REMARK    2  A    between atoms: C_5  and  C_31
REMARK    3  A    between atoms: C_6  and  O_9
REMARK    4  A    between atoms: C_7  and  C_8
REMARK    5  A    between atoms: O_9  and  C_10
REMARK    6  A    between atoms: C_10  and  C_11
REMARK    7  A    between atoms: C_11  and  C_13
REMARK    8  A    between atoms: C_11  and  O_30
REMARK    9  A    between atoms: C_13  and  N_14
REMARK                            x       y       z     vdW  Elec       q    Type
REMARK                         _______ _______ _______ _____ _____    ______ ____
ROOT
ATOM      1  N   UNL     1      -0.728  -1.240  -1.768  0.00  0.00    -0.221 N 
ATOM      2  C   UNL     1       0.343  -0.519  -1.377  0.00  0.00    +0.251 C 
ATOM      3  O   UNL     1       1.365  -0.326  -2.001  0.00  0.00    -0.272 OA
ATOM      4  C   UNL     1       0.002  -0.004   0.002  0.00  0.00    +0.144 C 
ATOM      5  C   UNL     1      -0.019   1.521   0.010  0.00  0.00    +0.081 C 
ATOM      6  C   UNL     1       1.431   2.024  -0.001  0.00  0.00    +0.232 C 
ATOM      7  O   UNL     1       2.068   1.597   1.204  0.00  0.00    -0.492 OA
ATOM      8  C   UNL     1       1.959   0.290   1.556  0.00  0.00    +0.126 A 
ATOM      9  C   UNL     1       0.981  -0.529   1.015  0.00  0.00    +0.027 A 
ATOM     10  C   UNL     1       0.898  -1.853   1.409  0.00  0.00    +0.010 A 
ATOM     11  C   UNL     1       1.787  -2.363   2.336  0.00  0.00    +0.001 A 
ATOM     12  C   UNL     1       2.765  -1.549   2.875  0.00  0.00    +0.004 A 
ATOM     13  C   UNL     1       2.853  -0.227   2.487  0.00  0.00    +0.046 A 
ATOM     14  N   UNL     1      -1.341  -0.538   0.260  0.00  0.00    -0.281 N 
ATOM     15  C   UNL     1      -1.685  -1.247  -0.832  0.00  0.00    +0.310 C 
ATOM     16  O   UNL     1      -2.745  -1.830  -0.953  0.00  0.00    -0.252 OA
ATOM     17  H   UNL     1      -1.875  -0.405   1.059  0.00  0.00    +0.152 HD
ENDROOT
BRANCH   1  18
ATOM     18  C   UNL     1      -0.832  -1.928  -3.057  0.00  0.00    +0.152 C 
BRANCH  18  19
ATOM     19  C   UNL     1      -1.450  -0.985  -4.090  0.00  0.00    +0.170 C 
BRANCH  19  20
ATOM     20  O   UNL     1      -2.753  -0.590  -3.655  0.00  0.00    -0.387 OA
ATOM     21  H   UNL     1      -3.369  -1.326  -3.537  0.00  0.00    +0.210 HD
ENDBRANCH  19  20
BRANCH  19  22
ATOM     22  C   UNL     1      -1.559  -1.704  -5.437  0.00  0.00    +0.262 C 
BRANCH  22  23
ATOM     23  O   UNL     1      -2.027  -0.789  -6.429  0.00  0.00    -0.489 OA
BRANCH  23  29
ATOM     24  C   UNL     1      -4.861  -2.912  -9.789  0.00  0.00    +0.044 C 
ATOM     25  C   UNL     1      -3.545  -2.313  -9.364  0.00  0.00    -0.044 A 
ATOM     26  C   UNL     1      -2.491  -2.254 -10.257  0.00  0.00    +0.004 A 
ATOM     27  C   UNL     1      -1.283  -1.705  -9.871  0.00  0.00    +0.007 A 
ATOM     28  C   UNL     1      -1.127  -1.208  -8.591  0.00  0.00    -0.009 A 
ATOM     29  C   UNL     1      -2.180  -1.271  -7.690  0.00  0.00    +0.127 A 
ATOM     30  C   UNL     1      -3.392  -1.823  -8.081  0.00  0.00    -0.006 A 
ATOM     31  C   UNL     1      -4.540  -1.888  -7.107  0.00  0.00    +0.048 C 
ATOM     32  C   UNL     1       0.188  -0.604  -8.171  0.00  0.00    +0.047 C 
ENDBRANCH  23  29
ENDBRANCH  22  23
ENDBRANCH  19  22
ENDBRANCH  18  19
ENDBRANCH   1  18
TORSDOF 6
