REMARK  Name = ZINC02121170
REMARK  9 active torsions:
REMARK  status: ('A' for Active; 'I' for Inactive)
REMARK    1  A    between atoms: C_1  and  C_2
REMARK    2  A    between atoms: C_2  and  O_3
REMARK    3  A    between atoms: O_3  and  C_4
REMARK    4  A    between atoms: C_7  and  C_12
REMARK    5  A    between atoms: C_9  and  O_10
REMARK    6  A    between atoms: O_10  and  C_11
REMARK    7  A    between atoms: N_31  and  C_34
REMARK    8  A    between atoms: C_34  and  C_35
REMARK    9  A    between atoms: C_35  and  C_36
REMARK                            x       y       z     vdW  Elec       q    Type
REMARK                         _______ _______ _______ _____ _____    ______ ____
ROOT
ATOM      1  C   UNL     1       3.701   2.952  -7.655  0.00  0.00    +0.154 C 
ATOM      2  C   UNL     1       2.639   2.329  -8.532  0.00  0.00    +0.046 A 
ATOM      3  C   UNL     1       1.345   2.207  -8.164  0.00  0.00    -0.015 A 
ATOM      4  C   UNL     1       0.649   1.573  -9.265  0.00  0.00    +0.003 A 
ATOM      5  C   UNL     1      -0.685   1.200  -9.454  0.00  0.00    +0.010 A 
ATOM      6  C   UNL     1      -0.999   0.606 -10.652  0.00  0.00    +0.001 A 
ATOM      7  C   UNL     1      -0.048   0.381 -11.634  0.00  0.00    +0.002 A 
ATOM      8  C   UNL     1       1.279   0.741 -11.473  0.00  0.00    +0.026 A 
ATOM      9  C   UNL     1       1.627   1.346 -10.268  0.00  0.00    +0.047 A 
ATOM     10  N   UNL     1       2.816   1.816  -9.789  0.00  0.00    -0.356 N 
ATOM     11  H   UNL     1       3.660   1.790 -10.268  0.00  0.00    +0.166 HD
ATOM     12  C   UNL     1       0.783   2.660  -6.841  0.00  0.00    +0.069 C 
ATOM     13  C   UNL     1       1.770   3.641  -6.192  0.00  0.00    +0.167 C 
ATOM     14  N   UNL     1       3.124   3.102  -6.301  0.00  0.00    -0.276 N 
ATOM     15  C   UNL     1       3.857   2.747  -5.243  0.00  0.00    +0.234 C 
ATOM     16  O   UNL     1       4.942   2.247  -5.449  0.00  0.00    -0.274 OA
ATOM     17  C   UNL     1       3.431   2.931  -3.823  0.00  0.00    +0.203 C 
ATOM     18  N   UNL     1       2.125   3.559  -3.720  0.00  0.00    -0.291 N 
ATOM     19  C   UNL     1       1.375   3.885  -4.771  0.00  0.00    +0.237 C 
ATOM     20  O   UNL     1       0.304   4.414  -4.563  0.00  0.00    -0.274 OA
ENDROOT
BRANCH   1  24
ATOM     21  C   UNL     1       7.133   0.406  -7.504  0.00  0.00    +0.162 A 
ATOM     22  C   UNL     1       5.873  -0.109  -7.245  0.00  0.00    +0.050 A 
ATOM     23  C   UNL     1       4.766   0.717  -7.295  0.00  0.00    +0.009 A 
ATOM     24  C   UNL     1       4.912   2.057  -7.602  0.00  0.00    -0.018 A 
ATOM     25  C   UNL     1       6.165   2.576  -7.866  0.00  0.00    +0.055 A 
ATOM     26  C   UNL     1       7.280   1.755  -7.813  0.00  0.00    +0.162 A 
BRANCH  26  27
ATOM     27  O   UNL     1       8.515   2.265  -8.067  0.00  0.00    -0.491 OA
ATOM     28  C   UNL     1       8.590   3.658  -8.377  0.00  0.00    +0.277 C 
ENDBRANCH  26  27
BRANCH  21  29
ATOM     29  O   UNL     1       8.224  -0.405  -7.457  0.00  0.00    -0.489 OA
BRANCH  29  31
ATOM     30  C   UNL     1       9.331  -2.528  -7.128  0.00  0.00    +0.048 C 
ATOM     31  C   UNL     1       7.997  -1.779  -7.134  0.00  0.00    +0.226 C 
ENDBRANCH  29  31
ENDBRANCH  21  29
ENDBRANCH   1  24
BRANCH  18  32
ATOM     32  C   UNL     1       1.605   3.857  -2.383  0.00  0.00    +0.112 C 
BRANCH  32  33
ATOM     33  C   UNL     1       0.797   2.663  -1.873  0.00  0.00    +0.049 C 
BRANCH  33  34
ATOM     34  C   UNL     1       0.263   2.969  -0.497  0.00  0.00    -0.072 C 
ATOM     35  C   UNL     1      -0.939   3.442  -0.404  0.00  0.00    -0.028 C 
ATOM     36  C   UNL     1      -1.602   3.804   0.892  0.00  0.00    +0.027 C 
ATOM     37  C   UNL     1      -0.860   3.155   2.063  0.00  0.00    +0.004 C 
ATOM     38  C   UNL     1       0.635   3.451   1.910  0.00  0.00    +0.005 C 
ATOM     39  C   UNL     1       1.156   2.706   0.679  0.00  0.00    +0.030 C 
ENDBRANCH  33  34
ENDBRANCH  32  33
ENDBRANCH  18  32
TORSDOF 7
