REMARK  Name = ZINC08716095
REMARK  8 active torsions:
REMARK  status: ('A' for Active; 'I' for Inactive)
REMARK    1  A    between atoms: C_1  and  C_2
REMARK    2  A    between atoms: C_9  and  C_14
REMARK    3  A    between atoms: C_14  and  O_16
REMARK    4  A    between atoms: O_16  and  C_17
REMARK    5  A    between atoms: C_17  and  C_19
REMARK    6  A    between atoms: C_17  and  C_20
REMARK    7  A    between atoms: N_22  and  C_23
REMARK    8  A    between atoms: C_27  and  C_29
REMARK                            x       y       z     vdW  Elec       q    Type
REMARK                         _______ _______ _______ _____ _____    ______ ____
ROOT
ATOM      1  C   UNL     1      -0.047   1.007   0.339  0.00  0.00    +0.340 C 
ATOM      2  O   UNL     1       0.034  -0.197   0.194  0.00  0.00    -0.245 OA
ENDROOT
BRANCH   1  10
ATOM      3  C   UNL     1      -7.969   2.729   0.539  0.00  0.00    +0.029 C 
ATOM      4  C   UNL     1      -6.514   2.472   0.143  0.00  0.00    +0.134 C 
ATOM      5  C   UNL     1      -6.146   1.050   0.468  0.00  0.00    +0.230 C 
ATOM      6  O   UNL     1      -7.034   0.224   0.507  0.00  0.00    -0.274 OA
ATOM      7  N   UNL     1      -4.903   0.649   0.715  0.00  0.00    -0.284 N 
ATOM      8  C   UNL     1      -3.761   1.447   0.704  0.00  0.00    +0.048 A 
ATOM      9  C   UNL     1      -2.521   0.856   0.526  0.00  0.00    +0.039 A 
ATOM     10  C   UNL     1      -1.364   1.641   0.523  0.00  0.00    +0.061 A 
ATOM     11  C   UNL     1      -1.456   3.026   0.690  0.00  0.00    +0.016 A 
ATOM     12  C   UNL     1      -2.689   3.615   0.861  0.00  0.00    +0.017 A 
ATOM     13  C   UNL     1      -3.838   2.835   0.867  0.00  0.00    +0.030 A 
ATOM     14  S   UNL     1      -5.421   3.587   1.075  0.00  0.00    -0.111 S 
ATOM     15  H   UNL     1      -4.779  -0.291   0.922  0.00  0.00    +0.155 HD
ENDBRANCH   1  10
BRANCH   1  16
ATOM     16  O   UNL     1       1.068   1.764   0.326  0.00  0.00    -0.449 OA
BRANCH  16  17
ATOM     17  C   UNL     1       2.331   1.073   0.134  0.00  0.00    +0.259 C 
ATOM     18  C   UNL     1       2.647   0.994  -1.361  0.00  0.00    +0.062 C 
BRANCH  17  19
ATOM     19  C   UNL     1       3.429   1.827   0.840  0.00  0.00    +0.258 C 
ATOM     20  O   UNL     1       3.172   2.846   1.445  0.00  0.00    -0.271 OA
ATOM     21  N   UNL     1       4.695   1.369   0.798  0.00  0.00    -0.282 N 
ATOM     22  H   UNL     1       4.889   0.516   0.380  0.00  0.00    +0.155 HD
BRANCH  21  23
ATOM     23  C   UNL     1       5.731   2.125   1.358  0.00  0.00    +0.035 A 
ATOM     24  C   UNL     1       6.817   1.487   1.947  0.00  0.00    +0.023 A 
ATOM     25  C   UNL     1       7.843   2.229   2.501  0.00  0.00    +0.003 A 
ATOM     26  C   UNL     1       7.797   3.608   2.474  0.00  0.00    +0.019 A 
ATOM     27  C   UNL     1       6.711   4.258   1.886  0.00  0.00    +0.054 A 
ATOM     28  C   UNL     1       5.678   3.509   1.321  0.00  0.00    +0.042 A 
BRANCH  27  29
ATOM     29  C   UNL     1       6.660   5.689   1.856  0.00  0.00    +0.099 C 
ATOM     30  N   UNL     1       6.620   6.824   1.832  0.00  0.00    -0.191 NA
ENDBRANCH  27  29
ENDBRANCH  21  23
ENDBRANCH  17  19
ENDBRANCH  16  17
ENDBRANCH   1  16
TORSDOF 6
