REMARK  Name = ZINC12418631
REMARK  6 active torsions:
REMARK  status: ('A' for Active; 'I' for Inactive)
REMARK    1  A    between atoms: C_1  and  C_2
REMARK    2  A    between atoms: C_2  and  C_3
REMARK    3  A    between atoms: C_3  and  C_5
REMARK    4  A    between atoms: C_3  and  N_6
REMARK    5  A    between atoms: N_15  and  C_19
REMARK    6  A    between atoms: C_24  and  C_25
REMARK                            x       y       z     vdW  Elec       q    Type
REMARK                         _______ _______ _______ _____ _____    ______ ____
ROOT
ATOM      1  N   UNL     1       3.601   2.145  -0.252  0.00  0.00    -0.280 NA
ATOM      2  C   UNL     1       2.491   1.203  -0.045  0.00  0.00    +0.130 C 
ATOM      3  C   UNL     1       1.202   1.969   0.097  0.00  0.00    +0.069 A 
ATOM      4  C   UNL     1      -0.018   1.276  -0.007  0.00  0.00    +0.260 A 
ATOM      5  O   UNL     1      -0.023   0.075  -0.214  0.00  0.00    -0.267 OA
ATOM      6  N   UNL     1      -1.179   1.946   0.117  0.00  0.00    -0.274 N 
ATOM      7  H   UNL     1      -2.136   1.411   0.021  0.00  0.00    +0.173 HD
ATOM      8  C   UNL     1      -1.179   3.270   0.358  0.00  0.00    +0.335 A 
ATOM      9  O   UNL     1      -2.237   3.857   0.477  0.00  0.00    -0.246 OA
ATOM     10  N   UNL     1      -0.027   3.953   0.464  0.00  0.00    -0.250 N 
ATOM     11  C   UNL     1       1.188   3.310   0.330  0.00  0.00    +0.118 A 
ATOM     12  N   UNL     1       2.333   4.051   0.433  0.00  0.00    -0.317 N 
ATOM     13  C   UNL     1       3.511   3.234   0.735  0.00  0.00    +0.191 C 
ATOM     14  H   UNL     1       2.435   5.140   0.314  0.00  0.00    +0.149 HD
ENDROOT
BRANCH  10  15
ATOM     15  C   UNL     1      -0.058   5.332   0.714  0.00  0.00    +0.057 A 
ATOM     16  C   UNL     1      -0.091   6.230  -0.344  0.00  0.00    +0.027 A 
ATOM     17  C   UNL     1      -0.122   7.588  -0.095  0.00  0.00    +0.003 A 
ATOM     18  C   UNL     1      -0.120   8.054   1.207  0.00  0.00    +0.020 A 
ATOM     19  C   UNL     1      -0.087   7.162   2.264  0.00  0.00    +0.046 A 
ATOM     20  C   UNL     1      -0.061   5.801   2.021  0.00  0.00    -0.008 A 
ATOM     21  C   UNL     1      -0.032   4.829   3.172  0.00  0.00    +0.047 C 
ATOM     22 CL   UNL     1      -0.086   7.751   3.897  0.00  0.00    -0.083 Cl
ENDBRANCH  10  15
BRANCH   1  23
ATOM     23  C   UNL     1       4.897   1.460  -0.164  0.00  0.00    +0.055 C 
ATOM     24  C   UNL     1       5.171   1.073   1.291  0.00  0.00    +0.024 C 
BRANCH  23  26
ATOM     25  C   UNL     1       5.799   2.678  -2.150  0.00  0.00    +0.005 C 
ATOM     26  C   UNL     1       6.003   2.394  -0.660  0.00  0.00    +0.015 C 
ENDBRANCH  23  26
ENDBRANCH   1  23
TORSDOF 3
