REMARK  Name = ZINC09348911
REMARK  8 active torsions:
REMARK  status: ('A' for Active; 'I' for Inactive)
REMARK    1  A    between atoms: C_1  and  C_2
REMARK    2  A    between atoms: C_2  and  O_3
REMARK    3  A    between atoms: O_3  and  C_4
REMARK    4  A    between atoms: C_4  and  C_6
REMARK    5  A    between atoms: C_7  and  C_32
REMARK    6  A    between atoms: C_14  and  C_26
REMARK    7  A    between atoms: C_20  and  C_24
REMARK    8  A    between atoms: C_20  and  C_25
REMARK                            x       y       z     vdW  Elec       q    Type
REMARK                         _______ _______ _______ _____ _____    ______ ____
ROOT
ATOM      1  C   UNL     1       1.428  -2.328  -2.479  0.00  0.00    +0.120 A 
ATOM      2  C   UNL     1       1.643  -3.649  -2.847  0.00  0.00    +0.062 A 
ATOM      3  N   UNL     1       2.283  -3.842  -3.973  0.00  0.00    -0.229 NA
ATOM      4  C   UNL     1       2.698  -2.829  -4.713  0.00  0.00    +0.165 A 
ATOM      5  S   UNL     1       2.192  -1.476  -3.850  0.00  0.00    -0.045 S 
ATOM      6  N   UNL     1       3.380  -2.872  -5.914  0.00  0.00    -0.266 N 
ATOM      7  C   UNL     1       3.734  -1.700  -6.547  0.00  0.00    +0.186 C 
ATOM      8  N   UNL     1       3.426  -0.565  -6.005  0.00  0.00    -0.243 NA
ATOM      9  C   UNL     1       3.772   0.714  -6.609  0.00  0.00    +0.173 C 
ATOM     10  C   UNL     1       4.121   0.558  -8.067  0.00  0.00    +0.041 C 
ATOM     11  C   UNL     1       4.429  -0.659  -8.568  0.00  0.00    +0.020 C 
ATOM     12  N   UNL     1       4.413  -1.755  -7.744  0.00  0.00    -0.290 N 
ATOM     13  C   UNL     1       4.798  -0.836 -10.018  0.00  0.00    +0.058 C 
ATOM     14  C   UNL     1       4.071   0.212 -10.864  0.00  0.00    -0.023 C 
ATOM     15  C   UNL     1       4.452   1.605 -10.351  0.00  0.00    +0.086 C 
ATOM     16  C   UNL     1       4.116   1.698  -8.887  0.00  0.00    +0.164 C 
ATOM     17  O   UNL     1       3.836   2.778  -8.406  0.00  0.00    -0.292 OA
ATOM     18  C   UNL     1       4.491   0.072 -12.328  0.00  0.00    +0.011 C 
ATOM     19  C   UNL     1       2.559   0.014 -10.738  0.00  0.00    +0.011 C 
ATOM     20  C   UNL     1       1.167  -4.799  -1.997  0.00  0.00    +0.067 C 
ATOM     21  H   UNL     1       3.610  -3.726  -6.311  0.00  0.00    +0.157 HD
ATOM     22  H   UNL     1       4.877  -2.567  -8.003  0.00  0.00    +0.154 HD
ENDROOT
BRANCH   9  23
ATOM     23  C   UNL     1       4.955   1.298  -5.881  0.00  0.00    -0.019 A 
ATOM     24  C   UNL     1       5.995   0.479  -5.482  0.00  0.00    +0.006 A 
ATOM     25  C   UNL     1       7.080   1.015  -4.814  0.00  0.00    +0.000 A 
ATOM     26  C   UNL     1       7.126   2.370  -4.545  0.00  0.00    +0.000 A 
ATOM     27  C   UNL     1       6.086   3.189  -4.944  0.00  0.00    +0.000 A 
ATOM     28  C   UNL     1       5.003   2.654  -5.616  0.00  0.00    +0.006 A 
ENDBRANCH   9  23
BRANCH   1  29
ATOM     29  C   UNL     1       0.776  -1.800  -1.335  0.00  0.00    +0.348 C 
ATOM     30  O   UNL     1       0.312  -2.553  -0.499  0.00  0.00    -0.244 OA
BRANCH  29  31
ATOM     31  O   UNL     1       0.671  -0.465  -1.174  0.00  0.00    -0.461 OA
BRANCH  31  33
ATOM     32  C   UNL     1      -0.019   1.526   0.010  0.00  0.00    +0.048 C 
ATOM     33  C   UNL     1       0.002  -0.004   0.002  0.00  0.00    +0.229 C 
ENDBRANCH  31  33
ENDBRANCH  29  31
ENDBRANCH   1  29
TORSDOF 4
