REMARK  Name = ZINC02453612
REMARK  8 active torsions:
REMARK  status: ('A' for Active; 'I' for Inactive)
REMARK    1  A    between atoms: C_1  and  C_2
REMARK    2  A    between atoms: C_5  and  C_8
REMARK    3  A    between atoms: C_11  and  S_21
REMARK    4  A    between atoms: N_12  and  C_13
REMARK    5  A    between atoms: C_16  and  O_19
REMARK    6  A    between atoms: O_19  and  C_20
REMARK    7  A    between atoms: S_21  and  C_22
REMARK    8  A    between atoms: C_22  and  C_23
REMARK                            x       y       z     vdW  Elec       q    Type
REMARK                         _______ _______ _______ _____ _____    ______ ____
ROOT
ATOM      1  C   UNL     1      -2.501   0.983  -0.132  0.00  0.00    +0.169 A 
ATOM      2  N   UNL     1      -2.643  -0.300   0.108  0.00  0.00    -0.128 NA
ATOM      3  N   UNL     1      -3.890  -0.589   0.226  0.00  0.00    -0.122 NA
ATOM      4  C   UNL     1      -4.622   0.491   0.069  0.00  0.00    +0.197 A 
ATOM      5  N   UNL     1      -3.764   1.532  -0.159  0.00  0.00    -0.270 N 
ENDROOT
BRANCH   1  10
ATOM      6  C   UNL     1       2.463   3.794  -0.889  0.00  0.00    +0.044 C 
ATOM      7  C   UNL     1       1.164   3.056  -0.693  0.00  0.00    -0.050 A 
ATOM      8  C   UNL     1      -0.024   3.633  -1.107  0.00  0.00    +0.004 A 
ATOM      9  C   UNL     1      -1.217   2.963  -0.931  0.00  0.00    +0.012 A 
ATOM     10  C   UNL     1      -1.225   1.704  -0.329  0.00  0.00    +0.020 A 
ATOM     11  C   UNL     1      -0.023   1.126   0.083  0.00  0.00    +0.012 A 
ATOM     12  C   UNL     1       1.163   1.806  -0.100  0.00  0.00    +0.004 A 
ENDBRANCH   1  10
BRANCH   5  13
ATOM     13  C   UNL     1      -4.100   2.877  -0.377  0.00  0.00    +0.051 A 
ATOM     14  C   UNL     1      -3.775   3.837   0.572  0.00  0.00    +0.030 A 
ATOM     15  C   UNL     1      -4.101   5.160   0.355  0.00  0.00    +0.047 A 
ATOM     16  C   UNL     1      -4.764   5.530  -0.807  0.00  0.00    +0.120 A 
ATOM     17  C   UNL     1      -5.095   4.571  -1.752  0.00  0.00    +0.047 A 
ATOM     18  C   UNL     1      -4.763   3.247  -1.539  0.00  0.00    +0.030 A 
BRANCH  16  19
ATOM     19  O   UNL     1      -5.090   6.833  -1.018  0.00  0.00    -0.495 OA
ATOM     20  C   UNL     1      -4.720   7.767  -0.002  0.00  0.00    +0.277 C 
ENDBRANCH  16  19
ENDBRANCH   5  13
BRANCH   4  21
ATOM     21  S   UNL     1      -6.380   0.583   0.144  0.00  0.00    -0.076 S 
BRANCH  21  22
ATOM     22  C   UNL     1      -6.771  -1.152   0.479  0.00  0.00    +0.172 C 
BRANCH  22  23
ATOM     23  C   UNL     1      -8.265  -1.318   0.587  0.00  0.00    +0.221 C 
ATOM     24  O   UNL     1      -8.993  -0.358   0.451  0.00  0.00    -0.275 OA
ATOM     25  N   UNL     1      -8.792  -2.534   0.835  0.00  0.00    -0.329 N 
ATOM     26  H   UNL     1      -8.209  -3.301   0.943  0.00  0.00    +0.145 HD
ATOM     27  H   UNL     1      -9.753  -2.641   0.904  0.00  0.00    +0.145 HD
ENDBRANCH  22  23
ENDBRANCH  21  22
ENDBRANCH   4  21
TORSDOF 6
