REMARK  Name = ZINC12292252
REMARK  9 active torsions:
REMARK  status: ('A' for Active; 'I' for Inactive)
REMARK    1  A    between atoms: C_1  and  N_2
REMARK    2  A    between atoms: C_9  and  C_21
REMARK    3  A    between atoms: C_11  and  C_17
REMARK    4  A    between atoms: C_11  and  C_19
REMARK    5  A    between atoms: C_12  and  N_16
REMARK    6  A    between atoms: C_13  and  C_14
REMARK    7  A    between atoms: C_24  and  O_27
REMARK    8  A    between atoms: O_27  and  C_28
REMARK    9  A    between atoms: C_28  and  C_29
REMARK                            x       y       z     vdW  Elec       q    Type
REMARK                         _______ _______ _______ _____ _____    ______ ____
ROOT
ATOM      1  C   UNL     1       0.555   8.158  -4.425  0.00  0.00    +0.105 C 
ATOM      2  N   UNL     1       0.130   8.509  -3.064  0.00  0.00    -0.301 NA
ATOM      3  C   UNL     1       1.282   8.917  -2.240  0.00  0.00    +0.111 C 
ATOM      4  C   UNL     1       0.791   9.088  -0.823  0.00  0.00    -0.007 C 
ATOM      5  C   UNL     1      -0.437   9.518  -0.598  0.00  0.00    -0.026 C 
ATOM      6  C   UNL     1      -1.380   9.908  -1.700  0.00  0.00    +0.044 C 
ATOM      7  C   UNL     1      -0.878   9.572  -3.086  0.00  0.00    +0.093 C 
ATOM      8  C   UNL     1      -2.740   9.270  -1.409  0.00  0.00    +0.067 C 
ATOM      9  C   UNL     1      -3.285   9.843  -0.101  0.00  0.00    +0.188 C 
ATOM     10  C   UNL     1      -2.275   9.770   1.004  0.00  0.00    +0.054 C 
ATOM     11  C   UNL     1      -0.941   9.631   0.793  0.00  0.00    +0.074 C 
ENDROOT
BRANCH   8  12
ATOM     12  C   UNL     1      -2.579   7.777  -1.278  0.00  0.00    -0.041 A 
ATOM     13  C   UNL     1      -2.279   7.220  -0.049  0.00  0.00    +0.007 A 
ATOM     14  C   UNL     1      -2.131   5.852   0.073  0.00  0.00    +0.046 A 
ATOM     15  C   UNL     1      -2.285   5.037  -1.038  0.00  0.00    +0.121 A 
ATOM     16  C   UNL     1      -2.581   5.598  -2.272  0.00  0.00    +0.046 A 
ATOM     17  C   UNL     1      -2.733   6.966  -2.388  0.00  0.00    +0.007 A 
BRANCH  15  18
ATOM     18  O   UNL     1      -2.140   3.691  -0.920  0.00  0.00    -0.488 OA
BRANCH  18  19
ATOM     19  C   UNL     1      -2.312   2.913  -2.107  0.00  0.00    +0.256 C 
BRANCH  19  20
ATOM     20  C   UNL     1      -2.116   1.454  -1.785  0.00  0.00    +0.006 C 
ATOM     21  C   UNL     1      -2.953   0.562  -2.252  0.00  0.00    +0.007 C 
ENDBRANCH  19  20
ENDBRANCH  18  19
ENDBRANCH  15  18
ENDBRANCH   8  12
BRANCH  10  22
ATOM     22  N   UNL     1      -2.721   9.847   2.293  0.00  0.00    -0.358 N 
ATOM     23  H   UNL     1      -2.005   9.796   3.127  0.00  0.00    +0.142 HD
ATOM     24  H   UNL     1      -3.796   9.960   2.498  0.00  0.00    +0.142 HD
ENDBRANCH  10  22
BRANCH  11  25
ATOM     25  C   UNL     1      -0.032   9.593   1.899  0.00  0.00    +0.101 C 
ATOM     26  N   UNL     1       0.689   9.564   2.776  0.00  0.00    -0.191 NA
ENDBRANCH  11  25
BRANCH   9  27
ATOM     27  C   UNL     1      -3.662  11.250  -0.314  0.00  0.00    +0.091 C 
ATOM     28  N   UNL     1      -3.953  12.336  -0.478  0.00  0.00    -0.194 NA
ENDBRANCH   9  27
BRANCH   9  29
ATOM     29  C   UNL     1      -4.481   9.081   0.294  0.00  0.00    +0.091 C 
ATOM     30  N   UNL     1      -5.405   8.493   0.599  0.00  0.00    -0.194 NA
ENDBRANCH   9  29
TORSDOF 8
