REMARK  Name = ZINC54426001
REMARK  5 active torsions:
REMARK  status: ('A' for Active; 'I' for Inactive)
REMARK    1  A    between atoms: C_10  and  C_16
REMARK    2  A    between atoms: C_20  and  O_22
REMARK    3  A    between atoms: O_22  and  C_23
REMARK    4  A    between atoms: C_23  and  C_24
REMARK    5  A    between atoms: C_28  and  C_30
REMARK                            x       y       z     vdW  Elec       q    Type
REMARK                         _______ _______ _______ _____ _____    ______ ____
ROOT
ATOM      1  C   UNL     1      -0.017   1.372   0.010  0.00  0.00    +0.002 A 
ATOM      2  C   UNL     1       1.170   2.091   0.002  0.00  0.00    +0.002 A 
ATOM      3  C   UNL     1       2.384   1.437  -0.015  0.00  0.00    +0.028 A 
ATOM      4  C   UNL     1       2.424   0.050  -0.023  0.00  0.00    +0.072 A 
ATOM      5  C   UNL     1       1.223  -0.683  -0.013  0.00  0.00    +0.091 A 
ATOM      6  C   UNL     1       0.002  -0.004   0.002  0.00  0.00    +0.030 A 
ATOM      7  N   UNL     1       1.555  -2.003  -0.020  0.00  0.00    -0.214 NA
ATOM      8  C   UNL     1       2.850  -2.125  -0.032  0.00  0.00    +0.205 A 
ATOM      9  N   UNL     1       3.436  -0.883  -0.043  0.00  0.00    -0.288 N 
ATOM     10  C   UNL     1       4.886  -0.668  -0.080  0.00  0.00    +0.209 C 
ATOM     11  N   UNL     1       5.538  -1.950   0.247  0.00  0.00    -0.294 N 
ATOM     12  C   UNL     1       4.974  -3.112  -0.261  0.00  0.00    +0.159 C 
ATOM     13  N   UNL     1       3.609  -3.293  -0.032  0.00  0.00    -0.259 N 
ATOM     14  N   UNL     1       5.681  -3.988  -0.917  0.00  0.00    -0.375 N 
ATOM     15  H   UNL     1       6.335  -1.981   0.799  0.00  0.00    +0.151 HD
ATOM     16  H   UNL     1       6.628  -3.836  -1.061  0.00  0.00    +0.158 HD
ATOM     17  H   UNL     1       3.218  -4.169   0.117  0.00  0.00    +0.158 HD
ATOM     18  H   UNL     1       5.261  -4.791  -1.261  0.00  0.00    +0.158 HD
ENDROOT
BRANCH  10  19
ATOM     19  C   UNL     1       5.301  -0.219  -1.457  0.00  0.00    -0.003 A 
ATOM     20  C   UNL     1       5.447  -1.147  -2.472  0.00  0.00    +0.007 A 
ATOM     21  C   UNL     1       5.828  -0.738  -3.736  0.00  0.00    +0.004 A 
ATOM     22  C   UNL     1       6.065   0.600  -3.989  0.00  0.00    +0.045 A 
ATOM     23  C   UNL     1       5.919   1.533  -2.972  0.00  0.00    +0.121 A 
ATOM     24  C   UNL     1       5.531   1.120  -1.706  0.00  0.00    +0.053 A 
BRANCH  23  25
ATOM     25  O   UNL     1       6.152   2.849  -3.218  0.00  0.00    -0.487 OA
BRANCH  25  26
ATOM     26  C   UNL     1       6.543   3.202  -4.547  0.00  0.00    +0.264 C 
BRANCH  26  27
ATOM     27  C   UNL     1       6.754   4.691  -4.629  0.00  0.00    -0.009 A 
ATOM     28  C   UNL     1       5.698   5.521  -4.961  0.00  0.00    +0.007 A 
ATOM     29  C   UNL     1       5.884   6.890  -5.039  0.00  0.00    +0.002 A 
ATOM     30  C   UNL     1       7.125   7.437  -4.786  0.00  0.00    +0.019 A 
ATOM     31  C   UNL     1       8.195   6.605  -4.450  0.00  0.00    +0.052 A 
ATOM     32  C   UNL     1       7.999   5.225  -4.368  0.00  0.00    +0.025 A 
BRANCH  31  33
ATOM     33  C   UNL     1       9.486   7.165  -4.185  0.00  0.00    +0.099 C 
ATOM     34  N   UNL     1      10.510   7.610  -3.975  0.00  0.00    -0.191 NA
ENDBRANCH  31  33
ENDBRANCH  26  27
ENDBRANCH  25  26
ENDBRANCH  23  25
ENDBRANCH  10  19
TORSDOF 5
