REMARK  Name = ZINC24215648
REMARK  7 active torsions:
REMARK  status: ('A' for Active; 'I' for Inactive)
REMARK    1  A    between atoms: C_1  and  C_2
REMARK    2  A    between atoms: C_5  and  S_8
REMARK    3  A    between atoms: S_8  and  N_11
REMARK    4  A    between atoms: N_11  and  C_12
REMARK    5  A    between atoms: C_12  and  C_13
REMARK    6  A    between atoms: C_13  and  N_14
REMARK    7  A    between atoms: N_19  and  C_24
REMARK                            x       y       z     vdW  Elec       q    Type
REMARK                         _______ _______ _______ _____ _____    ______ ____
ROOT
ATOM      1  C   UNL     1      -0.734   1.954   1.269  0.00  0.00    +0.124 C 
ENDROOT
BRANCH   1   2
ATOM      2  N   UNL     1      -0.754   3.419   1.277  0.00  0.00    -0.188 NA
ATOM      3  H   UNL     1       0.014   3.982   0.726  0.00  0.00    +0.148 HD
BRANCH   2   4
ATOM      4  S   UNL     1      -1.769   4.228   2.305  0.00  0.00    +0.058 S 
ATOM      5  O   UNL     1      -1.538   5.614   2.097  0.00  0.00    -0.153 OA
ATOM      6  O   UNL     1      -3.054   3.638   2.155  0.00  0.00    -0.153 OA
BRANCH   4  11
ATOM      7  C   UNL     1       0.041   3.004   7.929  0.00  0.00    +0.044 C 
ATOM      8  C   UNL     1      -0.412   3.310   6.525  0.00  0.00    -0.050 A 
ATOM      9  C   UNL     1       0.110   4.399   5.853  0.00  0.00    +0.005 A 
ATOM     10  C   UNL     1      -0.305   4.680   4.564  0.00  0.00    +0.029 A 
ATOM     11  C   UNL     1      -1.241   3.870   3.947  0.00  0.00    +0.105 A 
ATOM     12  C   UNL     1      -1.766   2.784   4.622  0.00  0.00    +0.029 A 
ATOM     13  C   UNL     1      -1.348   2.501   5.908  0.00  0.00    +0.005 A 
ENDBRANCH   4  11
ENDBRANCH   2   4
ENDBRANCH   1   2
BRANCH   1  14
ATOM     14  C   UNL     1      -0.018   1.461   0.010  0.00  0.00    +0.120 C 
BRANCH  14  15
ATOM     15  N   UNL     1       0.002  -0.004   0.002  0.00  0.00    -0.327 N 
ATOM     16  C   UNL     1       0.600  -0.681  -1.043  0.00  0.00    +0.133 A 
ATOM     17  C   UNL     1       0.628  -2.089  -1.068  0.00  0.00    +0.078 A 
ATOM     18  C   UNL     1       0.156  -3.107  -0.212  0.00  0.00    +0.148 A 
ATOM     19  N   UNL     1       0.463  -4.260  -0.734  0.00  0.00    -0.177 NA
ATOM     20  N   UNL     1       1.143  -4.065  -1.943  0.00  0.00    -0.249 N 
ATOM     21  C   UNL     1       1.251  -2.724  -2.160  0.00  0.00    +0.163 A 
ATOM     22  N   UNL     1       1.786  -1.972  -3.121  0.00  0.00    -0.216 NA
ATOM     23  C   UNL     1       1.734  -0.660  -3.054  0.00  0.00    +0.225 A 
ATOM     24  N   UNL     1       1.156  -0.020  -2.052  0.00  0.00    -0.220 NA
ATOM     25  C   UNL     1       1.650  -5.121  -2.823  0.00  0.00    +0.174 C 
ATOM     26  H   UNL     1      -0.459  -0.565   0.828  0.00  0.00    +0.148 HD
ENDBRANCH  14  15
ENDBRANCH   1  14
TORSDOF 5
