REMARK  Name = ZINC02379944
REMARK  7 active torsions:
REMARK  status: ('A' for Active; 'I' for Inactive)
REMARK    1  A    between atoms: C_1  and  O_2
REMARK    2  A    between atoms: O_2  and  C_3
REMARK    3  A    between atoms: C_6  and  O_24
REMARK    4  A    between atoms: C_7  and  C_9
REMARK    5  A    between atoms: N_10  and  N_11
REMARK    6  A    between atoms: C_12  and  C_14
REMARK    7  A    between atoms: N_16  and  C_17
REMARK                            x       y       z     vdW  Elec       q    Type
REMARK                         _______ _______ _______ _____ _____    ______ ____
ROOT
ATOM      1  N   UNL     1       1.956  -6.045  -3.397  0.00  0.00    -0.199 N 
ATOM      2  C   UNL     1       2.554  -6.638  -4.449  0.00  0.00    +0.318 C 
ATOM      3  O   UNL     1       3.041  -5.961  -5.332  0.00  0.00    -0.263 OA
ATOM      4  H   UNL     1       1.567  -6.586  -2.692  0.00  0.00    +0.178 HD
ENDROOT
BRANCH   2   5
ATOM      5  C   UNL     1       2.616  -8.125  -4.530  0.00  0.00    +0.305 C 
ATOM      6  O   UNL     1       2.129  -8.802  -3.648  0.00  0.00    -0.265 OA
ATOM      7  N   UNL     1       3.214  -8.718  -5.583  0.00  0.00    -0.278 N 
ATOM      8  H   UNL     1       3.543  -8.181  -6.320  0.00  0.00    +0.155 HD
BRANCH   7   9
ATOM      9  C   UNL     1       3.359 -10.108  -5.612  0.00  0.00    +0.034 A 
ATOM     10  C   UNL     1       4.491 -10.678  -6.181  0.00  0.00    +0.024 A 
ATOM     11  C   UNL     1       4.631 -12.051  -6.208  0.00  0.00    +0.017 A 
ATOM     12  C   UNL     1       3.646 -12.860  -5.670  0.00  0.00    +0.018 A 
ATOM     13  C   UNL     1       2.517 -12.295  -5.102  0.00  0.00    +0.017 A 
ATOM     14  C   UNL     1       2.373 -10.922  -5.067  0.00  0.00    +0.024 A 
ATOM     15 BR   UNL     1       3.842 -14.740  -5.710  0.00  0.00    -0.050 Br
ENDBRANCH   7   9
ENDBRANCH   2   5
BRANCH   1  17
ATOM     16  C   UNL     1       1.321  -4.075  -2.306  0.00  0.00    +0.142 C 
ATOM     17  N   UNL     1       1.897  -4.647  -3.321  0.00  0.00    -0.187 NA
BRANCH  16  22
ATOM     18  C   UNL     1       0.585  -0.607  -1.070  0.00  0.00    +0.121 A 
ATOM     19  C   UNL     1       1.143   0.164  -2.081  0.00  0.00    +0.049 A 
ATOM     20  C   UNL     1       1.757  -0.440  -3.161  0.00  0.00    +0.049 A 
ATOM     21  C   UNL     1       1.820  -1.821  -3.243  0.00  0.00    +0.126 A 
ATOM     22  C   UNL     1       1.259  -2.606  -2.227  0.00  0.00    +0.039 A 
ATOM     23  C   UNL     1       0.645  -1.987  -1.134  0.00  0.00    +0.058 A 
BRANCH  18  25
ATOM     24  C   UNL     1      -0.044   1.425  -0.007  0.00  0.00    +0.277 C 
ATOM     25  O   UNL     1      -0.018  -0.004  -0.010  0.00  0.00    -0.495 OA
ENDBRANCH  18  25
BRANCH  21  26
ATOM     26  O   UNL     1       2.423  -2.413  -4.307  0.00  0.00    -0.506 OA
ATOM     27  H   UNL     1       3.369  -2.575  -4.183  0.00  0.00    +0.292 HD
ENDBRANCH  21  26
ENDBRANCH  16  22
ENDBRANCH   1  17
TORSDOF 6
