REMARK  Name = ZINC06589459
REMARK  5 active torsions:
REMARK  status: ('A' for Active; 'I' for Inactive)
REMARK    1  A    between atoms: C_4  and  O_7
REMARK    2  A    between atoms: O_7  and  C_8
REMARK    3  A    between atoms: C_8  and  C_9
REMARK    4  A    between atoms: C_12  and  C_14
REMARK    5  A    between atoms: C_18  and  C_27
REMARK                            x       y       z     vdW  Elec       q    Type
REMARK                         _______ _______ _______ _____ _____    ______ ____
ROOT
ATOM      1  C   UNL     1       2.477   1.487  -0.012  0.00  0.00    +0.286 C 
ATOM      2  O   UNL     1       2.762   0.309   0.100  0.00  0.00    -0.266 OA
ATOM      3  N   UNL     1       3.454   2.410  -0.118  0.00  0.00    -0.258 N 
ATOM      4  C   UNL     1       3.146   3.850  -0.112  0.00  0.00    +0.168 C 
ATOM      5  C   UNL     1       4.199   4.545   0.762  0.00  0.00    +0.276 C 
ATOM      6  O   UNL     1       5.496   4.273   0.227  0.00  0.00    -0.476 OA
ATOM      7  C   UNL     1       5.804   2.980  -0.059  0.00  0.00    +0.143 A 
ATOM      8  C   UNL     1       4.802   2.031  -0.233  0.00  0.00    +0.079 A 
ATOM      9  C   UNL     1       5.132   0.717  -0.523  0.00  0.00    +0.027 A 
ATOM     10  C   UNL     1       6.460   0.349  -0.632  0.00  0.00    +0.002 A 
ATOM     11  C   UNL     1       7.457   1.290  -0.452  0.00  0.00    +0.004 A 
ATOM     12  C   UNL     1       7.133   2.601  -0.174  0.00  0.00    +0.047 A 
ENDROOT
BRANCH   1  16
ATOM     13  C   UNL     1      -0.722   3.155  -0.208  0.00  0.00    +0.143 A 
ATOM     14  C   UNL     1      -1.148   1.904   0.074  0.00  0.00    +0.049 A 
ATOM     15  C   UNL     1      -0.007   1.096   0.195  0.00  0.00    +0.055 A 
ATOM     16  C   UNL     1       1.071   1.903  -0.031  0.00  0.00    +0.190 A 
ATOM     17  O   UNL     1       0.616   3.149  -0.274  0.00  0.00    -0.452 OA
BRANCH  13  18
ATOM     18  C   UNL     1      -1.606   4.357  -0.420  0.00  0.00    +0.303 C 
BRANCH  18  19
ATOM     19  O   UNL     1      -1.819   5.018   0.829  0.00  0.00    -0.484 OA
BRANCH  19  23
ATOM     20  C   UNL     1      -4.191   8.392   0.781  0.00  0.00    +0.000 A 
ATOM     21  C   UNL     1      -3.644   7.950   1.972  0.00  0.00    +0.004 A 
ATOM     22  C   UNL     1      -2.849   6.820   1.990  0.00  0.00    +0.045 A 
ATOM     23  C   UNL     1      -2.600   6.129   0.813  0.00  0.00    +0.121 A 
ATOM     24  C   UNL     1      -3.146   6.578  -0.381  0.00  0.00    +0.045 A 
ATOM     25  C   UNL     1      -3.945   7.706  -0.393  0.00  0.00    +0.004 A 
ENDBRANCH  19  23
ENDBRANCH  18  19
ENDBRANCH  13  18
ENDBRANCH   1  16
BRANCH   5  26
ATOM     26  C   UNL     1       3.954   6.033   0.761  0.00  0.00    +0.253 C 
ATOM     27  O   UNL     1       4.773   6.781   0.271  0.00  0.00    -0.272 OA
ATOM     28  N   UNL     1       2.826   6.530   1.304  0.00  0.00    -0.326 N 
ATOM     29  H   UNL     1       2.171   5.931   1.696  0.00  0.00    +0.145 HD
ATOM     30  H   UNL     1       2.669   7.487   1.304  0.00  0.00    +0.145 HD
ENDBRANCH   5  26
TORSDOF 5
