REMARK  Name = ZINC08934896
REMARK  10 active torsions:
REMARK  status: ('A' for Active; 'I' for Inactive)
REMARK    1  A    between atoms: C_1  and  C_2
REMARK    2  A    between atoms: C_3  and  C_30
REMARK    3  A    between atoms: C_4  and  C_20
REMARK    4  A    between atoms: C_10  and  C_15
REMARK    5  A    between atoms: C_23  and  C_26
REMARK    6  A    between atoms: C_30  and  O_32
REMARK    7  A    between atoms: O_32  and  C_33
REMARK    8  A    between atoms: C_33  and  C_34
REMARK    9  A    between atoms: C_34  and  O_35
REMARK   10  A    between atoms: O_35  and  C_36
REMARK                            x       y       z     vdW  Elec       q    Type
REMARK                         _______ _______ _______ _____ _____    ______ ____
ROOT
ATOM      1  C   UNL     1       4.698  -2.780   1.556  0.00  0.00    +0.061 C 
ATOM      2  C   UNL     1       3.365  -2.121   1.307  0.00  0.00    +0.031 C 
ATOM      3  C   UNL     1       2.454  -2.731   0.530  0.00  0.00    +0.154 C 
ATOM      4  C   UNL     1       1.113  -2.108   0.268  0.00  0.00    +0.073 C 
ATOM      5  C   UNL     1       1.130  -0.635   0.590  0.00  0.00    +0.025 C 
ATOM      6  C   UNL     1       2.097  -0.112   1.375  0.00  0.00    +0.049 C 
ATOM      7  N   UNL     1       3.092  -0.908   1.875  0.00  0.00    -0.260 NA
ATOM      8  C   UNL     1       2.106   1.356   1.722  0.00  0.00    +0.065 C 
ATOM      9  C   UNL     1       1.501   2.159   0.564  0.00  0.00    +0.039 C 
ATOM     10  C   UNL     1       0.074   1.655   0.321  0.00  0.00    +0.088 C 
ATOM     11  C   UNL     1       0.115   0.176   0.052  0.00  0.00    +0.162 C 
ATOM     12  O   UNL     1      -0.745  -0.328  -0.642  0.00  0.00    -0.292 OA
ENDROOT
BRANCH   4  13
ATOM     13  C   UNL     1       0.071  -2.788   1.118  0.00  0.00    -0.039 A 
ATOM     14  C   UNL     1       0.170  -2.749   2.496  0.00  0.00    +0.005 A 
ATOM     15  C   UNL     1      -0.788  -3.369   3.276  0.00  0.00    +0.012 A 
ATOM     16  C   UNL     1      -1.840  -4.037   2.677  0.00  0.00    +0.055 A 
ATOM     17  C   UNL     1      -1.937  -4.080   1.299  0.00  0.00    +0.012 A 
ATOM     18  C   UNL     1      -0.981  -3.456   0.519  0.00  0.00    +0.005 A 
BRANCH  16  19
ATOM     19  C   UNL     1      -2.881  -4.718   3.527  0.00  0.00    +0.417 C 
ATOM     20  F   UNL     1      -2.490  -6.038   3.775  0.00  0.00    -0.166 F 
ATOM     21  F   UNL     1      -3.013  -4.035   4.741  0.00  0.00    -0.166 F 
ATOM     22  F   UNL     1      -4.108  -4.714   2.855  0.00  0.00    -0.166 F 
ENDBRANCH  16  19
ENDBRANCH   4  13
BRANCH   9  23
ATOM     23  C   UNL     1       1.468   3.621   0.926  0.00  0.00    -0.006 A 
ATOM     24  C   UNL     1       2.046   4.670   0.293  0.00  0.00    +0.011 A 
ATOM     25  C   UNL     1       1.879   5.941   0.811  0.00  0.00    +0.008 A 
ATOM     26  C   UNL     1       1.141   6.100   1.937  0.00  0.00    +0.045 A 
ATOM     27  S   UNL     1       0.649   4.421   2.296  0.00  0.00    -0.101 S 
ENDBRANCH   9  23
BRANCH   3  28
ATOM     28  C   UNL     1       2.763  -3.982  -0.051  0.00  0.00    +0.317 C 
ATOM     29  O   UNL     1       3.885  -4.441   0.053  0.00  0.00    -0.250 OA
BRANCH  28  30
ATOM     30  O   UNL     1       1.813  -4.669  -0.721  0.00  0.00    -0.462 OA
BRANCH  30  31
ATOM     31  C   UNL     1       2.196  -5.926  -1.282  0.00  0.00    +0.260 C 
BRANCH  31  32
ATOM     32  C   UNL     1       0.996  -6.551  -1.997  0.00  0.00    +0.200 C 
BRANCH  32  33
ATOM     33  O   UNL     1       0.628  -5.737  -3.111  0.00  0.00    -0.380 OA
ATOM     34  C   UNL     1      -0.488  -6.234  -3.852  0.00  0.00    +0.194 C 
ENDBRANCH  32  33
ENDBRANCH  31  32
ENDBRANCH  30  31
ENDBRANCH  28  30
ENDBRANCH   3  28
TORSDOF 8
