REMARK  Name = ZINC09296388
REMARK  8 active torsions:
REMARK  status: ('A' for Active; 'I' for Inactive)
REMARK    1  A    between atoms: C_1  and  O_2
REMARK    2  A    between atoms: O_2  and  C_3
REMARK    3  A    between atoms: C_3  and  C_5
REMARK    4  A    between atoms: C_6  and  N_27
REMARK    5  A    between atoms: C_10  and  C_12
REMARK    6  A    between atoms: C_15  and  O_18
REMARK    7  A    between atoms: O_18  and  C_19
REMARK    8  A    between atoms: C_19  and  C_20
REMARK                            x       y       z     vdW  Elec       q    Type
REMARK                         _______ _______ _______ _____ _____    ______ ____
ROOT
ATOM      1  C   UNL     1       2.449   4.936   1.308  0.00  0.00    +0.105 C 
ATOM      2  C   UNL     1       2.503   6.260   1.009  0.00  0.00    +0.195 C 
ATOM      3  O   UNL     1       2.253   6.705  -0.231  0.00  0.00    -0.446 OA
ATOM      4  C   UNL     1       2.374   5.870  -1.280  0.00  0.00    +0.115 C 
ATOM      5  C   UNL     1       2.307   4.535  -1.124  0.00  0.00    +0.045 C 
ATOM      6  C   UNL     1       2.107   3.930   0.244  0.00  0.00    +0.097 C 
ATOM      7  C   UNL     1       2.418   3.663  -2.224  0.00  0.00    +0.163 C 
ATOM      8  O   UNL     1       2.366   2.463  -2.042  0.00  0.00    -0.292 OA
ATOM      9  C   UNL     1       2.602   4.190  -3.622  0.00  0.00    +0.080 C 
ATOM     10  C   UNL     1       1.964   5.580  -3.715  0.00  0.00    +0.016 C 
ATOM     11  C   UNL     1       2.595   6.475  -2.647  0.00  0.00    +0.075 C 
ENDROOT
BRANCH   6  12
ATOM     12  C   UNL     1       0.669   3.508   0.399  0.00  0.00    -0.035 A 
ATOM     13  C   UNL     1       0.360   2.181   0.631  0.00  0.00    +0.008 A 
ATOM     14  C   UNL     1      -0.958   1.791   0.774  0.00  0.00    +0.046 A 
ATOM     15  C   UNL     1      -1.972   2.733   0.679  0.00  0.00    +0.122 A 
ATOM     16  C   UNL     1      -1.660   4.065   0.451  0.00  0.00    +0.046 A 
ATOM     17  C   UNL     1      -0.340   4.449   0.309  0.00  0.00    +0.008 A 
BRANCH  15  18
ATOM     18  O   UNL     1      -3.269   2.351   0.814  0.00  0.00    -0.480 OA
BRANCH  18  19
ATOM     19  C   UNL     1      -4.261   3.374   0.705  0.00  0.00    +0.317 C 
BRANCH  19  20
ATOM     20  C   UNL     1      -5.598   2.782   0.876  0.00  0.00    -0.065 C 
ATOM     21  C   UNL     1      -6.664   2.309   1.012  0.00  0.00    +0.007 C 
ENDBRANCH  19  20
ENDBRANCH  18  19
ENDBRANCH  15  18
ENDBRANCH   6  12
BRANCH   2  22
ATOM     22  N   UNL     1       2.821   7.158   1.992  0.00  0.00    -0.329 N 
ATOM     23  H   UNL     1       3.517   6.948   2.634  0.00  0.00    +0.145 HD
ATOM     24  H   UNL     1       2.349   8.004   2.048  0.00  0.00    +0.145 HD
ENDBRANCH   2  22
BRANCH   1  25
ATOM     25  C   UNL     1       2.712   4.505   2.618  0.00  0.00    +0.341 C 
ATOM     26  O   UNL     1       2.870   5.322   3.507  0.00  0.00    -0.245 OA
BRANCH  25  28
ATOM     27  C   UNL     1       3.061   2.817   4.245  0.00  0.00    +0.280 C 
ATOM     28  O   UNL     1       2.791   3.185   2.891  0.00  0.00    -0.465 OA
ENDBRANCH  25  28
ENDBRANCH   1  25
TORSDOF 7
