REMARK  Name = ZINC39843239
REMARK  5 active torsions:
REMARK  status: ('A' for Active; 'I' for Inactive)
REMARK    1  A    between atoms: C_1  and  C_2
REMARK    2  A    between atoms: C_5  and  C_8
REMARK    3  A    between atoms: C_8  and  C_10
REMARK    4  A    between atoms: C_10  and  C_11
REMARK    5  A    between atoms: N_17  and  N_18
REMARK                            x       y       z     vdW  Elec       q    Type
REMARK                         _______ _______ _______ _____ _____    ______ ____
ROOT
ATOM      1  C   UNL     1       0.093  -6.508   0.992  0.00  0.00    +0.147 C 
ATOM      2  C   UNL     1       0.136  -7.317   2.280  0.00  0.00    +0.232 C 
ATOM      3  O   UNL     1       1.050  -7.258   3.075  0.00  0.00    -0.274 OA
ATOM      4  N   UNL     1      -0.926  -8.092   2.446  0.00  0.00    -0.263 N 
ATOM      5  C   UNL     1      -1.945  -8.143   1.538  0.00  0.00    +0.183 C 
ATOM      6  N   UNL     1      -3.048  -8.881   1.611  0.00  0.00    -0.126 NA
ATOM      7  S   UNL     1      -1.517  -7.076   0.308  0.00  0.00    -0.075 S 
ATOM      8  H   UNL     1      -0.982  -8.644   3.241  0.00  0.00    +0.157 HD
ENDROOT
BRANCH   6   9
ATOM      9  N   UNL     1      -3.239  -9.658   2.623  0.00  0.00    -0.142 NA
ATOM     10  C   UNL     1      -4.337 -10.393   2.695  0.00  0.00    +0.157 C 
ATOM     11  C   UNL     1      -4.724 -11.327   3.774  0.00  0.00    +0.028 A 
ATOM     12  C   UNL     1      -4.118 -11.712   4.966  0.00  0.00    +0.012 A 
ATOM     13  C   UNL     1      -4.743 -12.630   5.786  0.00  0.00    +0.001 A 
ATOM     14  C   UNL     1      -5.967 -13.165   5.423  0.00  0.00    +0.002 A 
ATOM     15  C   UNL     1      -6.577 -12.791   4.242  0.00  0.00    +0.024 A 
ATOM     16  C   UNL     1      -5.964 -11.867   3.403  0.00  0.00    +0.043 A 
ATOM     17  N   UNL     1      -6.349 -11.326   2.183  0.00  0.00    -0.280 N 
ATOM     18  C   UNL     1      -5.437 -10.452   1.724  0.00  0.00    +0.269 C 
ATOM     19  O   UNL     1      -5.509  -9.822   0.684  0.00  0.00    -0.268 OA
ATOM     20  H   UNL     1      -7.174 -11.548   1.722  0.00  0.00    +0.155 HD
ENDBRANCH   6   9
BRANCH   1  21
ATOM     21  C   UNL     1       0.075  -5.006   1.280  0.00  0.00    +0.103 C 
BRANCH  21  22
ATOM     22  C   UNL     1       0.058  -4.245  -0.021  0.00  0.00    +0.165 C 
ATOM     23  O   UNL     1       0.060  -4.846  -1.075  0.00  0.00    -0.292 OA
BRANCH  22  28
ATOM     24  C   UNL     1      -0.018   1.503   0.010  0.00  0.00    +0.044 C 
ATOM     25  C   UNL     1       0.002  -0.004   0.002  0.00  0.00    -0.050 A 
ATOM     26  C   UNL     1       0.006  -0.686  -1.202  0.00  0.00    +0.004 A 
ATOM     27  C   UNL     1       0.024  -2.064  -1.218  0.00  0.00    +0.011 A 
ATOM     28  C   UNL     1       0.039  -2.774  -0.013  0.00  0.00    +0.017 A 
ATOM     29  C   UNL     1       0.036  -2.078   1.200  0.00  0.00    +0.011 A 
ATOM     30  C   UNL     1       0.023  -0.699   1.199  0.00  0.00    +0.004 A 
ENDBRANCH  22  28
ENDBRANCH  21  22
ENDBRANCH   1  21
TORSDOF 4
