REMARK  Name = ZINC25665593
REMARK  2 active torsions:
REMARK  status: ('A' for Active; 'I' for Inactive)
REMARK    1  A    between atoms: C_3  and  C_8
REMARK    2  A    between atoms: N_9  and  C_10
REMARK                            x       y       z     vdW  Elec       q    Type
REMARK                         _______ _______ _______ _____ _____    ______ ____
ROOT
ATOM      1  C   UNL     1       1.166  -2.331   0.717  0.00  0.00    +0.122 C 
ATOM      2  N   UNL     1       0.143  -2.829   0.083  0.00  0.00    -0.218 NA
ENDROOT
BRANCH   1   5
ATOM      3  C   UNL     1       1.857   0.347   3.252  0.00  0.00    +0.002 A 
ATOM      4  C   UNL     1       2.056  -0.614   2.283  0.00  0.00    +0.009 A 
ATOM      5  C   UNL     1       0.962  -1.304   1.753  0.00  0.00    -0.006 A 
ATOM      6  C   UNL     1      -0.327  -1.014   2.210  0.00  0.00    +0.023 A 
ATOM      7  C   UNL     1      -0.510  -0.050   3.180  0.00  0.00    +0.014 A 
ATOM      8  C   UNL     1       0.579   0.629   3.700  0.00  0.00    +0.014 A 
ATOM      9  I   UNL     1      -2.441   0.393   3.861  0.00  0.00    -0.044 I 
ENDBRANCH   1   5
BRANCH   2  10
ATOM     10  C   UNL     1      -1.058  -2.171   0.098  0.00  0.00    +0.267 A 
ATOM     11  N   UNL     1      -2.249  -2.708   0.290  0.00  0.00    -0.224 N 
ATOM     12  N   UNL     1      -3.121  -1.760   0.240  0.00  0.00    -0.045 NA
ATOM     13  H   UNL     1      -2.345  -3.791   0.455  0.00  0.00    +0.194 HD
ATOM     14  N   UNL     1      -2.524  -0.643   0.008  0.00  0.00    -0.021 NA
ATOM     15  N   UNL     1      -1.255  -0.855  -0.080  0.00  0.00    -0.088 NA
ENDBRANCH   2  10
TORSDOF 2
