REMARK  Name = ZINC65535187
REMARK  7 active torsions:
REMARK  status: ('A' for Active; 'I' for Inactive)
REMARK    1  A    between atoms: C_1  and  C_2
REMARK    2  A    between atoms: C_8  and  C_12
REMARK    3  A    between atoms: C_12  and  C_13
REMARK    4  A    between atoms: C_13  and  N_14
REMARK    5  A    between atoms: N_14  and  C_15
REMARK    6  A    between atoms: C_16  and  C_18
REMARK    7  A    between atoms: C_28  and  C_30
REMARK                            x       y       z     vdW  Elec       q    Type
REMARK                         _______ _______ _______ _____ _____    ______ ____
ROOT
ATOM      1  N   UNL     1      -2.400  -2.865   6.106  0.00  0.00    -0.299 N 
ATOM      2  C   UNL     1      -3.675  -3.515   5.796  0.00  0.00    +0.132 C 
ATOM      3  C   UNL     1      -2.164  -2.403   7.350  0.00  0.00    +0.261 C 
ATOM      4  O   UNL     1      -1.148  -1.778   7.584  0.00  0.00    -0.269 OA
ENDROOT
BRANCH   3   5
ATOM      5  C   UNL     1      -3.140  -2.656   8.429  0.00  0.00    +0.101 C 
ATOM      6  C   UNL     1      -3.069  -2.142   9.674  0.00  0.00    +0.024 C 
ATOM      7  C   UNL     1      -4.283  -2.669  10.386  0.00  0.00    +0.118 C 
ATOM      8  C   UNL     1      -5.046  -1.649  11.222  0.00  0.00    +0.132 C 
ATOM      9  N   UNL     1      -6.307  -2.308  11.626  0.00  0.00    -0.299 N 
ATOM     10  C   UNL     1      -7.137  -2.986  10.622  0.00  0.00    +0.125 C 
ATOM     11  C   UNL     1      -6.253  -3.863   9.712  0.00  0.00    +0.125 C 
ATOM     12  N   UNL     1      -5.161  -3.040   9.243  0.00  0.00    -0.219 NA
ATOM     13  N   UNL     1      -4.290  -3.466   8.309  0.00  0.00    -0.273 N 
ATOM     14  C   UNL     1      -6.694  -2.286  12.916  0.00  0.00    +0.213 C 
ATOM     15  O   UNL     1      -6.008  -1.726  13.746  0.00  0.00    -0.276 OA
ATOM     16  C   UNL     1      -7.978  -2.957  13.329  0.00  0.00    +0.109 C 
ATOM     17  H   UNL     1      -4.427  -4.191   7.678  0.00  0.00    +0.167 HD
ENDBRANCH   3   5
BRANCH   1  18
ATOM     18  C   UNL     1      -1.381  -2.717   5.065  0.00  0.00    +0.111 C 
BRANCH  18  19
ATOM     19  C   UNL     1      -1.587  -1.388   4.334  0.00  0.00    +0.065 C 
BRANCH  19  27
ATOM     20  C   UNL     1      -1.101   2.243   0.375  0.00  0.00    +0.046 C 
ATOM     21  C   UNL     1      -1.129   0.749   0.187  0.00  0.00    -0.025 A 
ATOM     22  C   UNL     1      -1.364   0.223  -1.032  0.00  0.00    +0.005 A 
ATOM     23  C   UNL     1      -1.401  -1.163  -1.266  0.00  0.00    +0.002 A 
ATOM     24  C   UNL     1      -1.206  -2.071  -0.288  0.00  0.00    +0.027 A 
ATOM     25  C   UNL     1      -0.942  -1.613   1.083  0.00  0.00    +0.060 A 
ATOM     26  N   UNL     1      -0.721  -2.244   2.200  0.00  0.00    -0.363 N 
ATOM     27  C   UNL     1      -0.523  -1.233   3.246  0.00  0.00    +0.175 C 
ATOM     28  N   UNL     1      -0.658   0.073   2.590  0.00  0.00    -0.363 N 
ATOM     29  C   UNL     1      -0.896  -0.146   1.329  0.00  0.00    +0.063 A 
ATOM     30  H   UNL     1      -0.580   0.941   3.017  0.00  0.00    +0.162 HD
ATOM     31  H   UNL     1      -0.693  -3.207   2.319  0.00  0.00    +0.162 HD
ENDBRANCH  19  27
ENDBRANCH  18  19
ENDBRANCH   1  18
TORSDOF 4
