REMARK  Name = ZINC09910346
REMARK  8 active torsions:
REMARK  status: ('A' for Active; 'I' for Inactive)
REMARK    1  A    between atoms: C_4  and  C_7
REMARK    2  A    between atoms: C_7  and  C_9
REMARK    3  A    between atoms: C_7  and  N_58
REMARK    4  A    between atoms: C_14  and  C_15
REMARK    5  A    between atoms: C_14  and  N_58
REMARK    6  A    between atoms: N_17  and  C_18
REMARK    7  A    between atoms: C_21  and  S_24
REMARK    8  A    between atoms: S_24  and  N_27
REMARK                            x       y       z     vdW  Elec       q    Type
REMARK                         _______ _______ _______ _____ _____    ______ ____
ROOT
ATOM      1  C   UNL     1       1.641  -3.295  -3.194  0.00  0.00    +0.200 C 
ATOM      2  O   UNL     1       0.883  -4.107  -2.707  0.00  0.00    -0.278 OA
ATOM      3  N   UNL     1       1.872  -3.301  -4.522  0.00  0.00    -0.287 N 
ATOM      4  H   UNL     1       2.425  -2.611  -4.921  0.00  0.00    +0.155 HD
ENDROOT
BRANCH   3   5
ATOM      5  C   UNL     1       1.315  -4.303  -5.324  0.00  0.00    +0.033 A 
ATOM      6  C   UNL     1       2.017  -4.787  -6.420  0.00  0.00    +0.025 A 
ATOM      7  C   UNL     1       1.467  -5.780  -7.207  0.00  0.00    +0.030 A 
ATOM      8  C   UNL     1       0.214  -6.284  -6.911  0.00  0.00    +0.106 A 
ATOM      9  C   UNL     1      -0.490  -5.800  -5.824  0.00  0.00    +0.030 A 
ATOM     10  C   UNL     1       0.057  -4.811  -5.030  0.00  0.00    +0.025 A 
BRANCH   8  11
ATOM     11  S   UNL     1      -0.487  -7.546  -7.921  0.00  0.00    +0.061 S 
ATOM     12  O   UNL     1       0.599  -8.211  -8.553  0.00  0.00    -0.153 OA
ATOM     13  O   UNL     1      -1.435  -8.231  -7.115  0.00  0.00    -0.153 OA
BRANCH  11  14
ATOM     14  N   UNL     1      -1.343  -6.792  -9.122  0.00  0.00    -0.177 NA
ATOM     15  C   UNL     1      -2.764  -6.468  -8.938  0.00  0.00    +0.109 C 
ATOM     16  C   UNL     1      -2.965  -4.972  -9.225  0.00  0.00    +0.017 C 
ATOM     17  C   UNL     1      -2.422  -4.648 -10.618  0.00  0.00    +0.003 C 
ATOM     18  C   UNL     1      -0.923  -4.951 -10.667  0.00  0.00    +0.017 C 
ATOM     19  C   UNL     1      -0.698  -6.441 -10.395  0.00  0.00    +0.109 C 
ENDBRANCH  11  14
ENDBRANCH   8  11
ENDBRANCH   3   5
BRANCH   1  20
ATOM     20  C   UNL     1       2.324  -2.279  -2.315  0.00  0.00    +0.016 C 
BRANCH  20  21
ATOM     21  N   UNL     1       1.902  -2.489  -0.917  0.00  0.00    +0.392 N 
ATOM     22  H   UNL     1       0.883  -2.379  -0.850  0.00  0.00    -0.084 HD
ATOM     23  H   UNL     1       2.164  -3.437  -0.622  0.00  0.00    -0.084 HD
BRANCH  21  24
ATOM     24  C   UNL     1       2.556  -1.506  -0.032  0.00  0.00    -0.003 C 
BRANCH  24  28
ATOM     25  C   UNL     1       2.762  -3.102   3.925  0.00  0.00    +0.000 A 
ATOM     26  C   UNL     1       3.828  -2.387   3.412  0.00  0.00    +0.000 A 
ATOM     27  C   UNL     1       3.761  -1.871   2.132  0.00  0.00    +0.002 A 
ATOM     28  C   UNL     1       2.629  -2.070   1.364  0.00  0.00    -0.057 A 
ATOM     29  C   UNL     1       1.561  -2.780   1.879  0.00  0.00    +0.002 A 
ATOM     30  C   UNL     1       1.629  -3.300   3.158  0.00  0.00    +0.000 A 
ENDBRANCH  24  28
BRANCH  24  31
ATOM     31  C   UNL     1       1.755  -0.230  -0.018  0.00  0.00    -0.020 A 
ATOM     32  C   UNL     1       2.193   1.053  -0.016  0.00  0.00    +0.010 A 
ATOM     33  C   UNL     1       1.266   2.078  -0.001  0.00  0.00    +0.008 A 
ATOM     34  C   UNL     1      -0.054   1.769   0.011  0.00  0.00    +0.045 A 
ATOM     35  S   UNL     1      -0.017  -0.015   0.002  0.00  0.00    -0.103 S 
ENDBRANCH  24  31
ENDBRANCH  21  24
ENDBRANCH  20  21
ENDBRANCH   1  20
TORSDOF 8
