REMARK  Name = ZINC03424675
REMARK  8 active torsions:
REMARK  status: ('A' for Active; 'I' for Inactive)
REMARK    1  A    between atoms: C_1  and  C_2
REMARK    2  A    between atoms: C_5  and  C_9
REMARK    3  A    between atoms: C_6  and  C_8
REMARK    4  A    between atoms: C_9  and  O_11
REMARK    5  A    between atoms: O_11  and  C_12
REMARK    6  A    between atoms: C_12  and  C_14
REMARK    7  A    between atoms: C_12  and  C_15
REMARK    8  A    between atoms: N_17  and  C_18
REMARK                            x       y       z     vdW  Elec       q    Type
REMARK                         _______ _______ _______ _____ _____    ______ ____
ROOT
ATOM      1  C   UNL     1       3.673  -1.975  -0.245  0.00  0.00    +0.258 C 
ATOM      2  O   UNL     1       2.635  -2.575  -0.429  0.00  0.00    -0.271 OA
ATOM      3  N   UNL     1       3.700  -0.630  -0.335  0.00  0.00    -0.282 N 
ATOM      4  H   UNL     1       4.542  -0.156  -0.262  0.00  0.00    +0.155 HD
ENDROOT
BRANCH   3   5
ATOM      5  C   UNL     1       2.509   0.082  -0.533  0.00  0.00    +0.037 A 
ATOM      6  C   UNL     1       1.324  -0.376   0.027  0.00  0.00    +0.027 A 
ATOM      7  C   UNL     1       0.151   0.325  -0.168  0.00  0.00    +0.051 A 
ATOM      8  C   UNL     1       0.152   1.489  -0.923  0.00  0.00    +0.162 A 
ATOM      9  C   UNL     1       1.337   1.952  -1.483  0.00  0.00    +0.164 A 
ATOM     10  C   UNL     1       2.515   1.246  -1.288  0.00  0.00    +0.072 A 
ATOM     11  O   UNL     1       1.359   3.096  -2.219  0.00  0.00    -0.485 OA
ATOM     12  C   UNL     1       0.100   3.574  -2.705  0.00  0.00    +0.270 C 
ATOM     13  C   UNL     1      -0.911   3.522  -1.553  0.00  0.00    +0.270 C 
ATOM     14  O   UNL     1      -1.017   2.163  -1.111  0.00  0.00    -0.485 OA
ENDBRANCH   3   5
BRANCH   1  15
ATOM     15  C   UNL     1       4.933  -2.733   0.084  0.00  0.00    +0.259 C 
ATOM     16  C   UNL     1       5.390  -2.374   1.499  0.00  0.00    +0.062 C 
BRANCH  15  17
ATOM     17  O   UNL     1       4.674  -4.160   0.005  0.00  0.00    -0.449 OA
BRANCH  17  18
ATOM     18  C   UNL     1       5.706  -4.950  -0.347  0.00  0.00    +0.340 C 
ATOM     19  O   UNL     1       6.793  -4.461  -0.583  0.00  0.00    -0.245 OA
BRANCH  18  24
ATOM     20  C   UNL     1       4.967 -10.643  -0.737  0.00  0.00    +0.044 C 
ATOM     21  C   UNL     1       5.161  -9.152  -0.635  0.00  0.00    -0.050 A 
ATOM     22  C   UNL     1       4.139  -8.357  -0.146  0.00  0.00    +0.004 A 
ATOM     23  C   UNL     1       4.310  -6.991  -0.050  0.00  0.00    +0.015 A 
ATOM     24  C   UNL     1       5.517  -6.412  -0.447  0.00  0.00    +0.062 A 
ATOM     25  C   UNL     1       6.541  -7.220  -0.944  0.00  0.00    -0.036 A 
ATOM     26  C   UNL     1       6.359  -8.584  -1.031  0.00  0.00    +0.007 A 
ATOM     27  C   UNL     1       7.845  -6.603  -1.381  0.00  0.00    +0.044 C 
ENDBRANCH  18  24
ENDBRANCH  17  18
ENDBRANCH  15  17
ENDBRANCH   1  15
TORSDOF 5
