REMARK  Name = ZINC01438920
REMARK  2 active torsions:
REMARK  status: ('A' for Active; 'I' for Inactive)
REMARK    1  A    between atoms: C_1  and  C_2
REMARK    2  A    between atoms: C_2  and  C_17
REMARK                            x       y       z     vdW  Elec       q    Type
REMARK                         _______ _______ _______ _____ _____    ______ ____
ROOT
ATOM      1  C   UNL     1      -7.219   2.302   4.711  0.00  0.00    +0.031 C 
ATOM      2  C   UNL     1      -6.356   2.373   3.450  0.00  0.00    +0.033 C 
ATOM      3  C   UNL     1      -5.036   1.648   3.704  0.00  0.00    +0.061 C 
ATOM      4  C   UNL     1      -4.262   1.527   2.418  0.00  0.00    -0.033 A 
ATOM      5  C   UNL     1      -2.889   1.582   2.406  0.00  0.00    +0.008 A 
ATOM      6  C   UNL     1      -2.185   1.469   1.210  0.00  0.00    -0.044 A 
ATOM      7  C   UNL     1      -2.865   1.291   0.025  0.00  0.00    -0.043 A 
ATOM      8  C   UNL     1      -4.253   1.237   0.026  0.00  0.00    +0.017 A 
ATOM      9  C   UNL     1      -4.956   1.355   1.218  0.00  0.00    +0.040 A 
ATOM     10  C   UNL     1      -6.433   1.302   1.251  0.00  0.00    +0.245 C 
ATOM     11  O   UNL     1      -7.054   0.846   0.311  0.00  0.00    -0.270 OA
ATOM     12  N   UNL     1      -7.082   1.767   2.337  0.00  0.00    -0.306 N 
ATOM     13  C   UNL     1      -2.166   1.150  -1.296  0.00  0.00    +0.035 C 
ATOM     14  C   UNL     1      -0.714   1.572  -1.242  0.00  0.00    +0.005 C 
ATOM     15  C   UNL     1      -0.013   1.086   0.008  0.00  0.00    +0.005 C 
ATOM     16  C   UNL     1      -0.690   1.558   1.275  0.00  0.00    +0.035 C 
ATOM     17  C   UNL     1      -6.068   3.840   3.122  0.00  0.00    +0.031 C 
ATOM     18  H   UNL     1      -8.049   1.698   2.381  0.00  0.00    +0.150 HD
ENDROOT
TORSDOF 0
