REMARK  Name = ZINC01444421
REMARK  1 active torsions:
REMARK  status: ('A' for Active; 'I' for Inactive)
REMARK    1  A    between atoms: C_5  and  C_8
REMARK                            x       y       z     vdW  Elec       q    Type
REMARK                         _______ _______ _______ _____ _____    ______ ____
ROOT
ATOM      1  C   UNL     1       1.179   2.460  -0.100  0.00  0.00    +0.053 A 
ATOM      2  C   UNL     1       1.113   3.841   0.015  0.00  0.00    +0.068 A 
ATOM      3  C   UNL     1      -0.145   4.442   0.132  0.00  0.00    +0.145 A 
ATOM      4  N   UNL     1      -1.247   3.724   0.133  0.00  0.00    -0.233 NA
ATOM      5  C   UNL     1      -1.220   2.408   0.021  0.00  0.00    +0.113 A 
ATOM      6  C   UNL     1      -0.024   1.736  -0.093  0.00  0.00    +0.081 A 
ATOM      7 CL   UNL     1      -0.004   0.006  -0.234  0.00  0.00    -0.080 Cl
ATOM      8 CL   UNL     1      -0.255   6.169   0.277  0.00  0.00    -0.061 Cl
ATOM      9  S   UNL     1       2.704   4.608  -0.010  0.00  0.00    -0.036 S 
ATOM     10  C   UNL     1       3.877   3.289  -0.181  0.00  0.00    +0.256 A 
ATOM     11  O   UNL     1       5.092   3.351  -0.243  0.00  0.00    -0.272 OA
ATOM     12  S   UNL     1       2.832   1.858  -0.239  0.00  0.00    -0.038 S 
ENDROOT
BRANCH   5  13
ATOM     13  C   UNL     1      -2.513   1.633   0.023  0.00  0.00    +0.234 C 
ATOM     14 CL   UNL     1      -2.521   0.481   1.409  0.00  0.00    -0.077 Cl
ATOM     15 CL   UNL     1      -3.898   2.776   0.184  0.00  0.00    -0.077 Cl
ATOM     16 CL   UNL     1      -2.666   0.717  -1.522  0.00  0.00    -0.077 Cl
ENDBRANCH   5  13
TORSDOF 1
