REMARK  Name = ZINC20117166
REMARK  10 active torsions:
REMARK  status: ('A' for Active; 'I' for Inactive)
REMARK    1  A    between atoms: C_1  and  C_2
REMARK    2  A    between atoms: C_5  and  C_8
REMARK    3  A    between atoms: C_11  and  C_22
REMARK    4  A    between atoms: C_14  and  S_16
REMARK    5  A    between atoms: S_16  and  C_17
REMARK    6  A    between atoms: C_17  and  C_18
REMARK    7  A    between atoms: C_18  and  C_19
REMARK    8  A    between atoms: C_19  and  C_20
REMARK    9  A    between atoms: C_19  and  C_21
REMARK   10  A    between atoms: C_25  and  C_28
REMARK                            x       y       z     vdW  Elec       q    Type
REMARK                         _______ _______ _______ _____ _____    ______ ____
ROOT
ATOM      1  C   UNL     1      -3.516   7.272  -2.973  0.00  0.00    +0.129 C 
ATOM      2  C   UNL     1      -4.601   6.218  -3.195  0.00  0.00    +0.171 C 
ATOM      3  C   UNL     1      -3.924   4.854  -3.157  0.00  0.00    +0.137 C 
ATOM      4  N   UNL     1      -3.093   4.716  -1.966  0.00  0.00    -0.360 N 
ATOM      5  C   UNL     1      -2.632   5.724  -1.296  0.00  0.00    +0.129 C 
ATOM      6  N   UNL     1      -2.916   7.023  -1.652  0.00  0.00    -0.317 N 
ATOM      7  C   UNL     1      -5.569   6.298  -2.037  0.00  0.00    +0.260 C 
ATOM      8  O   UNL     1      -5.199   6.144  -0.892  0.00  0.00    -0.272 OA
ATOM      9  N   UNL     1      -6.865   6.546  -2.331  0.00  0.00    -0.127 NA
ATOM     10  C   UNL     1      -7.281   6.717  -3.591  0.00  0.00    +0.332 C 
ATOM     11  O   UNL     1      -8.463   6.938  -3.766  0.00  0.00    -0.250 OA
ATOM     12  N   UNL     1      -6.497   6.663  -4.674  0.00  0.00    -0.237 N 
ATOM     13  C   UNL     1      -5.169   6.423  -4.581  0.00  0.00    +0.240 C 
ATOM     14  O   UNL     1      -4.465   6.375  -5.567  0.00  0.00    -0.274 OA
ATOM     15  H   UNL     1      -2.706   7.865  -0.976  0.00  0.00    +0.149 HD
ATOM     16  H   UNL     1      -6.929   6.815  -5.674  0.00  0.00    +0.159 HD
ATOM     17  H   UNL     1      -2.863   3.690  -1.643  0.00  0.00    +0.162 HD
ENDROOT
BRANCH   1  22
ATOM     18  C   UNL     1      -5.867  12.550  -3.090  0.00  0.00    +0.044 C 
ATOM     19  C   UNL     1      -5.254  11.174  -3.059  0.00  0.00    -0.050 A 
ATOM     20  C   UNL     1      -4.602  10.683  -4.175  0.00  0.00    +0.004 A 
ATOM     21  C   UNL     1      -4.039   9.420  -4.147  0.00  0.00    +0.006 A 
ATOM     22  C   UNL     1      -4.129   8.649  -3.003  0.00  0.00    -0.026 A 
ATOM     23  C   UNL     1      -4.786   9.138  -1.890  0.00  0.00    +0.006 A 
ATOM     24  C   UNL     1      -5.343  10.402  -1.916  0.00  0.00    +0.004 A 
ENDBRANCH   1  22
BRANCH   3  25
ATOM     25  C   UNL     1      -4.981   3.779  -3.150  0.00  0.00    -0.024 A 
ATOM     26  C   UNL     1      -5.605   3.431  -1.968  0.00  0.00    +0.006 A 
ATOM     27  C   UNL     1      -6.578   2.449  -1.963  0.00  0.00    +0.004 A 
ATOM     28  C   UNL     1      -6.918   1.807  -3.139  0.00  0.00    -0.050 A 
ATOM     29  C   UNL     1      -6.289   2.151  -4.321  0.00  0.00    +0.004 A 
ATOM     30  C   UNL     1      -5.320   3.137  -4.327  0.00  0.00    +0.006 A 
ATOM     31  C   UNL     1      -7.974   0.732  -3.133  0.00  0.00    +0.044 C 
ENDBRANCH   3  25
BRANCH   5  32
ATOM     32  S   UNL     1      -1.620   5.424   0.114  0.00  0.00    -0.093 S 
BRANCH  32  33
ATOM     33  C   UNL     1      -1.595   3.614   0.104  0.00  0.00    +0.077 C 
BRANCH  33  34
ATOM     34  C   UNL     1      -0.750   3.109   1.275  0.00  0.00    +0.014 C 
BRANCH  34  35
ATOM     35  C   UNL     1      -0.729   1.579   1.267  0.00  0.00    -0.016 C 
ATOM     36  C   UNL     1      -0.013   1.086   0.008  0.00  0.00    +0.007 C 
ATOM     37  C   UNL     1       0.011   1.072   2.506  0.00  0.00    +0.007 C 
ENDBRANCH  34  35
ENDBRANCH  33  34
ENDBRANCH  32  33
ENDBRANCH   5  32
TORSDOF 6
