REMARK  Name = ZINC07125043
REMARK  10 active torsions:
REMARK  status: ('A' for Active; 'I' for Inactive)
REMARK    1  A    between atoms: C_1  and  C_2
REMARK    2  A    between atoms: C_2  and  C_3
REMARK    3  A    between atoms: C_3  and  C_4
REMARK    4  A    between atoms: C_7  and  C_10
REMARK    5  A    between atoms: C_10  and  C_29
REMARK    6  A    between atoms: N_13  and  C_17
REMARK    7  A    between atoms: C_17  and  C_18
REMARK    8  A    between atoms: N_20  and  C_21
REMARK    9  A    between atoms: C_25  and  C_28
REMARK   10  A    between atoms: C_26  and  C_27
REMARK                            x       y       z     vdW  Elec       q    Type
REMARK                         _______ _______ _______ _____ _____    ______ ____
ROOT
ATOM      1  C   UNL     1      -4.935   4.350   0.619  0.00  0.00    +0.135 C 
ATOM      2  C   UNL     1      -3.518   4.050   1.065  0.00  0.00    +0.251 C 
ATOM      3  O   UNL     1      -3.092   4.050   2.201  0.00  0.00    -0.272 OA
ATOM      4  N   UNL     1      -2.829   3.783  -0.062  0.00  0.00    -0.215 N 
ATOM      5  C   UNL     1      -3.606   3.877  -1.148  0.00  0.00    +0.310 C 
ATOM      6  O   UNL     1      -3.209   3.684  -2.280  0.00  0.00    -0.252 OA
ATOM      7  N   UNL     1      -4.875   4.204  -0.845  0.00  0.00    -0.281 N 
ATOM      8  C   UNL     1      -5.329   5.779   1.001  0.00  0.00    +0.047 C 
ATOM      9  H   UNL     1      -5.608   4.322  -1.470  0.00  0.00    +0.152 HD
ENDROOT
BRANCH   1  13
ATOM     10  C   UNL     1      -7.668   1.531   2.301  0.00  0.00    -0.047 A 
ATOM     11  C   UNL     1      -7.938   2.108   1.075  0.00  0.00    +0.004 A 
ATOM     12  C   UNL     1      -7.053   3.020   0.530  0.00  0.00    +0.006 A 
ATOM     13  C   UNL     1      -5.899   3.356   1.213  0.00  0.00    -0.015 A 
ATOM     14  C   UNL     1      -5.627   2.775   2.437  0.00  0.00    +0.006 A 
ATOM     15  C   UNL     1      -6.514   1.867   2.984  0.00  0.00    +0.004 A 
BRANCH  10  16
ATOM     16  C   UNL     1      -8.633   0.537   2.895  0.00  0.00    +0.035 C 
BRANCH  16  18
ATOM     17  C   UNL     1      -9.237  -1.883   3.039  0.00  0.00    +0.004 C 
ATOM     18  C   UNL     1      -8.258  -0.874   2.436  0.00  0.00    +0.001 C 
ENDBRANCH  16  18
ENDBRANCH  10  16
ENDBRANCH   1  13
BRANCH   4  19
ATOM     19  C   UNL     1      -1.406   3.439  -0.095  0.00  0.00    +0.214 C 
BRANCH  19  20
ATOM     20  C   UNL     1      -1.247   1.945   0.018  0.00  0.00    +0.235 C 
ATOM     21  O   UNL     1      -2.227   1.237   0.117  0.00  0.00    -0.274 OA
ATOM     22  N   UNL     1      -0.017   1.395   0.010  0.00  0.00    -0.284 N 
ATOM     23  H   UNL     1       0.768   1.964  -0.008  0.00  0.00    +0.155 HD
BRANCH  22  24
ATOM     24  C   UNL     1       0.128   0.003   0.020  0.00  0.00    +0.037 A 
ATOM     25  C   UNL     1      -0.776  -0.785   0.721  0.00  0.00    +0.023 A 
ATOM     26  C   UNL     1      -0.634  -2.159   0.725  0.00  0.00    +0.002 A 
ATOM     27  C   UNL     1       0.413  -2.749   0.041  0.00  0.00    +0.004 A 
ATOM     28  C   UNL     1       1.318  -1.966  -0.653  0.00  0.00    -0.046 A 
ATOM     29  C   UNL     1       1.178  -0.592  -0.665  0.00  0.00    -0.026 A 
ATOM     30  C   UNL     1       2.164   0.260  -1.423  0.00  0.00    +0.046 C 
ATOM     31  C   UNL     1       2.458  -2.614  -1.397  0.00  0.00    +0.044 C 
ENDBRANCH  22  24
ENDBRANCH  19  20
ENDBRANCH   4  19
TORSDOF 6
