REMARK  Name = ZINC04811257
REMARK  7 active torsions:
REMARK  status: ('A' for Active; 'I' for Inactive)
REMARK    1  A    between atoms: C_7  and  C_20
REMARK    2  A    between atoms: N_9  and  C_10
REMARK    3  A    between atoms: C_10  and  C_11
REMARK    4  A    between atoms: C_14  and  N_17
REMARK    5  A    between atoms: C_21  and  C_22
REMARK    6  A    between atoms: C_21  and  C_24
REMARK    7  A    between atoms: C_24  and  N_26
REMARK                            x       y       z     vdW  Elec       q    Type
REMARK                         _______ _______ _______ _____ _____    ______ ____
ROOT
ATOM      1  C   UNL     1       0.364   8.289  -5.075  0.00  0.00    +0.001 A 
ATOM      2  C   UNL     1       1.542   8.979  -5.321  0.00  0.00    +0.002 A 
ATOM      3  C   UNL     1       2.279   9.503  -4.281  0.00  0.00    +0.026 A 
ATOM      4  C   UNL     1       1.845   9.336  -2.969  0.00  0.00    +0.050 A 
ATOM      5  C   UNL     1       0.657   8.633  -2.723  0.00  0.00    +0.007 A 
ATOM      6  C   UNL     1      -0.078   8.108  -3.782  0.00  0.00    +0.010 A 
ATOM      7  C   UNL     1       0.480   8.634  -1.257  0.00  0.00    +0.002 A 
ATOM      8  C   UNL     1       1.558   9.327  -0.740  0.00  0.00    +0.095 A 
ATOM      9  N   UNL     1       2.357   9.737  -1.752  0.00  0.00    -0.342 N 
ENDROOT
BRANCH   7  10
ATOM     10  C   UNL     1      -0.578   8.045  -0.528  0.00  0.00    +0.031 C 
ATOM     11  C   UNL     1      -0.344   7.519   0.730  0.00  0.00    +0.080 C 
BRANCH  11  12
ATOM     12  C   UNL     1      -1.388   6.826   1.422  0.00  0.00    +0.102 C 
ATOM     13  N   UNL     1      -2.216   6.276   1.972  0.00  0.00    -0.191 NA
ENDBRANCH  11  12
BRANCH  11  14
ATOM     14  C   UNL     1       0.975   7.672   1.355  0.00  0.00    +0.087 C 
ATOM     15  S   UNL     1       2.176   6.474   1.123  0.00  0.00    -0.034 S 
BRANCH  14  16
ATOM     16  N   UNL     1       1.241   8.755   2.111  0.00  0.00    -0.351 N 
ATOM     17  H   UNL     1       0.560   9.434   2.242  0.00  0.00    +0.143 HD
ATOM     18  H   UNL     1       2.113   8.856   2.524  0.00  0.00    +0.143 HD
ENDBRANCH  14  16
ENDBRANCH  11  14
ENDBRANCH   7  10
BRANCH   9  19
ATOM     19  C   UNL     1       3.595  10.501  -1.579  0.00  0.00    +0.157 C 
BRANCH  19  20
ATOM     20  C   UNL     1       3.304  11.972  -1.732  0.00  0.00    -0.028 A 
ATOM     21  C   UNL     1       3.389  12.568  -2.976  0.00  0.00    +0.007 A 
ATOM     22  C   UNL     1       3.117  13.915  -3.118  0.00  0.00    +0.033 A 
ATOM     23  C   UNL     1       2.769  14.670  -2.013  0.00  0.00    +0.126 A 
ATOM     24  C   UNL     1       2.689  14.075  -0.767  0.00  0.00    +0.033 A 
ATOM     25  C   UNL     1       2.957  12.726  -0.627  0.00  0.00    +0.007 A 
BRANCH  23  26
ATOM     26  N   UNL     1       2.482  16.114  -2.163  0.00  0.00    +0.056 N 
ATOM     27  O   UNL     1       2.175  16.779  -1.190  0.00  0.00    -0.126 OA
ATOM     28  O   UNL     1       2.553  16.638  -3.261  0.00  0.00    -0.126 OA
ENDBRANCH  23  26
ENDBRANCH  19  20
ENDBRANCH   9  19
TORSDOF 7
