REMARK  Name = ZINC64084369
REMARK  7 active torsions:
REMARK  status: ('A' for Active; 'I' for Inactive)
REMARK    1  A    between atoms: C_1  and  O_2
REMARK    2  A    between atoms: O_2  and  C_3
REMARK    3  A    between atoms: C_3  and  C_5
REMARK    4  A    between atoms: N_10  and  C_28
REMARK    5  A    between atoms: N_14  and  C_17
REMARK    6  A    between atoms: C_17  and  C_18
REMARK    7  A    between atoms: C_28  and  C_29
REMARK                            x       y       z     vdW  Elec       q    Type
REMARK                         _______ _______ _______ _____ _____    ______ ____
ROOT
ATOM      1  C   UNL     1      -0.957  -2.512   0.300  0.00  0.00    +0.130 C 
ATOM      2  C   UNL     1      -0.282  -3.204  -0.907  0.00  0.00    +0.112 C 
ATOM      3  C   UNL     1      -1.400  -3.366  -1.915  0.00  0.00    +0.217 C 
ATOM      4  O   UNL     1      -1.244  -3.608  -3.093  0.00  0.00    -0.276 OA
ATOM      5  N   UNL     1      -2.592  -3.204  -1.313  0.00  0.00    -0.291 N 
ATOM      6  C   UNL     1      -2.430  -2.928   0.116  0.00  0.00    +0.048 C 
ATOM      7  C   UNL     1      -3.348  -1.787   0.549  0.00  0.00    +0.008 C 
ATOM      8  C   UNL     1      -4.806  -2.240   0.432  0.00  0.00    -0.077 C 
ATOM      9  N   UNL     1      -5.025  -3.416   1.283  0.00  0.00    +0.381 N 
ATOM     10  C   UNL     1      -4.205  -4.537   0.808  0.00  0.00    -0.077 C 
ATOM     11  C   UNL     1      -2.722  -4.180   0.941  0.00  0.00    +0.008 C 
ATOM     12  H   UNL     1      -4.771  -3.194   2.234  0.00  0.00    -0.082 HD
ENDROOT
BRANCH   1  13
ATOM     13  C   UNL     1      -0.805  -1.015   0.219  0.00  0.00    +0.312 C 
ATOM     14  O   UNL     1      -0.532  -0.492  -0.835  0.00  0.00    -0.250 OA
BRANCH  13  16
ATOM     15  C   UNL     1      -0.812   1.149   1.169  0.00  0.00    +0.280 C 
ATOM     16  O   UNL     1      -0.972  -0.263   1.319  0.00  0.00    -0.468 OA
ENDBRANCH  13  16
ENDBRANCH   1  13
BRANCH   9  17
ATOM     17  C   UNL     1      -6.444  -3.795   1.235  0.00  0.00    -0.050 C 
BRANCH  17  18
ATOM     18  C   UNL     1      -7.289  -2.690   1.871  0.00  0.00    +0.086 C 
ATOM     19  C   UNL     1      -8.729  -3.137   1.990  0.00  0.00    +0.005 C 
ATOM     20  C   UNL     1      -9.019  -3.119   3.311  0.00  0.00    -0.004 A 
ATOM     21  C   UNL     1     -10.236  -3.442   4.066  0.00  0.00    +0.010 A 
ATOM     22  C   UNL     1     -10.222  -3.325   5.413  0.00  0.00    +0.001 A 
ATOM     23  C   UNL     1      -9.078  -2.905   6.105  0.00  0.00    +0.002 A 
ATOM     24  C   UNL     1      -7.923  -2.590   5.481  0.00  0.00    +0.026 A 
ATOM     25  C   UNL     1      -7.824  -2.677   4.065  0.00  0.00    +0.043 A 
ATOM     26  N   UNL     1      -6.832  -2.430   3.241  0.00  0.00    -0.380 N 
ATOM     27  H   UNL     1      -5.947  -2.127   3.495  0.00  0.00    +0.160 HD
ENDBRANCH  17  18
ENDBRANCH   9  17
BRANCH   5  28
ATOM     28  C   UNL     1      -3.884  -3.292  -1.998  0.00  0.00    +0.143 C 
BRANCH  28  29
ATOM     29  C   UNL     1      -4.173  -1.989  -2.696  0.00  0.00    -0.029 A 
ATOM     30  C   UNL     1      -4.719  -0.929  -1.974  0.00  0.00    +0.006 A 
ATOM     31  C   UNL     1      -4.992   0.261  -2.574  0.00  0.00    +0.009 A 
ATOM     32  C   UNL     1      -4.720   0.428  -3.943  0.00  0.00    -0.018 A 
ATOM     33  C   UNL     1      -4.987   1.643  -4.598  0.00  0.00    +0.008 A 
ATOM     34  C   UNL     1      -4.710   1.768  -5.924  0.00  0.00    +0.001 A 
ATOM     35  C   UNL     1      -4.163   0.709  -6.646  0.00  0.00    +0.001 A 
ATOM     36  C   UNL     1      -3.891  -0.482  -6.046  0.00  0.00    +0.008 A 
ATOM     37  C   UNL     1      -4.164  -0.649  -4.677  0.00  0.00    -0.018 A 
ATOM     38  C   UNL     1      -3.891  -1.861  -4.021  0.00  0.00    +0.013 A 
ENDBRANCH  28  29
ENDBRANCH   5  28
TORSDOF 6
