REMARK  Name = ZINC09579177
REMARK  9 active torsions:
REMARK  status: ('A' for Active; 'I' for Inactive)
REMARK    1  A    between atoms: C_1  and  N_2
REMARK    2  A    between atoms: C_3  and  N_29
REMARK    3  A    between atoms: C_4  and  C_11
REMARK    4  A    between atoms: C_11  and  C_13
REMARK    5  A    between atoms: C_13  and  S_14
REMARK    6  A    between atoms: S_14  and  C_15
REMARK    7  A    between atoms: C_18  and  C_23
REMARK    8  A    between atoms: N_19  and  C_20
REMARK    9  A    between atoms: C_23  and  C_24
REMARK                            x       y       z     vdW  Elec       q    Type
REMARK                         _______ _______ _______ _____ _____    ______ ____
ROOT
ATOM      1  C   UNL     1       1.266   6.228   0.185  0.00  0.00    +0.157 C 
ENDROOT
BRANCH   1   2
ATOM      2  C   UNL     1       0.592   7.215   1.102  0.00  0.00    +0.182 C 
ATOM      3  O   UNL     1      -0.609   7.163   1.273  0.00  0.00    -0.291 OA
BRANCH   2   7
ATOM      4  C   UNL     1       0.955  10.885   4.324  0.00  0.00    +0.155 C 
ATOM      5  N   UNL     1       1.554   9.991   3.329  0.00  0.00    -0.285 N 
ATOM      6  C   UNL     1       0.773   9.053   2.716  0.00  0.00    +0.116 A 
ATOM      7  C   UNL     1       1.357   8.200   1.763  0.00  0.00    +0.120 A 
ATOM      8  C   UNL     1       2.789   8.364   1.481  0.00  0.00    +0.266 A 
ATOM      9  O   UNL     1       3.348   7.649   0.669  0.00  0.00    -0.267 OA
ATOM     10  N   UNL     1       3.471   9.325   2.138  0.00  0.00    -0.274 N 
ATOM     11  H   UNL     1       4.445   9.454   1.951  0.00  0.00    +0.173 HD
ATOM     12  C   UNL     1       2.859  10.111   3.038  0.00  0.00    +0.330 A 
ATOM     13  O   UNL     1       3.511  10.962   3.611  0.00  0.00    -0.246 OA
BRANCH   6  14
ATOM     14  N   UNL     1      -0.548   8.947   3.022  0.00  0.00    -0.344 N 
ATOM     15  H   UNL     1      -1.009   8.103   2.894  0.00  0.00    +0.144 HD
ATOM     16  H   UNL     1      -1.029   9.714   3.369  0.00  0.00    +0.144 HD
ENDBRANCH   6  14
ENDBRANCH   2   7
ENDBRANCH   1   2
BRANCH   1  17
ATOM     17  S   UNL     1       0.028   5.102  -0.505  0.00  0.00    -0.078 S 
BRANCH  17  18
ATOM     18  C   UNL     1       1.062   4.087  -1.507  0.00  0.00    +0.192 A 
ATOM     19  N   UNL     1       2.362   4.197  -1.649  0.00  0.00    -0.122 NA
ATOM     20  N   UNL     1       2.791   3.293  -2.456  0.00  0.00    -0.133 NA
ATOM     21  C   UNL     1       1.800   2.555  -2.869  0.00  0.00    +0.139 A 
ATOM     22  N   UNL     1       0.662   3.038  -2.284  0.00  0.00    -0.303 N 
BRANCH  22  23
ATOM     23  C   UNL     1      -0.702   2.530  -2.451  0.00  0.00    +0.091 C 
ATOM     24  C   UNL     1      -1.742   2.942  -1.407  0.00  0.00    +0.027 C 
ATOM     25  C   UNL     1      -1.792   3.540  -2.816  0.00  0.00    +0.027 C 
ENDBRANCH  22  23
BRANCH  21  26
ATOM     26  C   UNL     1       1.890   1.388  -3.818  0.00  0.00    +0.118 C 
BRANCH  26  27
ATOM     27  C   UNL     1       1.728   1.879  -5.234  0.00  0.00    -0.003 A 
ATOM     28  C   UNL     1       2.677   2.295  -6.108  0.00  0.00    +0.011 A 
ATOM     29  C   UNL     1       2.292   2.705  -7.370  0.00  0.00    +0.008 A 
ATOM     30  C   UNL     1       0.977   2.679  -7.698  0.00  0.00    +0.045 A 
ATOM     31  S   UNL     1       0.236   2.054  -6.199  0.00  0.00    -0.101 S 
ENDBRANCH  26  27
ENDBRANCH  21  26
ENDBRANCH  17  18
ENDBRANCH   1  17
TORSDOF 8
