REMARK  Name = ZINC12689589
REMARK  7 active torsions:
REMARK  status: ('A' for Active; 'I' for Inactive)
REMARK    1  A    between atoms: C_1  and  C_2
REMARK    2  A    between atoms: C_12  and  C_14
REMARK    3  A    between atoms: C_14  and  C_16
REMARK    4  A    between atoms: C_14  and  S_17
REMARK    5  A    between atoms: S_17  and  C_18
REMARK    6  A    between atoms: N_30  and  C_31
REMARK    7  A    between atoms: C_31  and  C_32
REMARK                            x       y       z     vdW  Elec       q    Type
REMARK                         _______ _______ _______ _____ _____    ______ ____
ROOT
ATOM      1  C   UNL     1      -1.165   1.113  -4.379  0.00  0.00    +0.173 A 
ATOM      2  N   UNL     1      -1.706   1.749  -5.399  0.00  0.00    -0.216 NA
ATOM      3  C   UNL     1      -3.000   2.052  -5.400  0.00  0.00    +0.117 A 
ATOM      4  C   UNL     1      -3.845   1.717  -4.332  0.00  0.00    +0.076 A 
ATOM      5  C   UNL     1      -5.254   2.119  -4.474  0.00  0.00    -0.023 A 
ATOM      6  C   UNL     1      -5.592   2.761  -5.604  0.00  0.00    -0.004 A 
ATOM      7  S   UNL     1      -4.083   2.874  -6.538  0.00  0.00    -0.073 S 
ATOM      8  C   UNL     1      -7.054   3.117  -5.640  0.00  0.00    +0.043 C 
ATOM      9  C   UNL     1      -7.697   2.225  -4.554  0.00  0.00    +0.010 C 
ATOM     10  C   UNL     1      -6.508   1.982  -3.605  0.00  0.00    +0.037 C 
ATOM     11  C   UNL     1      -3.234   1.022  -3.242  0.00  0.00    +0.263 A 
ATOM     12  O   UNL     1      -3.894   0.686  -2.274  0.00  0.00    -0.267 OA
ATOM     13  N   UNL     1      -1.917   0.748  -3.300  0.00  0.00    -0.285 N 
ENDROOT
BRANCH   1  14
ATOM     14  S   UNL     1       0.553   0.726  -4.410  0.00  0.00    -0.075 S 
BRANCH  14  15
ATOM     15  C   UNL     1       1.004   1.426  -6.018  0.00  0.00    +0.137 C 
ATOM     16  C   UNL     1       0.286   0.656  -7.128  0.00  0.00    +0.029 C 
BRANCH  15  27
ATOM     17  C   UNL     1       5.361   2.399  -6.348  0.00  0.00    +0.029 C 
ATOM     18  C   UNL     1       4.521   1.925  -7.536  0.00  0.00    +0.083 C 
ATOM     19  C   UNL     1       4.709   2.868  -8.735  0.00  0.00    +0.059 C 
ATOM     20  C   UNL     1       3.329   3.426  -9.000  0.00  0.00    -0.024 A 
ATOM     21  C   UNL     1       2.883   4.325  -9.950  0.00  0.00    +0.005 A 
ATOM     22  C   UNL     1       1.549   4.687  -9.991  0.00  0.00    +0.000 A 
ATOM     23  C   UNL     1       0.662   4.146  -9.078  0.00  0.00    +0.002 A 
ATOM     24  C   UNL     1       1.102   3.248  -8.130  0.00  0.00    +0.024 A 
ATOM     25  C   UNL     1       2.448   2.879  -8.082  0.00  0.00    +0.040 A 
ATOM     26  N   UNL     1       3.095   1.997  -7.210  0.00  0.00    -0.267 N 
ATOM     27  C   UNL     1       2.494   1.316  -6.214  0.00  0.00    +0.233 C 
ATOM     28  O   UNL     1       3.153   0.616  -5.474  0.00  0.00    -0.274 OA
ENDBRANCH  15  27
ENDBRANCH  14  15
ENDBRANCH   1  14
BRANCH  13  29
ATOM     29  C   UNL     1      -1.280   0.041  -2.186  0.00  0.00    +0.159 C 
BRANCH  29  30
ATOM     30  C   UNL     1      -0.762   1.056  -1.166  0.00  0.00    +0.138 C 
ATOM     31  C   UNL     1       0.019   0.330  -0.054  0.00  0.00    +0.035 C 
ATOM     32  C   UNL     1      -0.728   0.710   1.248  0.00  0.00    +0.031 C 
ATOM     33  C   UNL     1      -1.482   1.998   0.823  0.00  0.00    +0.160 C 
ATOM     34  O   UNL     1      -1.868   1.730  -0.542  0.00  0.00    -0.375 OA
ENDBRANCH  29  30
ENDBRANCH  13  29
TORSDOF 5
