REMARK  Name = ZINC36805930
REMARK  11 active torsions:
REMARK  status: ('A' for Active; 'I' for Inactive)
REMARK    1  A    between atoms: C_1  and  C_2
REMARK    2  A    between atoms: C_2  and  C_4
REMARK    3  A    between atoms: C_2  and  S_13
REMARK    4  A    between atoms: N_6  and  C_7
REMARK    5  A    between atoms: S_13  and  C_14
REMARK    6  A    between atoms: N_27  and  C_28
REMARK    7  A    between atoms: C_28  and  C_29
REMARK    8  A    between atoms: C_29  and  C_30
REMARK    9  A    between atoms: C_30  and  N_31
REMARK   10  A    between atoms: N_31  and  C_32
REMARK   11  A    between atoms: N_31  and  C_33
REMARK                            x       y       z     vdW  Elec       q    Type
REMARK                         _______ _______ _______ _____ _____    ______ ____
ROOT
ATOM      1  C   UNL     1      -2.365  -0.093  -1.525  0.00  0.00    +0.173 A 
ATOM      2  N   UNL     1      -1.607   0.597  -2.354  0.00  0.00    -0.216 NA
ATOM      3  C   UNL     1      -2.083   1.015  -3.521  0.00  0.00    +0.117 A 
ATOM      4  C   UNL     1      -3.400   0.748  -3.931  0.00  0.00    +0.076 A 
ATOM      5  C   UNL     1      -3.781   1.274  -5.243  0.00  0.00    -0.023 A 
ATOM      6  C   UNL     1      -2.840   1.957  -5.925  0.00  0.00    -0.004 A 
ATOM      7  S   UNL     1      -1.410   1.942  -4.878  0.00  0.00    -0.073 S 
ATOM      8  C   UNL     1      -2.978   2.590  -7.276  0.00  0.00    +0.043 C 
ATOM      9  C   UNL     1      -4.243   2.034  -7.945  0.00  0.00    +0.005 C 
ATOM     10  C   UNL     1      -5.397   2.097  -6.941  0.00  0.00    +0.005 C 
ATOM     11  C   UNL     1      -5.175   1.071  -5.829  0.00  0.00    +0.037 C 
ATOM     12  C   UNL     1      -4.199  -0.003  -3.011  0.00  0.00    +0.263 A 
ATOM     13  O   UNL     1      -5.354  -0.283  -3.281  0.00  0.00    -0.267 OA
ATOM     14  N   UNL     1      -3.655  -0.402  -1.847  0.00  0.00    -0.287 N 
ENDROOT
BRANCH   1  15
ATOM     15  S   UNL     1      -1.700  -0.632   0.015  0.00  0.00    -0.075 S 
BRANCH  15  17
ATOM     16  C   UNL     1      -0.019   1.526   0.010  0.00  0.00    +0.029 C 
ATOM     17  C   UNL     1       0.002  -0.004   0.002  0.00  0.00    +0.137 C 
BRANCH  17  18
ATOM     18  C   UNL     1       0.731  -0.503   1.223  0.00  0.00    +0.226 C 
ATOM     19  O   UNL     1       0.105  -0.891   2.187  0.00  0.00    -0.275 OA
ATOM     20  N   UNL     1       2.079  -0.519   1.244  0.00  0.00    -0.312 N 
ATOM     21  H   UNL     1       2.579  -0.208   0.473  0.00  0.00    +0.149 HD
BRANCH  20  22
ATOM     22  C   UNL     1       2.787  -1.004   2.431  0.00  0.00    +0.073 C 
ATOM     23  C   UNL     1       2.930   0.136   3.441  0.00  0.00    +0.022 C 
ATOM     24  C   UNL     1       3.670  -0.371   4.681  0.00  0.00    +0.002 C 
ATOM     25  C   UNL     1       5.058  -0.872   4.277  0.00  0.00    +0.000 C 
ATOM     26  C   UNL     1       4.915  -2.012   3.266  0.00  0.00    +0.002 C 
ATOM     27  C   UNL     1       4.175  -1.505   2.027  0.00  0.00    +0.022 C 
ENDBRANCH  20  22
ENDBRANCH  17  18
ENDBRANCH  15  17
ENDBRANCH   1  15
BRANCH  14  28
ATOM     28  C   UNL     1      -4.465  -1.176  -0.903  0.00  0.00    +0.125 C 
BRANCH  28  29
ATOM     29  C   UNL     1      -5.193  -0.223   0.046  0.00  0.00    +0.003 C 
BRANCH  29  30
ATOM     30  C   UNL     1      -6.039  -1.031   1.032  0.00  0.00    -0.078 C 
BRANCH  30  31
ATOM     31  N   UNL     1      -6.739  -0.116   1.943  0.00  0.00    +0.376 N 
ATOM     32  C   UNL     1      -7.698   0.695   1.181  0.00  0.00    -0.097 C 
ATOM     33  C   UNL     1      -7.455  -0.893   2.963  0.00  0.00    -0.097 C 
ATOM     34  H   UNL     1      -6.068   0.490   2.392  0.00  0.00    -0.083 HD
ENDBRANCH  30  31
ENDBRANCH  29  30
ENDBRANCH  28  29
ENDBRANCH  14  28
TORSDOF 8
