REMARK  Name = ZINC13759366
REMARK  5 active torsions:
REMARK  status: ('A' for Active; 'I' for Inactive)
REMARK    1  A    between atoms: C_1  and  C_2
REMARK    2  A    between atoms: C_5  and  N_8
REMARK    3  A    between atoms: C_13  and  C_27
REMARK    4  A    between atoms: N_15  and  C_21
REMARK    5  A    between atoms: C_28  and  C_37
REMARK                            x       y       z     vdW  Elec       q    Type
REMARK                         _______ _______ _______ _____ _____    ______ ____
ROOT
ATOM      1  N   UNL     1      -0.094  -4.691   0.108  0.00  0.00    -0.208 N 
ATOM      2  C   UNL     1       0.176  -5.451   1.176  0.00  0.00    +0.235 C 
ATOM      3  O   UNL     1       0.234  -5.055   2.321  0.00  0.00    -0.274 OA
ATOM      4  C   UNL     1       0.398  -6.878   0.733  0.00  0.00    +0.145 C 
ATOM      5  C   UNL     1       1.882  -7.256   0.946  0.00  0.00    +0.159 C 
ATOM      6  N   UNL     1       2.250  -7.874  -0.351  0.00  0.00    -0.244 N 
ATOM      7  O   UNL     1       1.575  -7.084  -1.331  0.00  0.00    -0.257 OA
ATOM      8  C   UNL     1       0.242  -6.806  -0.810  0.00  0.00    +0.249 C 
ATOM      9  C   UNL     1      -0.097  -5.351  -1.056  0.00  0.00    +0.259 C 
ATOM     10  O   UNL     1      -0.332  -4.860  -2.139  0.00  0.00    -0.272 OA
ENDROOT
BRANCH   5  11
ATOM     11  C   UNL     1       2.713  -6.027   1.211  0.00  0.00    +0.006 A 
ATOM     12  C   UNL     1       3.165  -5.611   2.405  0.00  0.00    +0.019 A 
ATOM     13  N   UNL     1       3.884  -4.457   2.255  0.00  0.00    -0.358 N 
ATOM     14  H   UNL     1       4.309  -3.968   2.977  0.00  0.00    +0.166 HD
ATOM     15  C   UNL     1       3.914  -4.092   0.927  0.00  0.00    +0.047 A 
ATOM     16  C   UNL     1       3.187  -5.064   0.214  0.00  0.00    +0.005 A 
ATOM     17  C   UNL     1       3.052  -4.955  -1.171  0.00  0.00    +0.010 A 
ATOM     18  C   UNL     1       3.631  -3.906  -1.828  0.00  0.00    +0.001 A 
ATOM     19  C   UNL     1       4.352  -2.947  -1.130  0.00  0.00    +0.002 A 
ATOM     20  C   UNL     1       4.490  -3.030   0.238  0.00  0.00    +0.026 A 
ATOM     21  C   UNL     1       2.916  -6.311   3.716  0.00  0.00    +0.063 C 
ENDBRANCH   5  11
BRANCH   1  26
ATOM     22  C   UNL     1      -1.164   0.870   0.488  0.00  0.00    +0.044 C 
ATOM     23  C   UNL     1      -0.880  -0.607   0.387  0.00  0.00    -0.050 A 
ATOM     24  C   UNL     1      -1.881  -1.477  -0.004  0.00  0.00    +0.005 A 
ATOM     25  C   UNL     1      -1.624  -2.831  -0.097  0.00  0.00    +0.024 A 
ATOM     26  C   UNL     1      -0.358  -3.318   0.201  0.00  0.00    +0.044 A 
ATOM     27  C   UNL     1       0.645  -2.442   0.593  0.00  0.00    +0.024 A 
ATOM     28  C   UNL     1       0.383  -1.088   0.680  0.00  0.00    +0.005 A 
ENDBRANCH   1  26
BRANCH   6  29
ATOM     29  C   UNL     1       3.073  -8.982  -0.567  0.00  0.00    +0.065 A 
ATOM     30  C   UNL     1       3.650  -9.641   0.512  0.00  0.00    +0.028 A 
ATOM     31  C   UNL     1       4.462 -10.737   0.295  0.00  0.00    +0.002 A 
ATOM     32  C   UNL     1       4.703 -11.177  -0.993  0.00  0.00    +0.000 A 
ATOM     33  C   UNL     1       4.131 -10.523  -2.069  0.00  0.00    +0.002 A 
ATOM     34  C   UNL     1       3.313  -9.431  -1.859  0.00  0.00    +0.028 A 
ENDBRANCH   6  29
TORSDOF 3
