REMARK  Name = ZINC65912770
REMARK  4 active torsions:
REMARK  status: ('A' for Active; 'I' for Inactive)
REMARK    1  A    between atoms: C_7  and  C_13
REMARK    2  A    between atoms: N_15  and  C_16
REMARK    3  A    between atoms: C_16  and  C_17
REMARK    4  A    between atoms: C_19  and  C_22
REMARK                            x       y       z     vdW  Elec       q    Type
REMARK                         _______ _______ _______ _____ _____    ______ ____
ROOT
ATOM      1  C   UNL     1       0.115  -2.976  -0.014  0.00  0.00    +0.265 C 
ATOM      2  O   UNL     1      -0.983  -2.454  -0.001  0.00  0.00    -0.268 OA
ATOM      3  N   UNL     1       0.222  -4.319  -0.022  0.00  0.00    -0.301 N 
ATOM      4  H   UNL     1       1.098  -4.736  -0.032  0.00  0.00    +0.150 HD
ENDROOT
BRANCH   1  11
ATOM      5  C   UNL     1      -0.017   1.375   0.010  0.00  0.00    +0.001 A 
ATOM      6  C   UNL     1       1.167   2.102   0.002  0.00  0.00    +0.001 A 
ATOM      7  C   UNL     1       2.387   1.461  -0.013  0.00  0.00    +0.014 A 
ATOM      8  C   UNL     1       2.428   0.071  -0.021  0.00  0.00    +0.050 A 
ATOM      9  C   UNL     1       1.223  -0.670  -0.013  0.00  0.00    +0.020 A 
ATOM     10  C   UNL     1       0.002  -0.004   0.002  0.00  0.00    +0.011 A 
ATOM     11  C   UNL     1       1.330  -2.138  -0.021  0.00  0.00    +0.153 A 
ATOM     12  N   UNL     1       2.518  -2.692  -0.035  0.00  0.00    -0.166 NA
ATOM     13  N   UNL     1       3.618  -2.039  -0.042  0.00  0.00    -0.242 N 
ATOM     14  H   UNL     1       4.449  -2.539  -0.053  0.00  0.00    +0.192 HD
ATOM     15  C   UNL     1       3.684  -0.692  -0.036  0.00  0.00    +0.272 A 
ATOM     16  O   UNL     1       4.759  -0.121  -0.043  0.00  0.00    -0.266 OA
ENDBRANCH   1  11
BRANCH   3  17
ATOM     17  C   UNL     1      -0.984  -5.151  -0.014  0.00  0.00    +0.203 C 
BRANCH  17  18
ATOM     18  C   UNL     1      -0.591  -6.606  -0.025  0.00  0.00    +0.245 A 
ATOM     19  N   UNL     1      -0.388  -7.346   1.026  0.00  0.00    -0.190 NA
ATOM     20  C   UNL     1      -0.052  -8.595   0.652  0.00  0.00    +0.209 A 
ATOM     21  N   UNL     1      -0.042  -8.650  -0.659  0.00  0.00    -0.055 NA
ATOM     22  O   UNL     1      -0.399  -7.355  -1.118  0.00  0.00    -0.336 OA
BRANCH  20  23
ATOM     23  C   UNL     1       0.254  -9.716   1.565  0.00  0.00    +0.060 A 
ATOM     24  C   UNL     1       0.606 -11.005   1.262  0.00  0.00    +0.019 A 
ATOM     25  C   UNL     1       0.847 -11.885   2.292  0.00  0.00    +0.008 A 
ATOM     26  C   UNL     1       0.728 -11.452   3.575  0.00  0.00    +0.046 A 
ATOM     27  S   UNL     1       0.267  -9.742   3.350  0.00  0.00    -0.093 S 
ENDBRANCH  20  23
ENDBRANCH  17  18
ENDBRANCH   3  17
TORSDOF 4
