REMARK  Name = ZINC36207721
REMARK  14 active torsions:
REMARK  status: ('A' for Active; 'I' for Inactive)
REMARK    1  A    between atoms: C_1  and  O_2
REMARK    2  A    between atoms: O_2  and  C_3
REMARK    3  A    between atoms: C_3  and  C_4
REMARK    4  A    between atoms: C_4  and  C_6
REMARK    5  A    between atoms: C_4  and  O_36
REMARK    6  A    between atoms: C_6  and  N_7
REMARK    7  A    between atoms: N_7  and  C_8
REMARK    8  A    between atoms: N_7  and  C_30
REMARK    9  A    between atoms: C_8  and  C_9
REMARK   10  A    between atoms: C_15  and  C_20
REMARK   11  A    between atoms: C_23  and  O_28
REMARK   12  A    between atoms: C_24  and  O_26
REMARK   13  A    between atoms: O_26  and  C_27
REMARK   14  A    between atoms: O_28  and  C_29
REMARK                            x       y       z     vdW  Elec       q    Type
REMARK                         _______ _______ _______ _____ _____    ______ ____
ROOT
ATOM      1  C   UNL     1       1.749  -6.249  -3.294  0.00  0.00    +0.094 A 
ATOM      2  N   UNL     1       2.351  -6.995  -4.256  0.00  0.00    -0.312 N 
ATOM      3  H   UNL     1       2.782  -6.551  -5.002  0.00  0.00    +0.170 HD
ATOM      4  C   UNL     1       2.360  -8.340  -4.194  0.00  0.00    +0.260 A 
ATOM      5  O   UNL     1       2.905  -8.996  -5.065  0.00  0.00    -0.267 OA
ATOM      6  C   UNL     1       1.722  -8.988  -3.089  0.00  0.00    +0.080 A 
ATOM      7  C   UNL     1       1.599 -10.412  -2.800  0.00  0.00    +0.004 A 
ATOM      8  C   UNL     1       0.942 -10.795  -1.678  0.00  0.00    +0.056 A 
ATOM      9  S   UNL     1       0.448  -9.249  -0.942  0.00  0.00    -0.076 S 
ATOM     10  C   UNL     1       1.127  -8.136  -2.144  0.00  0.00    +0.116 A 
ATOM     11  N   UNL     1       1.163  -6.812  -2.271  0.00  0.00    -0.229 NA
ENDROOT
BRANCH   7  12
ATOM     12  C   UNL     1       2.182 -11.421  -3.716  0.00  0.00    -0.013 A 
ATOM     13  C   UNL     1       1.924 -11.354  -5.084  0.00  0.00    +0.012 A 
ATOM     14  C   UNL     1       2.467 -12.294  -5.936  0.00  0.00    +0.050 A 
ATOM     15  C   UNL     1       3.269 -13.307  -5.434  0.00  0.00    +0.162 A 
ATOM     16  C   UNL     1       3.530 -13.380  -4.069  0.00  0.00    +0.162 A 
ATOM     17  C   UNL     1       2.993 -12.437  -3.211  0.00  0.00    +0.058 A 
BRANCH  16  18
ATOM     18  O   UNL     1       4.317 -14.375  -3.579  0.00  0.00    -0.491 OA
ATOM     19  C   UNL     1       4.543 -14.388  -2.168  0.00  0.00    +0.277 C 
ENDBRANCH  16  18
BRANCH  15  20
ATOM     20  O   UNL     1       3.801 -14.233  -6.278  0.00  0.00    -0.491 OA
ATOM     21  C   UNL     1       3.491 -14.099  -7.666  0.00  0.00    +0.277 C 
ENDBRANCH  15  20
ENDBRANCH   7  12
BRANCH   1  22
ATOM     22  C   UNL     1       1.764  -4.747  -3.405  0.00  0.00    -0.003 C 
BRANCH  22  23
ATOM     23  N   UNL     1       1.211  -4.159  -2.177  0.00  0.00    +0.388 N 
ATOM     24  H   UNL     1       0.454  -4.735  -1.841  0.00  0.00    -0.081 HD
BRANCH  23  25
ATOM     25  C   UNL     1       2.262  -4.086  -1.153  0.00  0.00    -0.068 C 
ATOM     26  C   UNL     1       3.368  -3.139  -1.625  0.00  0.00    -0.015 C 
ATOM     27  C   UNL     1       4.463  -3.063  -0.558  0.00  0.00    -0.002 C 
ATOM     28  C   UNL     1       5.048  -4.457  -0.327  0.00  0.00    -0.000 C 
ATOM     29  C   UNL     1       3.942  -5.403   0.144  0.00  0.00    -0.002 C 
ATOM     30  C   UNL     1       2.848  -5.480  -0.922  0.00  0.00    -0.015 C 
ENDBRANCH  23  25
BRANCH  23  31
ATOM     31  C   UNL     1       0.711  -2.808  -2.463  0.00  0.00    -0.044 C 
BRANCH  31  32
ATOM     32  C   UNL     1      -0.036  -2.272  -1.240  0.00  0.00    +0.124 C 
BRANCH  32  33
ATOM     33  O   UNL     1       0.893  -2.031  -0.182  0.00  0.00    -0.391 OA
ATOM     34  H   UNL     1       1.530  -1.328  -0.370  0.00  0.00    +0.210 HD
ENDBRANCH  32  33
BRANCH  32  35
ATOM     35  C   UNL     1      -0.742  -0.964  -1.606  0.00  0.00    +0.188 C 
BRANCH  35  37
ATOM     36  C   UNL     1      -2.237   0.696  -0.740  0.00  0.00    +0.194 C 
ATOM     37  O   UNL     1      -1.533  -0.524  -0.501  0.00  0.00    -0.381 OA
ENDBRANCH  35  37
ENDBRANCH  32  35
ENDBRANCH  31  32
ENDBRANCH  23  31
ENDBRANCH  22  23
ENDBRANCH   1  22
TORSDOF 11
