REMARK  Name = ZINC04469665
REMARK  9 active torsions:
REMARK  status: ('A' for Active; 'I' for Inactive)
REMARK    1  A    between atoms: C_1  and  C_2
REMARK    2  A    between atoms: C_2  and  C_4
REMARK    3  A    between atoms: C_2  and  N_14
REMARK    4  A    between atoms: C_7  and  C_10
REMARK    5  A    between atoms: C_10  and  C_11
REMARK    6  A    between atoms: C_11  and  C_12
REMARK    7  A    between atoms: C_11  and  C_13
REMARK    8  A    between atoms: C_15  and  C_17
REMARK    9  A    between atoms: C_17  and  N_18
REMARK                            x       y       z     vdW  Elec       q    Type
REMARK                         _______ _______ _______ _____ _____    ______ ____
ROOT
ATOM      1  N   UNL     1      -1.372  -0.511   0.012  0.00  0.00    -0.307 N 
ATOM      2  C   UNL     1      -2.051  -0.643  -1.145  0.00  0.00    +0.231 C 
ATOM      3  O   UNL     1      -1.524  -0.341  -2.194  0.00  0.00    -0.274 OA
ATOM      4  H   UNL     1      -1.794  -0.752   0.852  0.00  0.00    +0.149 HD
ENDROOT
BRANCH   1   6
ATOM      5  C   UNL     1      -0.019   1.526   0.010  0.00  0.00    +0.033 C 
ATOM      6  C   UNL     1       0.002  -0.004   0.002  0.00  0.00    +0.100 C 
BRANCH   6   7
ATOM      7  C   UNL     1       0.731  -0.503   1.223  0.00  0.00    -0.027 A 
ATOM      8  C   UNL     1       0.081  -0.558   2.442  0.00  0.00    +0.006 A 
ATOM      9  C   UNL     1       0.749  -1.016   3.562  0.00  0.00    +0.004 A 
ATOM     10  C   UNL     1       2.068  -1.420   3.463  0.00  0.00    -0.047 A 
ATOM     11  C   UNL     1       2.718  -1.365   2.244  0.00  0.00    +0.004 A 
ATOM     12  C   UNL     1       2.048  -0.911   1.123  0.00  0.00    +0.006 A 
BRANCH  10  13
ATOM     13  C   UNL     1       2.797  -1.918   4.684  0.00  0.00    +0.038 C 
BRANCH  13  14
ATOM     14  C   UNL     1       2.611  -3.432   4.807  0.00  0.00    -0.013 C 
ATOM     15  C   UNL     1       3.451  -3.956   5.973  0.00  0.00    +0.007 C 
ATOM     16  C   UNL     1       1.135  -3.745   5.061  0.00  0.00    +0.007 C 
ENDBRANCH  13  14
ENDBRANCH  10  13
ENDBRANCH   6   7
ENDBRANCH   1   6
BRANCH   2  17
ATOM     17  C   UNL     1      -3.465  -1.164  -1.134  0.00  0.00    +0.213 C 
BRANCH  17  18
ATOM     18  N   UNL     1      -3.978  -1.213  -2.505  0.00  0.00    -0.215 N 
ATOM     19  C   UNL     1      -4.621  -0.195  -3.109  0.00  0.00    +0.247 C 
ATOM     20  O   UNL     1      -4.876   0.891  -2.635  0.00  0.00    -0.273 OA
ATOM     21  C   UNL     1      -4.960  -0.690  -4.505  0.00  0.00    +0.113 C 
ATOM     22  C   UNL     1      -4.146   0.151  -5.514  0.00  0.00    +0.035 C 
ATOM     23  C   UNL     1      -3.990  -0.635  -6.786  0.00  0.00    +0.003 C 
ATOM     24  C   UNL     1      -5.078  -0.304  -7.827  0.00  0.00    +0.000 C 
ATOM     25  C   UNL     1      -6.480  -0.168  -7.202  0.00  0.00    +0.000 C 
ATOM     26  C   UNL     1      -6.747  -1.224  -6.164  0.00  0.00    +0.003 C 
ATOM     27  C   UNL     1      -6.391  -0.647  -4.781  0.00  0.00    +0.035 C 
ATOM     28  N   UNL     1      -4.418  -2.063  -4.519  0.00  0.00    -0.285 N 
ATOM     29  C   UNL     1      -3.860  -2.272  -3.314  0.00  0.00    +0.310 C 
ATOM     30  O   UNL     1      -3.312  -3.308  -2.994  0.00  0.00    -0.252 OA
ATOM     31  H   UNL     1      -4.454  -2.692  -5.256  0.00  0.00    +0.151 HD
ENDBRANCH  17  18
ENDBRANCH   2  17
TORSDOF 6
