REMARK  Name = ZINC61682090
REMARK  6 active torsions:
REMARK  status: ('A' for Active; 'I' for Inactive)
REMARK    1  A    between atoms: C_1  and  C_2
REMARK    2  A    between atoms: C_5  and  C_9
REMARK    3  A    between atoms: C_7  and  C_8
REMARK    4  A    between atoms: C_9  and  C_11
REMARK    5  A    between atoms: C_9  and  C_13
REMARK    6  A    between atoms: C_13  and  C_15
REMARK                            x       y       z     vdW  Elec       q    Type
REMARK                         _______ _______ _______ _____ _____    ______ ____
ROOT
ATOM      1  C   UNL     1       0.059  -4.275  -0.021  0.00  0.00    +0.192 C 
ENDROOT
BRANCH   1   6
ATOM      2  C   UNL     1      -0.018   1.503   0.010  0.00  0.00    +0.044 C 
ATOM      3  C   UNL     1       0.002  -0.004   0.002  0.00  0.00    -0.048 A 
ATOM      4  C   UNL     1       0.006  -0.689  -1.199  0.00  0.00    +0.004 A 
ATOM      5  C   UNL     1       0.025  -2.071  -1.207  0.00  0.00    +0.005 A 
ATOM      6  C   UNL     1       0.040  -2.768  -0.013  0.00  0.00    -0.023 A 
ATOM      7  C   UNL     1       0.037  -2.084   1.188  0.00  0.00    +0.009 A 
ATOM      8  C   UNL     1       0.023  -0.702   1.195  0.00  0.00    -0.047 A 
ATOM      9  C   UNL     1       0.025   0.045   2.504  0.00  0.00    +0.044 C 
ENDBRANCH   1   6
BRANCH   1  10
ATOM     10  C   UNL     1       1.264  -4.747  -0.725  0.00  0.00    +0.079 C 
ATOM     11  N   UNL     1       2.193  -5.110  -1.267  0.00  0.00    -0.195 NA
ENDBRANCH   1  10
BRANCH   1  12
ATOM     12  C   UNL     1      -1.168  -4.790  -0.728  0.00  0.00    +0.184 C 
ATOM     13  O   UNL     1      -1.677  -4.136  -1.614  0.00  0.00    -0.290 OA
BRANCH  12  14
ATOM     14  C   UNL     1      -1.750  -6.085  -0.343  0.00  0.00    +0.022 A 
ATOM     15  C   UNL     1      -1.169  -6.839   0.682  0.00  0.00    +0.012 A 
ATOM     16  C   UNL     1      -1.719  -8.052   1.039  0.00  0.00    +0.019 A 
ATOM     17  C   UNL     1      -2.844  -8.526   0.385  0.00  0.00    +0.053 A 
ATOM     18  C   UNL     1      -3.426  -7.784  -0.633  0.00  0.00    +0.138 A 
ATOM     19  C   UNL     1      -2.889  -6.565  -0.996  0.00  0.00    +0.051 A 
ATOM     20  F   UNL     1      -4.523  -8.254  -1.267  0.00  0.00    -0.204 F 
ATOM     21 BR   UNL     1      -3.590 -10.191   0.881  0.00  0.00    -0.047 Br
ENDBRANCH  12  14
ENDBRANCH   1  12
TORSDOF 4
