REMARK  Name = ZINC05742322
REMARK  7 active torsions:
REMARK  status: ('A' for Active; 'I' for Inactive)
REMARK    1  A    between atoms: C_1  and  N_2
REMARK    2  A    between atoms: C_6  and  C_8
REMARK    3  A    between atoms: C_8  and  C_10
REMARK    4  A    between atoms: C_8  and  O_16
REMARK    5  A    between atoms: O_16  and  C_17
REMARK    6  A    between atoms: C_17  and  C_19
REMARK    7  A    between atoms: C_20  and  C_21
REMARK                            x       y       z     vdW  Elec       q    Type
REMARK                         _______ _______ _______ _____ _____    ______ ____
ROOT
ATOM      1  C   UNL     1       7.278   1.008  -0.061  0.00  0.00    +0.292 C 
ENDROOT
BRANCH   1   7
ATOM      2  C   UNL     1      12.758   2.130  -2.567  0.00  0.00    +0.129 C 
ATOM      3  N   UNL     1      11.717   1.370  -1.870  0.00  0.00    -0.302 N 
ATOM      4  C   UNL     1      10.512   1.929  -1.644  0.00  0.00    +0.306 C 
ATOM      5  O   UNL     1      10.289   3.064  -2.018  0.00  0.00    -0.252 OA
ATOM      6  N   UNL     1       9.555   1.230  -1.003  0.00  0.00    -0.237 N 
ATOM      7  C   UNL     1       8.349   1.789  -0.777  0.00  0.00    +0.266 C 
ATOM      8  O   UNL     1       8.127   2.921  -1.150  0.00  0.00    -0.271 OA
ATOM      9  H   UNL     1      11.896   0.464  -1.572  0.00  0.00    +0.150 HD
ATOM     10  H   UNL     1       9.733   0.324  -0.705  0.00  0.00    +0.159 HD
ENDBRANCH   1   7
BRANCH   1  11
ATOM     11  C   UNL     1       7.718   0.735   1.355  0.00  0.00    +0.002 A 
ATOM     12  C   UNL     1       7.507   1.682   2.339  0.00  0.00    +0.008 A 
ATOM     13  C   UNL     1       7.906   1.429   3.638  0.00  0.00    +0.000 A 
ATOM     14  C   UNL     1       8.524   0.234   3.951  0.00  0.00    +0.000 A 
ATOM     15  C   UNL     1       8.740  -0.712   2.966  0.00  0.00    +0.000 A 
ATOM     16  C   UNL     1       8.337  -0.461   1.668  0.00  0.00    +0.008 A 
ENDBRANCH   1  11
BRANCH   1  17
ATOM     17  O   UNL     1       6.066   1.764  -0.045  0.00  0.00    -0.444 OA
BRANCH  17  18
ATOM     18  C   UNL     1       4.910   1.068  -0.038  0.00  0.00    +0.333 C 
ATOM     19  O   UNL     1       4.932  -0.148  -0.045  0.00  0.00    -0.246 OA
BRANCH  18  20
ATOM     20  C   UNL     1       3.631   1.776  -0.023  0.00  0.00    +0.092 C 
ATOM     21  C   UNL     1       2.475   1.081  -0.015  0.00  0.00    +0.015 C 
BRANCH  21  22
ATOM     22  C   UNL     1       1.187   1.793   0.000  0.00  0.00    -0.022 A 
ATOM     23  C   UNL     1       1.158   3.192   0.008  0.00  0.00    +0.008 A 
ATOM     24  C   UNL     1      -0.051   3.853   0.023  0.00  0.00    +0.003 A 
ATOM     25  C   UNL     1      -1.236   3.138   0.031  0.00  0.00    +0.038 A 
ATOM     26  C   UNL     1      -1.217   1.752   0.017  0.00  0.00    +0.124 A 
ATOM     27  C   UNL     1      -0.013   1.076   0.008  0.00  0.00    +0.046 A 
ATOM     28  F   UNL     1      -2.378   1.062   0.019  0.00  0.00    -0.205 F 
ENDBRANCH  21  22
ENDBRANCH  18  20
ENDBRANCH  17  18
ENDBRANCH   1  17
TORSDOF 6
