REMARK  Name = ZINC49661216
REMARK  6 active torsions:
REMARK  status: ('A' for Active; 'I' for Inactive)
REMARK    1  A    between atoms: C_1  and  C_2
REMARK    2  A    between atoms: C_5  and  N_9
REMARK    3  A    between atoms: C_10  and  C_12
REMARK    4  A    between atoms: C_15  and  C_20
REMARK    5  A    between atoms: C_20  and  C_21
REMARK    6  A    between atoms: C_20  and  C_22
REMARK                            x       y       z     vdW  Elec       q    Type
REMARK                         _______ _______ _______ _____ _____    ______ ____
ROOT
ATOM      1  N   UNL     1       0.059  -4.170  -0.022  0.00  0.00    -0.280 N 
ATOM      2  C   UNL     1       0.175  -4.849   1.136  0.00  0.00    +0.275 C 
ATOM      3  O   UNL     1       0.173  -4.251   2.195  0.00  0.00    -0.268 OA
ATOM      4  H   UNL     1      -0.017  -4.650  -0.861  0.00  0.00    +0.155 HD
ENDROOT
BRANCH   1   9
ATOM      5  C   UNL     1       0.004   1.503   0.010  0.00  0.00    +0.045 C 
ATOM      6  C   UNL     1       0.019  -0.004   0.002  0.00  0.00    -0.032 A 
ATOM      7  C   UNL     1      -0.725  -0.696  -0.937  0.00  0.00    +0.006 A 
ATOM      8  C   UNL     1      -0.714  -2.077  -0.947  0.00  0.00    +0.023 A 
ATOM      9  C   UNL     1       0.046  -2.772  -0.014  0.00  0.00    +0.035 A 
ATOM     10  C   UNL     1       0.792  -2.075   0.927  0.00  0.00    +0.043 A 
ATOM     11  C   UNL     1       0.780  -0.692   0.929  0.00  0.00    +0.046 A 
ATOM     12 CL   UNL     1       1.718   0.181   2.101  0.00  0.00    -0.083 Cl
ENDBRANCH   1   9
BRANCH   2  13
ATOM     13  C   UNL     1       0.306  -6.320   1.119  0.00  0.00    +0.187 A 
ATOM     14  N   UNL     1       0.334  -7.131   0.092  0.00  0.00    -0.151 NA
ATOM     15  N   UNL     1       0.465  -8.502   0.262  0.00  0.00    -0.190 N 
ATOM     16  C   UNL     1       0.536  -9.659  -0.491  0.00  0.00    +0.158 A 
ATOM     17  N   UNL     1       0.661 -10.665   0.327  0.00  0.00    -0.131 NA
ATOM     18  N   UNL     1       0.676 -10.246   1.545  0.00  0.00    -0.120 NA
ATOM     19  C   UNL     1       0.561  -8.954   1.560  0.00  0.00    +0.218 A 
ATOM     20  S   UNL     1       0.474  -7.447   2.494  0.00  0.00    -0.022 S 
BRANCH  16  21
ATOM     21  C   UNL     1       0.477  -9.742  -1.994  0.00  0.00    +0.053 C 
ATOM     22  C   UNL     1       1.766 -10.376  -2.521  0.00  0.00    +0.015 C 
ATOM     23  C   UNL     1      -0.720 -10.599  -2.412  0.00  0.00    +0.015 C 
ENDBRANCH  16  21
ENDBRANCH   2  13
TORSDOF 3
