REMARK  Name = ZINC20908742
REMARK  7 active torsions:
REMARK  status: ('A' for Active; 'I' for Inactive)
REMARK    1  A    between atoms: C_1  and  C_2
REMARK    2  A    between atoms: C_2  and  C_3
REMARK    3  A    between atoms: C_2  and  C_4
REMARK    4  A    between atoms: C_7  and  C_9
REMARK    5  A    between atoms: C_9  and  N_10
REMARK    6  A    between atoms: C_12  and  N_18
REMARK    7  A    between atoms: C_14  and  O_17
REMARK                            x       y       z     vdW  Elec       q    Type
REMARK                         _______ _______ _______ _____ _____    ______ ____
ROOT
ATOM      1  N   UNL     1      -0.419   0.861   5.616  0.00  0.00    +0.386 N 
ATOM      2  C   UNL     1      -0.660   0.382   6.990  0.00  0.00    -0.057 C 
ATOM      3  C   UNL     1       0.518  -0.541   7.365  0.00  0.00    +0.067 C 
ATOM      4  C   UNL     1       1.642  -0.084   6.399  0.00  0.00    +0.113 C 
ATOM      5  C   UNL     1       0.836   0.258   5.120  0.00  0.00    -0.045 C 
ATOM      6  H   UNL     1      -0.332   1.957   5.617  0.00  0.00    -0.081 HD
ENDROOT
BRANCH   3   7
ATOM      7  N   UNL     1       0.918  -0.331   8.763  0.00  0.00    -0.296 NA
ATOM      8  C   UNL     1       2.117  -1.114   9.091  0.00  0.00    +0.103 C 
ATOM      9  C   UNL     1       2.546  -0.807  10.528  0.00  0.00    +0.122 C 
ATOM     10  N   UNL     1       1.443  -1.128  11.445  0.00  0.00    -0.314 N 
ATOM     11  C   UNL     1       0.244  -0.344  11.117  0.00  0.00    +0.122 C 
ATOM     12  C   UNL     1      -0.185  -0.651   9.680  0.00  0.00    +0.103 C 
ATOM     13  C   UNL     1       1.821  -0.929  12.768  0.00  0.00    +0.099 A 
ATOM     14  C   UNL     1       2.939  -1.587  13.272  0.00  0.00    +0.042 A 
ATOM     15  C   UNL     1       3.304  -1.380  14.590  0.00  0.00    +0.005 A 
ATOM     16  C   UNL     1       2.536  -0.518  15.362  0.00  0.00    +0.018 A 
ATOM     17  C   UNL     1       1.440   0.101  14.797  0.00  0.00    +0.084 A 
ATOM     18  N   UNL     1       1.118  -0.111  13.535  0.00  0.00    -0.350 N 
ATOM     19  H   UNL     1       0.241   0.412  13.124  0.00  0.00    +0.166 HD
ENDBRANCH   3   7
BRANCH   4  20
ATOM     20  O   UNL     1       2.568  -1.144   6.152  0.00  0.00    -0.392 OA
ATOM     21  H   UNL     1       3.427  -0.980   5.485  0.00  0.00    +0.210 HD
ENDBRANCH   4  20
BRANCH   1  22
ATOM     22  C   UNL     1      -1.547   0.525   4.737  0.00  0.00    -0.015 C 
BRANCH  22  26
ATOM     23  C   UNL     1      -0.718   1.572   1.248  0.00  0.00    +0.051 A 
ATOM     24  C   UNL     1      -1.313   2.792   1.276  0.00  0.00    +0.070 A 
ATOM     25  S   UNL     1      -1.955   2.805   2.944  0.00  0.00    -0.082 S 
ATOM     26  C   UNL     1      -1.384   1.235   3.417  0.00  0.00    +0.062 A 
ATOM     27  N   UNL     1      -0.777   0.821   2.328  0.00  0.00    -0.251 NA
BRANCH  23  29
ATOM     28  C   UNL     1       1.423   1.615  -0.003  0.00  0.00    +0.014 C 
ATOM     29  C   UNL     1      -0.013   1.086   0.008  0.00  0.00    +0.032 C 
ATOM     30  C   UNL     1      -0.753   1.593  -1.232  0.00  0.00    +0.014 C 
ENDBRANCH  23  29
ENDBRANCH  22  26
ENDBRANCH   1  22
TORSDOF 5
