REMARK  Name = ZINC41513366
REMARK  7 active torsions:
REMARK  status: ('A' for Active; 'I' for Inactive)
REMARK    1  A    between atoms: C_1  and  C_2
REMARK    2  A    between atoms: C_4  and  O_28
REMARK    3  A    between atoms: C_5  and  C_22
REMARK    4  A    between atoms: C_11  and  C_12
REMARK    5  A    between atoms: C_17  and  O_18
REMARK    6  A    between atoms: O_18  and  C_19
REMARK    7  A    between atoms: C_22  and  N_23
REMARK                            x       y       z     vdW  Elec       q    Type
REMARK                         _______ _______ _______ _____ _____    ______ ____
ROOT
ATOM      1  C   UNL     1      -0.614   1.593   0.122  0.00  0.00    +0.045 C 
ATOM      2  C   UNL     1      -0.727   0.091   0.104  0.00  0.00    -0.033 A 
ATOM      3  C   UNL     1      -1.002  -0.561  -1.065  0.00  0.00    +0.050 A 
ATOM      4  C   UNL     1      -1.107  -1.949  -1.084  0.00  0.00    +0.122 A 
ATOM      5  C   UNL     1      -0.934  -2.685   0.077  0.00  0.00    +0.020 A 
ATOM      6  C   UNL     1      -0.653  -2.038   1.274  0.00  0.00    +0.145 A 
ATOM      7  C   UNL     1      -0.545  -0.638   1.280  0.00  0.00    +0.071 A 
ATOM      8  C   UNL     1      -0.239  -0.251   2.669  0.00  0.00    +0.232 C 
ATOM      9  O   UNL     1      -0.070   0.873   3.110  0.00  0.00    -0.283 OA
ATOM     10  C   UNL     1      -0.185  -1.523   3.403  0.00  0.00    +0.176 C 
ATOM     11  C   UNL     1       0.068  -1.674   4.729  0.00  0.00    +0.061 C 
ATOM     12  O   UNL     1      -0.445  -2.516   2.520  0.00  0.00    -0.451 OA
ENDROOT
BRANCH  11  13
ATOM     13  C   UNL     1      -0.019  -3.002   5.345  0.00  0.00    +0.021 A 
ATOM     14  C   UNL     1      -0.010  -4.152   4.546  0.00  0.00    +0.027 A 
ATOM     15  C   UNL     1      -0.092  -5.396   5.133  0.00  0.00    +0.019 A 
ATOM     16  C   UNL     1      -0.183  -5.515   6.511  0.00  0.00    +0.019 A 
ATOM     17  C   UNL     1      -0.193  -4.389   7.312  0.00  0.00    +0.047 A 
ATOM     18  C   UNL     1      -0.105  -3.130   6.742  0.00  0.00    +0.127 A 
ATOM     19 BR   UNL     1      -0.081  -6.949   4.053  0.00  0.00    -0.050 Br
BRANCH  18  20
ATOM     20  O   UNL     1      -0.109  -2.023   7.528  0.00  0.00    -0.495 OA
ATOM     21  C   UNL     1      -0.200  -2.231   8.939  0.00  0.00    +0.277 C 
ENDBRANCH  18  20
ENDBRANCH  11  13
BRANCH   4  22
ATOM     22  O   UNL     1      -1.381  -2.587  -2.251  0.00  0.00    -0.506 OA
ATOM     23  H   UNL     1      -0.596  -2.834  -2.758  0.00  0.00    +0.292 HD
ENDBRANCH   4  22
BRANCH   5  24
ATOM     24  C   UNL     1      -1.050  -4.187   0.041  0.00  0.00    -0.036 C 
BRANCH  24  25
ATOM     25  N   UNL     1       0.268  -4.774  -0.235  0.00  0.00    +0.383 N 
ATOM     26  C   UNL     1       1.175  -4.562   0.921  0.00  0.00    -0.078 C 
ATOM     27  C   UNL     1       2.248  -5.665   0.737  0.00  0.00    -0.020 C 
ATOM     28  C   UNL     1       1.425  -6.862   0.207  0.00  0.00    -0.020 C 
ATOM     29  C   UNL     1       0.150  -6.240  -0.392  0.00  0.00    -0.078 C 
ATOM     30  H   UNL     1       0.663  -4.365  -1.069  0.00  0.00    -0.081 HD
ENDBRANCH  24  25
ENDBRANCH   5  24
TORSDOF 5
