REMARK  Name = ZINC09283056
REMARK  8 active torsions:
REMARK  status: ('A' for Active; 'I' for Inactive)
REMARK    1  A    between atoms: C_1  and  C_2
REMARK    2  A    between atoms: C_5  and  N_8
REMARK    3  A    between atoms: C_9  and  C_11
REMARK    4  A    between atoms: C_11  and  N_12
REMARK    5  A    between atoms: C_16  and  C_17
REMARK    6  A    between atoms: C_22  and  O_23
REMARK    7  A    between atoms: O_23  and  C_24
REMARK    8  A    between atoms: C_24  and  C_25
REMARK                            x       y       z     vdW  Elec       q    Type
REMARK                         _______ _______ _______ _____ _____    ______ ____
ROOT
ATOM      1  N   UNL     1      -1.942   3.688  -0.032  0.00  0.00    -0.219 N 
ATOM      2  C   UNL     1      -1.514   4.219  -1.165  0.00  0.00    +0.261 C 
ATOM      3  O   UNL     1      -1.498   3.583  -2.203  0.00  0.00    -0.269 OA
ATOM      4  C   UNL     1      -1.055   5.621  -1.107  0.00  0.00    +0.080 C 
ATOM      5  C   UNL     1      -0.569   6.414  -2.096  0.00  0.00    +0.032 C 
ATOM      6  S   UNL     1      -1.314   5.987   0.623  0.00  0.00    -0.026 S 
ATOM      7  C   UNL     1      -1.963   4.398   1.115  0.00  0.00    +0.286 C 
ATOM      8  O   UNL     1      -2.332   4.040   2.217  0.00  0.00    -0.262 OA
ENDROOT
BRANCH   5   9
ATOM      9  C   UNL     1      -0.294   7.831  -1.832  0.00  0.00    +0.018 A 
ATOM     10  C   UNL     1      -0.866   8.465  -0.723  0.00  0.00    +0.011 A 
ATOM     11  C   UNL     1      -0.603   9.796  -0.482  0.00  0.00    +0.001 A 
ATOM     12  C   UNL     1       0.227  10.510  -1.331  0.00  0.00    +0.004 A 
ATOM     13  C   UNL     1       0.799   9.897  -2.429  0.00  0.00    +0.046 A 
ATOM     14  C   UNL     1       0.551   8.558  -2.687  0.00  0.00    +0.128 A 
BRANCH  14  15
ATOM     15  O   UNL     1       1.117   7.954  -3.762  0.00  0.00    -0.482 OA
BRANCH  15  16
ATOM     16  C   UNL     1       1.965   8.757  -4.586  0.00  0.00    +0.324 C 
BRANCH  16  17
ATOM     17  C   UNL     1       2.498   7.923  -5.721  0.00  0.00    +0.248 C 
ATOM     18  O   UNL     1       2.184   6.755  -5.816  0.00  0.00    -0.272 OA
ATOM     19  N   UNL     1       3.325   8.474  -6.632  0.00  0.00    -0.327 N 
ATOM     20  H   UNL     1       3.577   9.408  -6.556  0.00  0.00    +0.145 HD
ATOM     21  H   UNL     1       3.669   7.937  -7.363  0.00  0.00    +0.145 HD
ENDBRANCH  16  17
ENDBRANCH  15  16
ENDBRANCH  14  15
ENDBRANCH   5   9
BRANCH   1  22
ATOM     22  C   UNL     1      -2.411   2.300  -0.024  0.00  0.00    +0.213 C 
BRANCH  22  24
ATOM     23  N   UNL     1      -1.450   0.049   0.328  0.00  0.00    -0.284 N 
ATOM     24  C   UNL     1      -1.254   1.381   0.270  0.00  0.00    +0.235 C 
ATOM     25  O   UNL     1      -0.145   1.839   0.449  0.00  0.00    -0.274 OA
ATOM     26  H   UNL     1      -2.349  -0.312   0.285  0.00  0.00    +0.155 HD
BRANCH  23  31
ATOM     27  C   UNL     1       2.988  -3.452   0.821  0.00  0.00    +0.044 C 
ATOM     28  C   UNL     1       1.809  -2.522   0.690  0.00  0.00    -0.050 A 
ATOM     29  C   UNL     1       1.817  -1.302   1.341  0.00  0.00    +0.005 A 
ATOM     30  C   UNL     1       0.738  -0.447   1.222  0.00  0.00    +0.023 A 
ATOM     31  C   UNL     1      -0.355  -0.815   0.449  0.00  0.00    +0.033 A 
ATOM     32  C   UNL     1      -0.362  -2.043  -0.199  0.00  0.00    +0.023 A 
ATOM     33  C   UNL     1       0.722  -2.890  -0.081  0.00  0.00    +0.005 A 
ENDBRANCH  23  31
ENDBRANCH  22  24
ENDBRANCH   1  22
TORSDOF 7
