REMARK  Name = ZINC00307490
REMARK  5 active torsions:
REMARK  status: ('A' for Active; 'I' for Inactive)
REMARK    1  A    between atoms: C_3  and  C_6
REMARK    2  A    between atoms: C_7  and  C_8
REMARK    3  A    between atoms: C_8  and  O_10
REMARK    4  A    between atoms: O_10  and  C_11
REMARK    5  A    between atoms: C_11  and  C_12
REMARK                            x       y       z     vdW  Elec       q    Type
REMARK                         _______ _______ _______ _____ _____    ______ ____
ROOT
ATOM      1  C   UNL     1       1.423   1.614  -0.003  0.00  0.00    +0.234 C 
ENDROOT
BRANCH   1   2
ATOM      2  C   UNL     1      -0.013   1.086   0.008  0.00  0.00    +0.013 C 
ATOM      3  C   UNL     1      -0.749   1.591  -1.234  0.00  0.00    +0.003 C 
ATOM      4  C   UNL     1      -2.196   1.092  -1.185  0.00  0.00    -0.018 C 
ATOM      5  C   UNL     1      -2.852   1.609   0.095  0.00  0.00    -0.078 C 
ATOM      6  C   UNL     1      -0.727   1.578   1.271  0.00  0.00    -0.062 C 
ATOM      7  C   UNL     1       0.014   1.014   2.487  0.00  0.00    -0.015 C 
ATOM      8  C   UNL     1      -0.693   1.445   3.773  0.00  0.00    -0.003 C 
ATOM      9  C   UNL     1      -2.142   0.948   3.726  0.00  0.00    -0.019 C 
ATOM     10  C   UNL     1      -2.826   1.539   2.494  0.00  0.00    -0.078 C 
ATOM     11  N   UNL     1      -2.131   1.094   1.273  0.00  0.00    +0.382 N 
ATOM     12  H   UNL     1      -2.127   0.068   1.244  0.00  0.00    -0.081 HD
ENDBRANCH   1   2
BRANCH   1  13
ATOM     13  O   UNL     1       2.126   1.059  -1.116  0.00  0.00    -0.461 OA
BRANCH  13  14
ATOM     14  C   UNL     1       3.416   1.426  -1.272  0.00  0.00    +0.332 C 
ATOM     15  O   UNL     1       3.929   2.197  -0.481  0.00  0.00    -0.246 OA
BRANCH  14  17
ATOM     16  C   UNL     1       5.468   1.285  -2.507  0.00  0.00    +0.053 C 
ATOM     17  C   UNL     1       4.171   0.915  -2.351  0.00  0.00    +0.095 C 
BRANCH  16  20
ATOM     18  C   UNL     1       7.878   0.339  -5.021  0.00  0.00    +0.042 A 
ATOM     19  C   UNL     1       7.545   1.062  -3.866  0.00  0.00    +0.049 A 
ATOM     20  C   UNL     1       6.224   0.773  -3.588  0.00  0.00    +0.128 A 
ATOM     21  O   UNL     1       5.785  -0.089  -4.529  0.00  0.00    -0.464 OA
ATOM     22  C   UNL     1       6.774  -0.347  -5.394  0.00  0.00    +0.195 A 
ENDBRANCH  16  20
ENDBRANCH  14  17
ENDBRANCH  13  14
ENDBRANCH   1  13
TORSDOF 5
