REMARK  Name = ZINC10222126
REMARK  5 active torsions:
REMARK  status: ('A' for Active; 'I' for Inactive)
REMARK    1  A    between atoms: C_8  and  C_12
REMARK    2  A    between atoms: N_14  and  C_15
REMARK    3  A    between atoms: C_15  and  C_16
REMARK    4  A    between atoms: C_16  and  C_17
REMARK    5  A    between atoms: C_20  and  N_23
REMARK                            x       y       z     vdW  Elec       q    Type
REMARK                         _______ _______ _______ _____ _____    ______ ____
ROOT
ATOM      1  C   UNL     1      -4.891   5.169  -2.538  0.00  0.00    +0.251 C 
ATOM      2  O   UNL     1      -4.369   4.878  -3.597  0.00  0.00    -0.270 OA
ATOM      3  N   UNL     1      -4.292   4.835  -1.377  0.00  0.00    -0.311 N 
ATOM      4  H   UNL     1      -4.708   5.067  -0.532  0.00  0.00    +0.149 HD
ENDROOT
BRANCH   1  12
ATOM      5  C   UNL     1      -9.853   7.932  -0.198  0.00  0.00    +0.001 A 
ATOM      6  C   UNL     1     -10.438   8.258  -1.414  0.00  0.00    +0.004 A 
ATOM      7  C   UNL     1      -9.827   7.918  -2.602  0.00  0.00    +0.047 A 
ATOM      8  C   UNL     1      -8.611   7.242  -2.589  0.00  0.00    +0.139 A 
ATOM      9  C   UNL     1      -8.020   6.912  -1.356  0.00  0.00    +0.018 A 
ATOM     10  C   UNL     1      -8.661   7.269  -0.160  0.00  0.00    +0.011 A 
ATOM     11  C   UNL     1      -6.782   6.222  -1.324  0.00  0.00    +0.031 A 
ATOM     12  C   UNL     1      -6.177   5.886  -2.522  0.00  0.00    +0.122 A 
ATOM     13  C   UNL     1      -6.838   6.261  -3.778  0.00  0.00    +0.350 A 
ATOM     14  O   UNL     1      -6.322   5.979  -4.843  0.00  0.00    -0.244 OA
ATOM     15  O   UNL     1      -8.015   6.909  -3.754  0.00  0.00    -0.422 OA
ENDBRANCH   1  12
BRANCH   3  16
ATOM     16  C   UNL     1      -3.012   4.122  -1.392  0.00  0.00    +0.109 C 
BRANCH  16  17
ATOM     17  C   UNL     1      -2.554   3.867   0.045  0.00  0.00    +0.054 C 
BRANCH  17  18
ATOM     18  C   UNL     1      -1.237   3.133   0.029  0.00  0.00    -0.046 A 
ATOM     19  C   UNL     1      -1.218   1.751   0.017  0.00  0.00    +0.006 A 
ATOM     20  C   UNL     1      -0.013   1.076   0.008  0.00  0.00    +0.028 A 
ATOM     21  C   UNL     1       1.180   1.787   0.000  0.00  0.00    +0.065 A 
ATOM     22  C   UNL     1       1.157   3.175   0.008  0.00  0.00    +0.028 A 
ATOM     23  C   UNL     1      -0.051   3.845   0.022  0.00  0.00    +0.006 A 
BRANCH  21  24
ATOM     24  N   UNL     1       2.404   1.105  -0.015  0.00  0.00    -0.240 N 
ATOM     25  C   UNL     1       3.631   1.673  -0.029  0.00  0.00    +0.114 A 
ATOM     26  C   UNL     1       4.546   0.676  -0.038  0.00  0.00    +0.041 A 
ATOM     27  C   UNL     1       3.857  -0.542  -0.038  0.00  0.00    +0.135 A 
ATOM     28  N   UNL     1       2.573  -0.286  -0.025  0.00  0.00    -0.175 NA
ENDBRANCH  21  24
ENDBRANCH  17  18
ENDBRANCH  16  17
ENDBRANCH   3  16
TORSDOF 5
