REMARK  Name = ZINC58214500
REMARK  10 active torsions:
REMARK  status: ('A' for Active; 'I' for Inactive)
REMARK    1  A    between atoms: C_1  and  C_2
REMARK    2  A    between atoms: C_2  and  N_3
REMARK    3  A    between atoms: N_3  and  C_4
REMARK    4  A    between atoms: N_3  and  C_6
REMARK    5  A    between atoms: C_4  and  C_5
REMARK    6  A    between atoms: C_6  and  C_8
REMARK    7  A    between atoms: C_6  and  C_24
REMARK    8  A    between atoms: C_8  and  N_9
REMARK    9  A    between atoms: C_10  and  C_12
REMARK   10  A    between atoms: N_22  and  C_23
REMARK                            x       y       z     vdW  Elec       q    Type
REMARK                         _______ _______ _______ _____ _____    ______ ____
ROOT
ATOM      1  N   UNL     1       0.952  -1.500   0.961  0.00  0.00    -0.312 N 
ATOM      2  C   UNL     1       1.991  -1.623   1.810  0.00  0.00    +0.244 C 
ATOM      3  O   UNL     1       1.944  -2.433   2.716  0.00  0.00    -0.270 OA
ATOM      4  H   UNL     1       0.990  -0.855   0.238  0.00  0.00    +0.149 HD
ENDROOT
BRANCH   2   5
ATOM      5  C   UNL     1       3.186  -0.775   1.640  0.00  0.00    +0.039 A 
ATOM      6  C   UNL     1       3.238   0.159   0.602  0.00  0.00    +0.015 A 
ATOM      7  C   UNL     1       4.354   0.953   0.443  0.00  0.00    +0.026 A 
ATOM      8  C   UNL     1       5.425   0.823   1.314  0.00  0.00    +0.051 A 
ATOM      9  C   UNL     1       5.383  -0.112   2.354  0.00  0.00    +0.055 A 
ATOM     10  C   UNL     1       4.264  -0.903   2.521  0.00  0.00    +0.038 A 
ATOM     11  N   UNL     1       6.481  -0.235   3.216  0.00  0.00    -0.283 N 
ATOM     12  C   UNL     1       7.440   0.710   3.244  0.00  0.00    +0.235 C 
ATOM     13  O   UNL     1       8.403   0.566   3.967  0.00  0.00    -0.274 OA
ATOM     14  C   UNL     1       7.329   1.945   2.387  0.00  0.00    +0.200 C 
ATOM     15  N   UNL     1       6.562   1.621   1.175  0.00  0.00    -0.323 N 
ATOM     16  C   UNL     1       6.980   2.119  -0.138  0.00  0.00    +0.130 C 
ATOM     17  H   UNL     1       6.550  -1.007   3.798  0.00  0.00    +0.155 HD
ENDBRANCH   2   5
BRANCH   1  18
ATOM     18  C   UNL     1      -0.235  -2.342   1.129  0.00  0.00    +0.097 C 
BRANCH  18  19
ATOM     19  C   UNL     1      -1.212  -2.084  -0.020  0.00  0.00    +0.016 C 
BRANCH  19  20
ATOM     20  C   UNL     1      -2.486  -2.852   0.221  0.00  0.00    +0.093 A 
ATOM     21  C   UNL     1      -2.824  -4.017  -0.359  0.00  0.00    +0.043 A 
ATOM     22  C   UNL     1      -4.092  -4.376   0.151  0.00  0.00    +0.041 A 
ATOM     23  C   UNL     1      -4.454  -3.409   1.013  0.00  0.00    +0.195 A 
ATOM     24  O   UNL     1      -3.474  -2.490   1.055  0.00  0.00    -0.469 OA
ENDBRANCH  19  20
BRANCH  19  25
ATOM     25  N   UNL     1      -1.511  -0.648  -0.094  0.00  0.00    +0.387 N 
ATOM     26  H   UNL     1      -0.671  -0.140  -0.328  0.00  0.00    -0.081 HD
BRANCH  25  28
ATOM     27  C   UNL     1      -1.943  -0.738  -2.503  0.00  0.00    -0.017 C 
ATOM     28  C   UNL     1      -2.529  -0.413  -1.128  0.00  0.00    -0.081 C 
ENDBRANCH  25  28
BRANCH  25  29
ATOM     29  C   UNL     1      -2.018  -0.186   1.205  0.00  0.00    -0.081 C 
ATOM     30  C   UNL     1      -2.177   1.336   1.178  0.00  0.00    -0.017 C 
ENDBRANCH  25  29
ENDBRANCH  19  25
ENDBRANCH  18  19
ENDBRANCH   1  18
TORSDOF 7
