REMARK  Name = ZINC00985964
REMARK  3 active torsions:
REMARK  status: ('A' for Active; 'I' for Inactive)
REMARK    1  A    between atoms: C_6  and  C_7
REMARK    2  A    between atoms: C_7  and  S_8
REMARK    3  A    between atoms: S_8  and  C_9
REMARK                            x       y       z     vdW  Elec       q    Type
REMARK                         _______ _______ _______ _____ _____    ______ ____
ROOT
ATOM      1  C   UNL     1       1.137  -0.694  -0.012  0.00  0.00    +0.191 A 
ATOM      2  N   UNL     1       0.002  -0.004   0.002  0.00  0.00    -0.207 NA
ATOM      3  C   UNL     1      -0.016   1.319   0.009  0.00  0.00    +0.129 A 
ATOM      4  C   UNL     1       1.217   2.028   0.001  0.00  0.00    +0.051 A 
ATOM      5  C   UNL     1       1.433   3.485   0.005  0.00  0.00    -0.025 A 
ATOM      6  C   UNL     1       2.706   3.910  -0.001  0.00  0.00    -0.004 A 
ATOM      7  S   UNL     1       3.689   2.428  -0.015  0.00  0.00    -0.073 S 
ATOM      8  C   UNL     1       2.378   1.235  -0.012  0.00  0.00    +0.115 A 
ATOM      9  N   UNL     1       2.315  -0.084  -0.019  0.00  0.00    -0.215 NA
ATOM     10  C   UNL     1       2.804   5.412   0.008  0.00  0.00    +0.043 C 
ATOM     11  C   UNL     1       1.406   5.888   0.459  0.00  0.00    +0.010 C 
ATOM     12  C   UNL     1       0.516   4.711   0.015  0.00  0.00    +0.037 C 
ATOM     13  N   UNL     1      -1.218   2.003   0.019  0.00  0.00    -0.343 N 
ATOM     14  H   UNL     1      -2.055   1.513   0.020  0.00  0.00    +0.144 HD
ATOM     15  H   UNL     1      -1.223   2.973   0.024  0.00  0.00    +0.144 HD
ENDROOT
BRANCH   1  16
ATOM     16  S   UNL     1       1.077  -2.455  -0.022  0.00  0.00    -0.081 S 
BRANCH  16  17
ATOM     17  C   UNL     1      -0.715  -2.708  -0.007  0.00  0.00    +0.112 C 
BRANCH  17  23
ATOM     18  C   UNL     1      -1.167  -4.855  -1.212  0.00  0.00    +0.005 A 
ATOM     19  C   UNL     1      -1.436  -6.210  -1.218  0.00  0.00    +0.015 A 
ATOM     20  C   UNL     1      -1.562  -6.895  -0.023  0.00  0.00    +0.018 A 
ATOM     21  C   UNL     1      -1.414  -6.224   1.177  0.00  0.00    +0.015 A 
ATOM     22  C   UNL     1      -1.140  -4.870   1.182  0.00  0.00    +0.005 A 
ATOM     23  C   UNL     1      -1.014  -4.185  -0.013  0.00  0.00    -0.037 A 
ATOM     24 BR   UNL     1      -1.937  -8.749  -0.030  0.00  0.00    -0.050 Br
ENDBRANCH  17  23
ENDBRANCH  16  17
ENDBRANCH   1  16
TORSDOF 3
