REMARK  Name = ZINC00071754
REMARK  6 active torsions:
REMARK  status: ('A' for Active; 'I' for Inactive)
REMARK    1  A    between atoms: C_1  and  C_2
REMARK    2  A    between atoms: C_3  and  C_20
REMARK    3  A    between atoms: C_4  and  C_10
REMARK    4  A    between atoms: C_13  and  C_16
REMARK    5  A    between atoms: C_16  and  O_18
REMARK    6  A    between atoms: O_18  and  C_19
REMARK                            x       y       z     vdW  Elec       q    Type
REMARK                         _______ _______ _______ _____ _____    ______ ____
ROOT
ATOM      1  C   UNL     1      -2.804   2.329   2.539  0.00  0.00    +0.061 C 
ATOM      2  C   UNL     1      -1.957   2.045   1.325  0.00  0.00    +0.017 C 
ATOM      3  C   UNL     1      -0.715   1.543   1.485  0.00  0.00    +0.055 C 
ATOM      4  C   UNL     1       0.103   1.271   0.239  0.00  0.00    +0.139 C 
ATOM      5  N   UNL     1      -0.531   1.578  -1.055  0.00  0.00    -0.315 N 
ATOM      6  C   UNL     1      -1.784   2.076  -1.053  0.00  0.00    +0.135 C 
ATOM      7  S   UNL     1      -2.533   2.438  -2.549  0.00  0.00    -0.019 S 
ATOM      8  N   UNL     1      -2.461   2.297   0.081  0.00  0.00    -0.300 N 
ATOM      9  H   UNL     1      -0.059   1.426  -1.888  0.00  0.00    +0.149 HD
ATOM     10  H   UNL     1      -3.359   2.658   0.015  0.00  0.00    +0.154 HD
ENDROOT
BRANCH   4  11
ATOM     11  C   UNL     1       1.375   2.073   0.334  0.00  0.00    -0.023 A 
ATOM     12  C   UNL     1       1.392   3.391  -0.086  0.00  0.00    +0.006 A 
ATOM     13  C   UNL     1       2.552   4.132   0.003  0.00  0.00    +0.015 A 
ATOM     14  C   UNL     1       3.714   3.545   0.509  0.00  0.00    +0.059 A 
ATOM     15  C   UNL     1       3.692   2.213   0.926  0.00  0.00    +0.015 A 
ATOM     16  C   UNL     1       2.523   1.485   0.836  0.00  0.00    +0.006 A 
BRANCH  14  17
ATOM     17  C   UNL     1       4.962   4.331   0.602  0.00  0.00    +0.339 C 
ATOM     18  O   UNL     1       5.971   3.817   1.041  0.00  0.00    -0.245 OA
BRANCH  17  19
ATOM     19  O   UNL     1       4.981   5.616   0.198  0.00  0.00    -0.464 OA
ATOM     20  C   UNL     1       6.241   6.326   0.318  0.00  0.00    +0.280 C 
ENDBRANCH  17  19
ENDBRANCH  14  17
ENDBRANCH   4  11
BRANCH   3  21
ATOM     21  C   UNL     1      -0.193   1.280   2.775  0.00  0.00    +0.241 C 
ATOM     22  O   UNL     1      -0.189   0.142   3.209  0.00  0.00    -0.271 OA
ATOM     23  N   UNL     1       0.298   2.288   3.522  0.00  0.00    -0.326 N 
ATOM     24  H   UNL     1       0.228   3.203   3.209  0.00  0.00    +0.145 HD
ATOM     25  H   UNL     1       0.722   2.099   4.374  0.00  0.00    +0.145 HD
ENDBRANCH   3  21
TORSDOF 4
