REMARK  Name = ZINC35427406
REMARK  7 active torsions:
REMARK  status: ('A' for Active; 'I' for Inactive)
REMARK    1  A    between atoms: C_1  and  C_2
REMARK    2  A    between atoms: C_2  and  C_3
REMARK    3  A    between atoms: C_3  and  N_4
REMARK    4  A    between atoms: C_19  and  C_21
REMARK    5  A    between atoms: C_24  and  C_27
REMARK    6  A    between atoms: N_29  and  C_32
REMARK    7  A    between atoms: C_32  and  C_33
REMARK                            x       y       z     vdW  Elec       q    Type
REMARK                         _______ _______ _______ _____ _____    ______ ____
ROOT
ATOM      1  N   UNL     1       0.928  -1.645  -1.631  0.00  0.00    -0.299 N 
ATOM      2  C   UNL     1       1.485  -2.464  -2.545  0.00  0.00    +0.303 C 
ATOM      3  O   UNL     1       2.089  -1.996  -3.491  0.00  0.00    -0.253 OA
ATOM      4  N   UNL     1       1.372  -3.800  -2.411  0.00  0.00    -0.269 N 
ATOM      5  C   UNL     1       0.643  -4.404  -1.282  0.00  0.00    +0.148 C 
ATOM      6  C   UNL     1      -0.176  -5.608  -1.691  0.00  0.00    +0.004 A 
ATOM      7  C   UNL     1      -1.583  -5.611  -1.714  0.00  0.00    -0.034 A 
ATOM      8  C   UNL     1      -2.210  -6.763  -2.078  0.00  0.00    -0.021 A 
ATOM      9  S   UNL     1      -0.877  -7.883  -2.414  0.00  0.00    -0.077 S 
ATOM     10  C   UNL     1       0.443  -6.762  -2.063  0.00  0.00    +0.090 A 
ATOM     11  N   UNL     1       1.822  -6.916  -2.140  0.00  0.00    -0.312 N 
ATOM     12  C   UNL     1       2.639  -7.904  -1.707  0.00  0.00    +0.092 A 
ATOM     13  C   UNL     1       3.914  -7.537  -1.969  0.00  0.00    +0.020 A 
ATOM     14  C   UNL     1       3.872  -6.279  -2.608  0.00  0.00    +0.025 A 
ATOM     15  C   UNL     1       2.583  -5.930  -2.725  0.00  0.00    +0.049 A 
ATOM     16  C   UNL     1       1.971  -4.733  -3.396  0.00  0.00    +0.155 C 
ATOM     17  C   UNL     1      -3.683  -6.994  -2.163  0.00  0.00    -0.035 C 
ATOM     18  N   UNL     1      -4.365  -5.901  -1.445  0.00  0.00    +0.383 N 
ATOM     19  C   UNL     1      -3.837  -4.610  -1.903  0.00  0.00    -0.074 C 
ATOM     20  C   UNL     1      -2.424  -4.389  -1.353  0.00  0.00    +0.018 C 
ATOM     21  H   UNL     1       0.446  -2.018  -0.876  0.00  0.00    +0.150 HD
ATOM     22  H   UNL     1      -4.205  -5.998  -0.453  0.00  0.00    -0.081 HD
ENDROOT
BRANCH  16  23
ATOM     23  C   UNL     1       0.899  -5.193  -4.350  0.00  0.00    -0.021 A 
ATOM     24  C   UNL     1      -0.249  -4.441  -4.516  0.00  0.00    +0.006 A 
ATOM     25  C   UNL     1      -1.232  -4.863  -5.391  0.00  0.00    +0.004 A 
ATOM     26  C   UNL     1      -1.067  -6.038  -6.101  0.00  0.00    -0.050 A 
ATOM     27  C   UNL     1       0.082  -6.790  -5.936  0.00  0.00    +0.004 A 
ATOM     28  C   UNL     1       1.067  -6.365  -5.064  0.00  0.00    +0.006 A 
ATOM     29  C   UNL     1      -2.139  -6.499  -7.055  0.00  0.00    +0.044 C 
ENDBRANCH  16  23
BRANCH  18  30
ATOM     30  C   UNL     1      -5.808  -5.963  -1.715  0.00  0.00    -0.082 C 
ATOM     31  C   UNL     1      -6.382  -7.254  -1.127  0.00  0.00    -0.017 C 
ENDBRANCH  18  30
BRANCH   1  32
ATOM     32  C   UNL     1       1.050  -0.193  -1.776  0.00  0.00    +0.105 C 
BRANCH  32  34
ATOM     33  C   UNL     1       0.462   2.015  -0.766  0.00  0.00    +0.005 C 
ATOM     34  C   UNL     1       0.335   0.498  -0.614  0.00  0.00    +0.015 C 
ENDBRANCH  32  34
ENDBRANCH   1  32
TORSDOF 4
