REMARK  Name = ZINC09450305
REMARK  5 active torsions:
REMARK  status: ('A' for Active; 'I' for Inactive)
REMARK    1  A    between atoms: C_6  and  N_7
REMARK    2  A    between atoms: N_19  and  C_20
REMARK    3  A    between atoms: C_20  and  C_22
REMARK    4  A    between atoms: C_22  and  C_23
REMARK    5  A    between atoms: C_23  and  C_24
REMARK                            x       y       z     vdW  Elec       q    Type
REMARK                         _______ _______ _______ _____ _____    ______ ____
ROOT
ATOM      1  N   UNL     1      -1.869   4.541   0.043  0.00  0.00    -0.276 N 
ATOM      2  C   UNL     1      -1.598   5.961   0.158  0.00  0.00    +0.116 C 
ATOM      3  C   UNL     1      -0.784   6.218   1.449  0.00  0.00    +0.190 C 
ATOM      4  S   UNL     1      -1.408   7.876   1.964  0.00  0.00    -0.028 S 
ATOM      5  O   UNL     1      -1.466   7.937   3.382  0.00  0.00    -0.174 OA
ATOM      6  O   UNL     1      -0.716   8.885   1.241  0.00  0.00    -0.174 OA
ATOM      7  C   UNL     1      -3.118   7.705   1.289  0.00  0.00    +0.182 C 
ATOM      8  C   UNL     1      -2.857   6.827   0.050  0.00  0.00    +0.097 C 
ATOM      9  S   UNL     1      -4.168   5.553  -0.068  0.00  0.00    -0.086 S 
ATOM     10  C   UNL     1      -3.148   4.093  -0.055  0.00  0.00    +0.154 C 
ATOM     11  N   UNL     1      -3.553   2.830  -0.126  0.00  0.00    -0.159 NA
ENDROOT
BRANCH   1  17
ATOM     12  C   UNL     1       0.076   3.608  -1.042  0.00  0.00    +0.027 A 
ATOM     13  C   UNL     1       1.124   2.708  -1.058  0.00  0.00    +0.051 A 
ATOM     14  C   UNL     1       1.296   1.822  -0.007  0.00  0.00    +0.166 A 
ATOM     15  C   UNL     1       0.410   1.839   1.069  0.00  0.00    +0.168 A 
ATOM     16  C   UNL     1      -0.642   2.739   1.082  0.00  0.00    +0.073 A 
ATOM     17  C   UNL     1      -0.808   3.628   0.028  0.00  0.00    +0.039 A 
ATOM     18  O   UNL     1       0.792   0.881   1.963  0.00  0.00    -0.453 OA
ATOM     19  C   UNL     1       2.152   0.555   1.621  0.00  0.00    +0.466 C 
ATOM     20  O   UNL     1       2.232   0.852   0.215  0.00  0.00    -0.453 OA
ENDBRANCH   1  17
BRANCH  11  21
ATOM     21  C   UNL     1      -4.851   2.552  -0.220  0.00  0.00    +0.238 C 
ATOM     22  O   UNL     1      -5.666   3.454  -0.241  0.00  0.00    -0.274 OA
BRANCH  21  23
ATOM     23  C   UNL     1      -5.310   1.119  -0.299  0.00  0.00    +0.098 C 
BRANCH  23  24
ATOM     24  C   UNL     1      -6.837   1.078  -0.400  0.00  0.00    +0.013 C 
BRANCH  24  25
ATOM     25  C   UNL     1      -7.303  -0.377  -0.481  0.00  0.00    -0.011 C 
ATOM     26  C   UNL     1      -6.858  -1.001  -1.820  0.00  0.00    +0.003 C 
ATOM     27  C   UNL     1      -8.038  -1.920  -2.222  0.00  0.00    +0.000 C 
ATOM     28  C   UNL     1      -9.276  -1.099  -1.781  0.00  0.00    +0.000 C 
ATOM     29  C   UNL     1      -8.841  -0.440  -0.457  0.00  0.00    +0.003 C 
ENDBRANCH  24  25
ENDBRANCH  23  24
ENDBRANCH  21  23
ENDBRANCH  11  21
TORSDOF 5
