REMARK  Name = ZINC26641571
REMARK  4 active torsions:
REMARK  status: ('A' for Active; 'I' for Inactive)
REMARK    1  A    between atoms: C_3  and  C_10
REMARK    2  A    between atoms: C_5  and  N_7
REMARK    3  A    between atoms: C_13  and  C_15
REMARK    4  A    between atoms: C_25  and  C_27
REMARK                            x       y       z     vdW  Elec       q    Type
REMARK                         _______ _______ _______ _____ _____    ______ ____
ROOT
ATOM      1  C   UNL     1       1.397   8.338  -0.437  0.00  0.00    +0.063 C 
ATOM      2  C   UNL     1       2.744   8.301  -0.108  0.00  0.00    +0.084 C 
ATOM      3  C   UNL     1       3.461   7.017   0.115  0.00  0.00    +0.153 C 
ATOM      4  N   UNL     1       2.892   5.957   0.630  0.00  0.00    -0.283 NA
ATOM      5  N   UNL     1       4.814   7.052  -0.283  0.00  0.00    -0.152 N 
ATOM      6  C   UNL     1       5.423   8.286  -0.360  0.00  0.00    +0.181 C 
ATOM      7  N   UNL     1       4.874   9.460  -0.174  0.00  0.00    -0.152 NA
ATOM      8  C   UNL     1       3.546   9.537   0.033  0.00  0.00    +0.273 C 
ATOM      9  O   UNL     1       3.020  10.598   0.332  0.00  0.00    -0.268 OA
ATOM     10  S   UNL     1       7.084   7.855  -0.809  0.00  0.00    -0.038 S 
ATOM     11  C   UNL     1       6.851   6.085  -0.899  0.00  0.00    +0.103 C 
ATOM     12  N   UNL     1       5.593   5.956  -0.586  0.00  0.00    -0.169 NA
ATOM     13  H   UNL     1       1.832   5.990   0.922  0.00  0.00    +0.188 HD
ENDROOT
BRANCH  11  14
ATOM     14  C   UNL     1       7.853   5.016  -1.249  0.00  0.00    +0.046 C 
ATOM     15  C   UNL     1       7.120   3.789  -1.796  0.00  0.00    +0.010 C 
ATOM     16  C   UNL     1       8.138   2.703  -2.151  0.00  0.00    +0.001 C 
ATOM     17  C   UNL     1       8.923   2.311  -0.898  0.00  0.00    +0.000 C 
ATOM     18  C   UNL     1       9.656   3.537  -0.351  0.00  0.00    +0.001 C 
ATOM     19  C   UNL     1       8.639   4.623   0.004  0.00  0.00    +0.010 C 
ENDBRANCH  11  14
BRANCH   1  23
ATOM     20  C   UNL     1       0.484   5.192  -1.825  0.00  0.00    +0.136 A 
ATOM     21  C   UNL     1      -0.762   5.780  -1.757  0.00  0.00    +0.050 A 
ATOM     22  C   UNL     1      -0.585   7.051  -1.214  0.00  0.00    +0.050 A 
ATOM     23  C   UNL     1       0.774   7.200  -0.977  0.00  0.00    +0.129 A 
ATOM     24  O   UNL     1       1.395   6.062  -1.355  0.00  0.00    -0.455 OA
BRANCH  20  27
ATOM     25  C   UNL     1       0.006   1.764  -3.278  0.00  0.00    +0.003 A 
ATOM     26  C   UNL     1      -0.270   3.028  -2.798  0.00  0.00    +0.012 A 
ATOM     27  C   UNL     1       0.770   3.838  -2.335  0.00  0.00    +0.019 A 
ATOM     28  C   UNL     1       2.083   3.358  -2.357  0.00  0.00    +0.044 A 
ATOM     29  C   UNL     1       2.343   2.091  -2.834  0.00  0.00    +0.127 A 
ATOM     30  C   UNL     1       1.307   1.294  -3.291  0.00  0.00    +0.033 A 
BRANCH  29  31
ATOM     31  N   UNL     1       3.732   1.582  -2.858  0.00  0.00    +0.056 N 
ATOM     32  O   UNL     1       3.963   0.462  -3.279  0.00  0.00    -0.126 OA
ATOM     33  O   UNL     1       4.644   2.282  -2.456  0.00  0.00    -0.126 OA
ENDBRANCH  29  31
ENDBRANCH  20  27
ENDBRANCH   1  23
TORSDOF 4
