REMARK  Name = ZINC08344688
REMARK  8 active torsions:
REMARK  status: ('A' for Active; 'I' for Inactive)
REMARK    1  A    between atoms: C_1  and  C_2
REMARK    2  A    between atoms: C_2  and  C_3
REMARK    3  A    between atoms: C_3  and  C_4
REMARK    4  A    between atoms: C_4  and  N_5
REMARK    5  A    between atoms: C_14  and  C_16
REMARK    6  A    between atoms: N_18  and  N_19
REMARK    7  A    between atoms: C_20  and  C_21
REMARK    8  A    between atoms: C_23  and  N_28
REMARK                            x       y       z     vdW  Elec       q    Type
REMARK                         _______ _______ _______ _____ _____    ______ ____
ROOT
ATOM      1  C   UNL     1       0.334  -3.326  -5.829  0.00  0.00    +0.284 C 
ATOM      2  O   UNL     1       0.797  -3.717  -6.883  0.00  0.00    -0.267 OA
ATOM      3  N   UNL     1      -0.986  -3.078  -5.723  0.00  0.00    -0.202 N 
ATOM      4  H   UNL     1      -1.356  -2.765  -4.882  0.00  0.00    +0.178 HD
ENDROOT
BRANCH   1  14
ATOM      5  N   UNL     1       1.425  -2.500  -2.470  0.00  0.00    -0.228 N 
ATOM      6  C   UNL     1       2.757  -2.700  -2.410  0.00  0.00    +0.275 A 
ATOM      7  O   UNL     1       3.372  -2.493  -1.379  0.00  0.00    -0.266 OA
ATOM      8  C   UNL     1       3.450  -3.174  -3.616  0.00  0.00    +0.050 A 
ATOM      9  C   UNL     1       4.820  -3.411  -3.657  0.00  0.00    +0.014 A 
ATOM     10  C   UNL     1       5.394  -3.855  -4.829  0.00  0.00    +0.001 A 
ATOM     11  C   UNL     1       4.621  -4.067  -5.962  0.00  0.00    +0.001 A 
ATOM     12  C   UNL     1       3.261  -3.839  -5.942  0.00  0.00    +0.011 A 
ATOM     13  C   UNL     1       2.662  -3.390  -4.770  0.00  0.00    +0.020 A 
ATOM     14  C   UNL     1       1.218  -3.122  -4.665  0.00  0.00    +0.155 A 
ATOM     15  N   UNL     1       0.727  -2.705  -3.523  0.00  0.00    -0.163 NA
BRANCH   5  16
ATOM     16  C   UNL     1       0.739  -2.027  -1.265  0.00  0.00    +0.147 C 
BRANCH  16  17
ATOM     17  C   UNL     1       0.718  -0.497  -1.257  0.00  0.00    +0.023 C 
BRANCH  17  19
ATOM     18  C   UNL     1      -0.019   1.526   0.010  0.00  0.00    +0.004 C 
ATOM     19  C   UNL     1       0.002  -0.004   0.002  0.00  0.00    -0.002 C 
ENDBRANCH  17  19
ENDBRANCH  16  17
ENDBRANCH   5  16
ENDBRANCH   1  14
BRANCH   3  20
ATOM     20  N   UNL     1      -1.826  -3.271  -6.828  0.00  0.00    -0.187 NA
ATOM     21  C   UNL     1      -3.098  -3.032  -6.726  0.00  0.00    +0.142 C 
BRANCH  21  22
ATOM     22  C   UNL     1      -3.981  -3.235  -7.889  0.00  0.00    +0.043 A 
ATOM     23  C   UNL     1      -5.349  -2.973  -7.785  0.00  0.00    +0.046 A 
ATOM     24  C   UNL     1      -6.170  -3.165  -8.877  0.00  0.00    +0.127 A 
ATOM     25  C   UNL     1      -5.643  -3.615 -10.076  0.00  0.00    +0.036 A 
ATOM     26  C   UNL     1      -4.291  -3.878 -10.191  0.00  0.00    +0.054 A 
ATOM     27  C   UNL     1      -3.451  -3.685  -9.106  0.00  0.00    +0.188 A 
ATOM     28  O   UNL     1      -2.122  -3.938  -9.219  0.00  0.00    -0.287 OA
BRANCH  24  29
ATOM     29  N   UNL     1      -7.620  -2.888  -8.767  0.00  0.00    +0.056 N 
ATOM     30  O   UNL     1      -8.082  -2.495  -7.721  0.00  0.00    -0.126 OA
ATOM     31  O   UNL     1      -8.341  -3.055  -9.722  0.00  0.00    -0.126 OA
ENDBRANCH  24  29
ENDBRANCH  21  22
ENDBRANCH   3  20
TORSDOF 7
