REMARK  Name = ZINC16532865
REMARK  9 active torsions:
REMARK  status: ('A' for Active; 'I' for Inactive)
REMARK    1  A    between atoms: C_2  and  C_3
REMARK    2  A    between atoms: C_3  and  N_4
REMARK    3  A    between atoms: N_4  and  C_5
REMARK    4  A    between atoms: C_5  and  C_6
REMARK    5  A    between atoms: N_8  and  C_9
REMARK    6  A    between atoms: N_8  and  C_17
REMARK    7  A    between atoms: C_9  and  C_10
REMARK    8  A    between atoms: C_17  and  C_18
REMARK    9  A    between atoms: N_31  and  C_32
REMARK                            x       y       z     vdW  Elec       q    Type
REMARK                         _______ _______ _______ _____ _____    ______ ____
ROOT
ATOM      1  C   UNL     1      -0.055   0.172  -0.099  0.00  0.00    +0.234 C 
ATOM      2  O   UNL     1       0.955  -0.498  -0.053  0.00  0.00    -0.274 OA
ATOM      3  N   UNL     1       0.025   1.496  -0.338  0.00  0.00    -0.291 N 
ENDROOT
BRANCH   1   4
ATOM      4  C   UNL     1      -1.399  -0.477   0.111  0.00  0.00    +0.205 C 
BRANCH   4   5
ATOM      5  N   UNL     1      -1.232  -1.929   0.202  0.00  0.00    -0.273 N 
ATOM      6  C   UNL     1      -1.017  -2.509   1.400  0.00  0.00    +0.303 C 
ATOM      7  O   UNL     1      -0.963  -1.826   2.404  0.00  0.00    -0.253 OA
ATOM      8  N   UNL     1      -0.864  -3.845   1.484  0.00  0.00    -0.296 N 
ATOM      9  H   UNL     1      -0.907  -4.390   0.682  0.00  0.00    +0.151 HD
BRANCH   8  10
ATOM     10  C   UNL     1      -0.630  -4.475   2.786  0.00  0.00    +0.074 C 
ATOM     11  C   UNL     1       0.863  -4.430   3.114  0.00  0.00    +0.022 C 
ATOM     12  C   UNL     1       1.107  -5.088   4.474  0.00  0.00    +0.002 C 
ATOM     13  C   UNL     1       0.639  -6.544   4.427  0.00  0.00    +0.000 C 
ATOM     14  C   UNL     1      -0.855  -6.589   4.099  0.00  0.00    +0.002 C 
ATOM     15  C   UNL     1      -1.098  -5.931   2.739  0.00  0.00    +0.022 C 
ENDBRANCH   8  10
BRANCH   5  16
ATOM     16  C   UNL     1      -1.298  -2.752  -1.008  0.00  0.00    +0.136 C 
BRANCH  16  18
ATOM     17  C   UNL     1       0.586  -4.071  -1.829  0.00  0.00    +0.005 C 
ATOM     18  C   UNL     1       0.081  -2.884  -1.602  0.00  0.00    -0.016 C 
ENDBRANCH  16  18
ENDBRANCH   5  16
ENDBRANCH   4   5
ENDBRANCH   1   4
BRANCH   3  19
ATOM     19  C   UNL     1      -1.198   2.285  -0.505  0.00  0.00    +0.143 C 
BRANCH  19  20
ATOM     20  C   UNL     1      -1.579   2.906   0.814  0.00  0.00    -0.030 A 
ATOM     21  C   UNL     1      -2.519   2.292   1.621  0.00  0.00    +0.008 A 
ATOM     22  C   UNL     1      -2.866   2.858   2.833  0.00  0.00    +0.038 A 
ATOM     23  C   UNL     1      -2.280   4.047   3.234  0.00  0.00    +0.123 A 
ATOM     24  C   UNL     1      -1.343   4.664   2.422  0.00  0.00    +0.038 A 
ATOM     25  C   UNL     1      -0.994   4.093   1.213  0.00  0.00    +0.008 A 
ATOM     26  F   UNL     1      -2.622   4.604   4.416  0.00  0.00    -0.205 F 
ENDBRANCH  19  20
ENDBRANCH   3  19
BRANCH   3  27
ATOM     27  C   UNL     1       1.335   2.145  -0.435  0.00  0.00    +0.150 C 
BRANCH  27  28
ATOM     28  C   UNL     1       1.805   2.115  -1.866  0.00  0.00    +0.052 A 
ATOM     29  C   UNL     1       2.698   1.191  -2.266  0.00  0.00    +0.204 A 
ATOM     30  O   UNL     1       3.151   1.116  -3.522  0.00  0.00    -0.462 OA
ATOM     31  C   UNL     1       2.745   1.964  -4.489  0.00  0.00    +0.138 A 
ATOM     32  C   UNL     1       3.235   1.858  -5.785  0.00  0.00    +0.047 A 
ATOM     33  C   UNL     1       2.804   2.737  -6.756  0.00  0.00    +0.004 A 
ATOM     34  C   UNL     1       1.883   3.730  -6.455  0.00  0.00    +0.001 A 
ATOM     35  C   UNL     1       1.385   3.851  -5.176  0.00  0.00    +0.015 A 
ATOM     36  C   UNL     1       1.813   2.969  -4.185  0.00  0.00    +0.064 A 
ATOM     37  C   UNL     1       1.304   3.057  -2.803  0.00  0.00    +0.197 A 
ATOM     38  O   UNL     1       0.490   3.905  -2.478  0.00  0.00    -0.287 OA
ENDBRANCH  27  28
ENDBRANCH   3  27
TORSDOF 9
