REMARK  Name = ZINC11624697
REMARK  10 active torsions:
REMARK  status: ('A' for Active; 'I' for Inactive)
REMARK    1  A    between atoms: C_1  and  C_2
REMARK    2  A    between atoms: C_2  and  C_3
REMARK    3  A    between atoms: C_2  and  C_4
REMARK    4  A    between atoms: C_4  and  N_5
REMARK    5  A    between atoms: C_6  and  N_29
REMARK    6  A    between atoms: C_7  and  C_14
REMARK    7  A    between atoms: N_10  and  C_13
REMARK    8  A    between atoms: C_14  and  C_16
REMARK    9  A    between atoms: C_16  and  N_17
REMARK   10  A    between atoms: N_17  and  C_18
REMARK                            x       y       z     vdW  Elec       q    Type
REMARK                         _______ _______ _______ _____ _____    ______ ____
ROOT
ATOM      1  N   UNL     1      -0.059  -0.120  -2.440  0.00  0.00    -0.281 N 
ATOM      2  C   UNL     1      -0.845  -1.047  -3.063  0.00  0.00    +0.116 A 
ATOM      3  C   UNL     1      -1.584  -0.661  -4.195  0.00  0.00    +0.121 A 
ATOM      4  C   UNL     1      -1.459   0.728  -4.655  0.00  0.00    +0.269 A 
ATOM      5  O   UNL     1      -2.072   1.116  -5.633  0.00  0.00    -0.267 OA
ATOM      6  N   UNL     1      -0.651   1.565  -3.972  0.00  0.00    -0.263 N 
ATOM      7  C   UNL     1       0.027   1.140  -2.893  0.00  0.00    +0.333 A 
ATOM      8  O   UNL     1       0.745   1.926  -2.307  0.00  0.00    -0.246 OA
ATOM      9  C   UNL     1      -0.510   2.955  -4.413  0.00  0.00    +0.157 C 
ENDROOT
BRANCH   2  10
ATOM     10  N   UNL     1      -0.916  -2.322  -2.593  0.00  0.00    -0.344 N 
ATOM     11  H   UNL     1      -0.720  -2.507  -1.661  0.00  0.00    +0.144 HD
ATOM     12  H   UNL     1      -1.163  -3.046  -3.189  0.00  0.00    +0.144 HD
ENDBRANCH   2  10
BRANCH   3  13
ATOM     13  C   UNL     1      -2.415  -1.580  -4.870  0.00  0.00    +0.188 C 
ATOM     14  O   UNL     1      -2.586  -2.693  -4.415  0.00  0.00    -0.290 OA
BRANCH  13  15
ATOM     15  C   UNL     1      -3.092  -1.180  -6.156  0.00  0.00    +0.181 C 
BRANCH  15  16
ATOM     16  N   UNL     1      -3.892  -2.301  -6.655  0.00  0.00    -0.336 N 
ATOM     17  H   UNL     1      -3.920  -3.135  -6.162  0.00  0.00    +0.147 HD
BRANCH  16  18
ATOM     18  C   UNL     1      -4.618  -2.167  -7.845  0.00  0.00    +0.045 A 
ATOM     19  C   UNL     1      -4.579  -0.974  -8.552  0.00  0.00    +0.073 A 
ATOM     20  C   UNL     1      -5.297  -0.842  -9.731  0.00  0.00    +0.164 A 
ATOM     21  C   UNL     1      -6.054  -1.907 -10.204  0.00  0.00    +0.163 A 
ATOM     22  C   UNL     1      -6.092  -3.098  -9.495  0.00  0.00    +0.066 A 
ATOM     23  C   UNL     1      -5.372  -3.231  -8.322  0.00  0.00    +0.042 A 
ATOM     24 BR   UNL     1      -5.421  -4.861  -7.364  0.00  0.00    -0.048 Br
ATOM     25  O   UNL     1      -6.762  -1.797 -11.363  0.00  0.00    -0.485 OA
ATOM     26  C   UNL     1      -7.001  -0.472 -11.848  0.00  0.00    +0.270 C 
ATOM     27  C   UNL     1      -5.682   0.310 -11.775  0.00  0.00    +0.270 C 
ATOM     28  O   UNL     1      -5.251   0.337 -10.411  0.00  0.00    -0.485 OA
ENDBRANCH  16  18
ENDBRANCH  15  16
ENDBRANCH  13  15
ENDBRANCH   3  13
BRANCH   1  29
ATOM     29  C   UNL     1       0.711  -0.511  -1.256  0.00  0.00    +0.131 C 
BRANCH  29  31
ATOM     30  C   UNL     1      -0.383   1.232   0.161  0.00  0.00    +0.009 C 
ATOM     31  C   UNL     1      -0.128  -0.268   0.001  0.00  0.00    +0.003 C 
ATOM     32  C   UNL     1       0.626  -0.791   1.225  0.00  0.00    +0.009 C 
ENDBRANCH  29  31
ENDBRANCH   1  29
TORSDOF 7
