REMARK  Name = ZINC04281230
REMARK  11 active torsions:
REMARK  status: ('A' for Active; 'I' for Inactive)
REMARK    1  A    between atoms: C_1  and  C_2
REMARK    2  A    between atoms: C_2  and  O_3
REMARK    3  A    between atoms: O_3  and  C_4
REMARK    4  A    between atoms: C_4  and  C_6
REMARK    5  A    between atoms: C_10  and  N_11
REMARK    6  A    between atoms: C_12  and  C_14
REMARK    7  A    between atoms: C_15  and  C_16
REMARK    8  A    between atoms: C_21  and  C_26
REMARK    9  A    between atoms: C_21  and  C_27
REMARK   10  A    between atoms: C_22  and  C_24
REMARK   11  A    between atoms: C_22  and  C_25
REMARK                            x       y       z     vdW  Elec       q    Type
REMARK                         _______ _______ _______ _____ _____    ______ ____
ROOT
ATOM      1  C   UNL     1       1.316  -0.611  -0.021  0.00  0.00    +0.091 A 
ATOM      2  C   UNL     1       0.002  -0.004   0.002  0.00  0.00    -0.024 A 
ATOM      3  C   UNL     1      -0.016   1.349   0.009  0.00  0.00    -0.016 A 
ATOM      4  S   UNL     1       1.689   1.819  -0.004  0.00  0.00    -0.079 S 
ATOM      5  C   UNL     1       2.414   0.245  -0.026  0.00  0.00    +0.086 A 
ATOM      6  C   UNL     1      -1.229   2.221   0.018  0.00  0.00    -0.041 C 
ATOM      7  C   UNL     1      -2.323   0.118   0.806  0.00  0.00    -0.069 C 
ATOM      8  C   UNL     1      -1.328  -0.746   0.024  0.00  0.00    +0.024 C 
ATOM      9  C   UNL     1      -3.698  -0.573   0.744  0.00  0.00    -0.010 C 
ATOM     10  C   UNL     1      -1.894   0.178   2.275  0.00  0.00    -0.010 C 
ATOM     11  C   UNL     1      -1.071   3.300   1.098  0.00  0.00    -0.005 C 
ATOM     12  C   UNL     1      -1.328   2.927  -1.348  0.00  0.00    -0.005 C 
ATOM     13  N   UNL     1      -2.503   1.476   0.231  0.00  0.00    +0.389 N 
ATOM     14  H   UNL     1      -2.977   1.382  -0.675  0.00  0.00    -0.084 HD
ATOM     15  H   UNL     1      -3.093   2.022   0.870  0.00  0.00    -0.084 HD
ENDROOT
BRANCH   5  16
ATOM     16  N   UNL     1       3.758  -0.084  -0.044  0.00  0.00    -0.276 N 
ATOM     17  C   UNL     1       4.690   0.890  -0.046  0.00  0.00    +0.241 C 
ATOM     18  O   UNL     1       4.349   2.059  -0.032  0.00  0.00    -0.270 OA
ATOM     19  H   UNL     1       4.030  -1.015  -0.056  0.00  0.00    +0.156 HD
BRANCH  17  20
ATOM     20  C   UNL     1       6.063   0.554  -0.065  0.00  0.00    +0.068 C 
ATOM     21  C   UNL     1       7.001   1.535  -0.067  0.00  0.00    +0.020 C 
BRANCH  21  22
ATOM     22  C   UNL     1       8.376   1.199  -0.086  0.00  0.00    +0.012 A 
ATOM     23  C   UNL     1       9.484   2.039  -0.097  0.00  0.00    +0.015 A 
ATOM     24  C   UNL     1      10.719   1.442  -0.112  0.00  0.00    +0.008 A 
ATOM     25  C   UNL     1      10.800   0.085  -0.126  0.00  0.00    +0.046 A 
ATOM     26  S   UNL     1       9.140  -0.413  -0.110  0.00  0.00    -0.097 S 
ENDBRANCH  21  22
ENDBRANCH  17  20
ENDBRANCH   5  16
BRANCH   1  27
ATOM     27  C   UNL     1       1.496  -2.064  -0.041  0.00  0.00    +0.342 C 
ATOM     28  O   UNL     1       1.559  -2.655  -1.102  0.00  0.00    -0.245 OA
BRANCH  27  29
ATOM     29  O   UNL     1       1.593  -2.748   1.118  0.00  0.00    -0.461 OA
BRANCH  29  31
ATOM     30  C   UNL     1       1.860  -4.783   2.428  0.00  0.00    +0.048 C 
ATOM     31  C   UNL     1       1.771  -4.186   1.022  0.00  0.00    +0.229 C 
ENDBRANCH  29  31
ENDBRANCH  27  29
ENDBRANCH   1  27
TORSDOF 6
