REMARK  Name = ZINC58868019
REMARK  9 active torsions:
REMARK  status: ('A' for Active; 'I' for Inactive)
REMARK    1  A    between atoms: C_1  and  C_2
REMARK    2  A    between atoms: C_4  and  C_8
REMARK    3  A    between atoms: C_5  and  C_7
REMARK    4  A    between atoms: N_10  and  C_11
REMARK    5  A    between atoms: C_11  and  C_12
REMARK    6  A    between atoms: N_14  and  N_15
REMARK    7  A    between atoms: N_15  and  C_16
REMARK    8  A    between atoms: C_16  and  N_18
REMARK    9  A    between atoms: N_18  and  C_19
REMARK                            x       y       z     vdW  Elec       q    Type
REMARK                         _______ _______ _______ _____ _____    ______ ____
ROOT
ATOM      1  C   UNL     1      -4.928  -4.291  -0.058  0.00  0.00    +0.246 C 
ATOM      2  O   UNL     1      -5.243  -3.143   0.171  0.00  0.00    -0.273 OA
ATOM      3  N   UNL     1      -5.862  -5.263  -0.044  0.00  0.00    -0.234 N 
ATOM      4  H   UNL     1      -5.609  -6.181  -0.227  0.00  0.00    +0.173 HD
ENDROOT
BRANCH   3   5
ATOM      5  N   UNL     1      -7.197  -4.946   0.237  0.00  0.00    -0.246 N 
ATOM      6  H   UNL     1      -7.450  -4.028   0.421  0.00  0.00    +0.172 HD
BRANCH   5   7
ATOM      7  C   UNL     1      -8.131  -5.918   0.252  0.00  0.00    +0.151 C 
ATOM      8  S   UNL     1      -9.763  -5.531   0.595  0.00  0.00    -0.017 S 
BRANCH   7   9
ATOM      9  N   UNL     1      -7.780  -7.194  -0.003  0.00  0.00    -0.294 N 
ATOM     10  H   UNL     1      -6.868  -7.404  -0.259  0.00  0.00    +0.154 HD
BRANCH   9  11
ATOM     11  C   UNL     1      -8.732  -8.217   0.101  0.00  0.00    +0.068 A 
ATOM     12  C   UNL     1      -9.982  -8.065  -0.483  0.00  0.00    +0.029 A 
ATOM     13  C   UNL     1     -10.919  -9.075  -0.380  0.00  0.00    +0.040 A 
ATOM     14  C   UNL     1     -10.614 -10.238   0.306  0.00  0.00    +0.126 A 
ATOM     15  C   UNL     1      -9.368 -10.393   0.891  0.00  0.00    +0.078 A 
ATOM     16  C   UNL     1      -8.425  -9.387   0.785  0.00  0.00    +0.147 A 
ATOM     17  F   UNL     1      -7.207  -9.540   1.351  0.00  0.00    -0.203 F 
ATOM     18  F   UNL     1     -11.533 -11.223   0.407  0.00  0.00    -0.205 F 
ENDBRANCH   9  11
ENDBRANCH   7   9
ENDBRANCH   5   7
ENDBRANCH   3   5
BRANCH   1  19
ATOM     19  C   UNL     1      -3.491  -4.631  -0.360  0.00  0.00    +0.202 C 
BRANCH  19  22
ATOM     20  C   UNL     1      -1.356  -3.474  -0.556  0.00  0.00    +0.248 C 
ATOM     21  O   UNL     1      -0.833  -4.542  -0.809  0.00  0.00    -0.270 OA
ATOM     22  N   UNL     1      -2.680  -3.412  -0.316  0.00  0.00    -0.303 N 
ATOM     23  H   UNL     1      -3.097  -2.559  -0.114  0.00  0.00    +0.150 HD
BRANCH  20  27
ATOM     24  C   UNL     1       0.106   1.390  -0.070  0.00  0.00    +0.086 C 
ATOM     25  C   UNL     1       0.084  -0.100  -0.293  0.00  0.00    +0.103 A 
ATOM     26  C   UNL     1      -1.004  -0.882  -0.222  0.00  0.00    +0.057 A 
ATOM     27  C   UNL     1      -0.540  -2.247  -0.511  0.00  0.00    +0.077 A 
ATOM     28  C   UNL     1       0.802  -2.140  -0.729  0.00  0.00    +0.114 A 
ATOM     29  O   UNL     1       1.150  -0.857  -0.599  0.00  0.00    -0.464 OA
ATOM     30  C   UNL     1       1.734  -3.277  -1.065  0.00  0.00    +0.087 C 
ENDBRANCH  20  27
ENDBRANCH  19  22
ENDBRANCH   1  19
TORSDOF 7
