REMARK  Name = ZINC16031590
REMARK  7 active torsions:
REMARK  status: ('A' for Active; 'I' for Inactive)
REMARK    1  A    between atoms: C_1  and  O_2
REMARK    2  A    between atoms: O_2  and  C_3
REMARK    3  A    between atoms: C_6  and  O_41
REMARK    4  A    between atoms: C_7  and  C_9
REMARK    5  A    between atoms: N_28  and  C_31
REMARK    6  A    between atoms: C_31  and  C_32
REMARK    7  A    between atoms: O_41  and  C_42
REMARK                            x       y       z     vdW  Elec       q    Type
REMARK                         _______ _______ _______ _____ _____    ______ ____
ROOT
ATOM      1  C   UNL     1       1.755  -1.890  -0.020  0.00  0.00    +0.158 C 
ATOM      2  C   UNL     1       1.746  -0.415  -0.352  0.00  0.00    +0.046 A 
ATOM      3  C   UNL     1       2.853   0.359  -0.336  0.00  0.00    -0.015 A 
ATOM      4  C   UNL     1       2.438   1.698  -0.701  0.00  0.00    +0.003 A 
ATOM      5  C   UNL     1       3.138   2.900  -0.847  0.00  0.00    +0.010 A 
ATOM      6  C   UNL     1       2.407   4.003  -1.214  0.00  0.00    +0.001 A 
ATOM      7  C   UNL     1       1.040   3.940  -1.433  0.00  0.00    +0.002 A 
ATOM      8  C   UNL     1       0.324   2.763  -1.300  0.00  0.00    +0.026 A 
ATOM      9  C   UNL     1       1.039   1.629  -0.923  0.00  0.00    +0.047 A 
ATOM     10  N   UNL     1       0.657   0.337  -0.703  0.00  0.00    -0.356 N 
ATOM     11  H   UNL     1      -0.250   0.002  -0.782  0.00  0.00    +0.166 HD
ATOM     12  C   UNL     1       4.238  -0.131   0.003  0.00  0.00    +0.069 C 
ATOM     13  C   UNL     1       4.123  -1.478   0.731  0.00  0.00    +0.167 C 
ATOM     14  N   UNL     1       3.167  -2.326   0.021  0.00  0.00    -0.276 N 
ATOM     15  C   UNL     1       3.510  -3.467  -0.581  0.00  0.00    +0.234 C 
ATOM     16  O   UNL     1       2.652  -4.060  -1.200  0.00  0.00    -0.274 OA
ATOM     17  C   UNL     1       4.879  -4.064  -0.542  0.00  0.00    +0.204 C 
ATOM     18  N   UNL     1       5.799  -3.269   0.254  0.00  0.00    -0.287 N 
ATOM     19  C   UNL     1       5.473  -2.113   0.829  0.00  0.00    +0.237 C 
ATOM     20  O   UNL     1       6.324  -1.539   1.473  0.00  0.00    -0.274 OA
ENDROOT
BRANCH   1  25
ATOM     21  C   UNL     1       0.344  -2.926  -3.369  0.00  0.00    +0.121 A 
ATOM     22  C   UNL     1      -0.358  -4.074  -3.032  0.00  0.00    +0.049 A 
ATOM     23  C   UNL     1      -0.376  -4.513  -1.722  0.00  0.00    +0.049 A 
ATOM     24  C   UNL     1       0.309  -3.806  -0.745  0.00  0.00    +0.126 A 
ATOM     25  C   UNL     1       1.011  -2.659  -1.082  0.00  0.00    +0.024 A 
ATOM     26  C   UNL     1       1.025  -2.217  -2.391  0.00  0.00    +0.055 A 
BRANCH  21  28
ATOM     27  C   UNL     1      -0.365  -3.271  -5.613  0.00  0.00    +0.277 C 
ATOM     28  O   UNL     1       0.362  -2.494  -4.659  0.00  0.00    -0.495 OA
ENDBRANCH  21  28
BRANCH  24  29
ATOM     29  O   UNL     1       0.291  -4.238   0.544  0.00  0.00    -0.495 OA
ATOM     30  C   UNL     1      -0.453  -5.426   0.820  0.00  0.00    +0.277 C 
ENDBRANCH  24  29
ENDBRANCH   1  25
BRANCH  18  31
ATOM     31  C   UNL     1       7.164  -3.768   0.434  0.00  0.00    +0.143 C 
BRANCH  31  32
ATOM     32  C   UNL     1       7.224  -4.635   1.665  0.00  0.00    -0.026 A 
ATOM     33  C   UNL     1       6.987  -5.994   1.564  0.00  0.00    +0.009 A 
ATOM     34  C   UNL     1       7.041  -6.794   2.690  0.00  0.00    +0.050 A 
ATOM     35  C   UNL     1       7.332  -6.235   3.924  0.00  0.00    +0.166 A 
ATOM     36  C   UNL     1       7.570  -4.867   4.026  0.00  0.00    +0.167 A 
ATOM     37  C   UNL     1       7.520  -4.072   2.893  0.00  0.00    +0.054 A 
ATOM     38  O   UNL     1       7.831  -4.566   5.332  0.00  0.00    -0.453 OA
ATOM     39  C   UNL     1       7.349  -5.691   6.090  0.00  0.00    +0.466 C 
ATOM     40  O   UNL     1       7.444  -6.791   5.166  0.00  0.00    -0.453 OA
ENDBRANCH  31  32
ENDBRANCH  18  31
TORSDOF 5
