REMARK  Name = ZINC38903288
REMARK  4 active torsions:
REMARK  status: ('A' for Active; 'I' for Inactive)
REMARK    1  A    between atoms: C_1  and  C_2
REMARK    2  A    between atoms: C_5  and  C_8
REMARK    3  A    between atoms: N_14  and  N_15
REMARK    4  A    between atoms: C_16  and  C_17
REMARK                            x       y       z     vdW  Elec       q    Type
REMARK                         _______ _______ _______ _____ _____    ______ ____
ROOT
ATOM      1  C   UNL     1       0.174  -4.471  -0.019  0.00  0.00    +0.264 C 
ATOM      2  N   UNL     1      -0.637  -4.901  -1.169  0.00  0.00    -0.189 NA
ATOM      3  N   UNL     1      -1.690  -5.378  -0.738  0.00  0.00    -0.219 N 
ATOM      4  C   UNL     1      -1.776  -5.361   0.619  0.00  0.00    +0.174 C 
ATOM      5  S   UNL     1      -3.104  -5.948   1.526  0.00  0.00    -0.015 S 
ATOM      6  N   UNL     1      -0.656  -4.814   1.151  0.00  0.00    -0.172 N 
ATOM      7  H   UNL     1      -2.389  -5.731  -1.311  0.00  0.00    +0.176 HD
ENDROOT
BRANCH   1  12
ATOM      8  C   UNL     1       1.127   1.225  -0.228  0.00  0.00    +0.044 C 
ATOM      9  C   UNL     1       0.878  -0.260  -0.173  0.00  0.00    -0.050 A 
ATOM     10  C   UNL     1       0.789  -0.990  -1.344  0.00  0.00    +0.004 A 
ATOM     11  C   UNL     1       0.561  -2.352  -1.294  0.00  0.00    +0.008 A 
ATOM     12  C   UNL     1       0.423  -2.986  -0.073  0.00  0.00    -0.002 A 
ATOM     13  C   UNL     1       0.514  -2.257   1.098  0.00  0.00    +0.008 A 
ATOM     14  C   UNL     1       0.746  -0.895   1.048  0.00  0.00    +0.004 A 
ENDBRANCH   1  12
BRANCH   6  15
ATOM     15  N   UNL     1      -0.353  -4.617   2.504  0.00  0.00    -0.183 NA
ATOM     16  C   UNL     1      -1.148  -5.079   3.421  0.00  0.00    +0.138 C 
BRANCH  16  17
ATOM     17  C   UNL     1      -0.886  -4.783   4.842  0.00  0.00    -0.005 A 
ATOM     18  C   UNL     1       0.213  -4.001   5.204  0.00  0.00    +0.009 A 
ATOM     19  C   UNL     1       0.452  -3.728   6.535  0.00  0.00    +0.001 A 
ATOM     20  C   UNL     1      -0.394  -4.228   7.510  0.00  0.00    +0.000 A 
ATOM     21  C   UNL     1      -1.484  -5.004   7.158  0.00  0.00    +0.001 A 
ATOM     22  C   UNL     1      -1.739  -5.279   5.831  0.00  0.00    +0.009 A 
ENDBRANCH  16  17
ENDBRANCH   6  15
TORSDOF 3
