REMARK  Name = ZINC22874288
REMARK  11 active torsions:
REMARK  status: ('A' for Active; 'I' for Inactive)
REMARK    1  A    between atoms: C_1  and  C_2
REMARK    2  A    between atoms: C_2  and  C_3
REMARK    3  A    between atoms: C_5  and  C_19
REMARK    4  A    between atoms: C_6  and  O_18
REMARK    5  A    between atoms: C_7  and  C_10
REMARK    6  A    between atoms: C_8  and  O_9
REMARK    7  A    between atoms: C_10  and  N_11
REMARK    8  A    between atoms: N_14  and  C_17
REMARK    9  A    between atoms: C_20  and  C_26
REMARK   10  A    between atoms: C_21  and  C_25
REMARK   11  A    between atoms: N_34  and  C_35
REMARK                            x       y       z     vdW  Elec       q    Type
REMARK                         _______ _______ _______ _____ _____    ______ ____
ROOT
ATOM      1  C   UNL     1       0.662  -0.465  -1.222  0.00  0.00    -0.005 A 
ATOM      2  C   UNL     1      -0.056  -0.801  -2.349  0.00  0.00    +0.021 A 
ATOM      3  C   UNL     1       0.610  -1.247  -3.493  0.00  0.00    +0.043 A 
ATOM      4  C   UNL     1       2.008  -1.351  -3.488  0.00  0.00    +0.134 A 
ATOM      5  C   UNL     1       2.718  -1.011  -2.350  0.00  0.00    +0.050 A 
ATOM      6  C   UNL     1       2.048  -0.564  -1.220  0.00  0.00    +0.128 A 
ENDROOT
BRANCH   3   7
ATOM      7  C   UNL     1      -0.155  -1.608  -4.702  0.00  0.00    +0.080 A 
ATOM      8  C   UNL     1      -0.259  -2.876  -5.269  0.00  0.00    +0.065 A 
ATOM      9  C   UNL     1      -1.085  -2.756  -6.405  0.00  0.00    +0.071 A 
ATOM     10  N   UNL     1      -1.456  -1.510  -6.518  0.00  0.00    -0.178 NA
ATOM     11  N   UNL     1      -0.899  -0.767  -5.471  0.00  0.00    -0.276 N 
ATOM     12  H   UNL     1      -1.021   0.183  -5.320  0.00  0.00    +0.189 HD
ATOM     13  C   UNL     1      -1.475  -3.878  -7.333  0.00  0.00    +0.068 C 
BRANCH   8  14
ATOM     14  C   UNL     1       0.377  -4.111  -4.776  0.00  0.00    +0.145 A 
ATOM     15  N   UNL     1       1.648  -4.237  -4.472  0.00  0.00    -0.227 NA
ATOM     16  C   UNL     1       1.893  -5.503  -4.052  0.00  0.00    +0.090 A 
ATOM     17  C   UNL     1       3.046  -6.164  -3.617  0.00  0.00    +0.030 A 
ATOM     18  C   UNL     1       2.977  -7.487  -3.246  0.00  0.00    +0.002 A 
ATOM     19  C   UNL     1       1.771  -8.172  -3.300  0.00  0.00    +0.002 A 
ATOM     20  C   UNL     1       0.624  -7.536  -3.726  0.00  0.00    +0.028 A 
ATOM     21  C   UNL     1       0.674  -6.202  -4.104  0.00  0.00    +0.069 A 
ATOM     22  N   UNL     1      -0.270  -5.299  -4.559  0.00  0.00    -0.327 N 
ATOM     23  C   UNL     1      -1.695  -5.564  -4.772  0.00  0.00    +0.151 C 
ENDBRANCH   8  14
ENDBRANCH   3   7
BRANCH   1  25
ATOM     24  C   UNL     1      -0.095   1.546   0.016  0.00  0.00    +0.009 C 
ATOM     25  C   UNL     1      -0.058   0.017   0.011  0.00  0.00    +0.035 C 
ENDBRANCH   1  25
BRANCH   6  26
ATOM     26  O   UNL     1       2.749  -0.226  -0.107  0.00  0.00    -0.506 OA
ATOM     27  H   UNL     1       2.893  -0.960   0.505  0.00  0.00    +0.292 HD
ENDBRANCH   6  26
BRANCH   4  28
ATOM     28  O   UNL     1       2.663  -1.785  -4.596  0.00  0.00    -0.506 OA
ATOM     29  H   UNL     1       2.915  -1.078  -5.205  0.00  0.00    +0.292 HD
ENDBRANCH   4  28
BRANCH   5  30
ATOM     30  C   UNL     1       4.221  -1.121  -2.340  0.00  0.00    +0.126 C 
BRANCH  30  31
ATOM     31  N   UNL     1       4.808   0.148  -2.788  0.00  0.00    -0.301 NA
ATOM     32  C   UNL     1       4.491   0.405  -4.200  0.00  0.00    +0.066 C 
ATOM     33  C   UNL     1       5.069   1.762  -4.611  0.00  0.00    -0.064 C 
ATOM     34  N   UNL     1       6.524   1.755  -4.411  0.00  0.00    +0.379 N 
ATOM     35  C   UNL     1       6.824   1.522  -2.992  0.00  0.00    -0.064 C 
ATOM     36  C   UNL     1       6.261   0.163  -2.568  0.00  0.00    +0.066 C 
ATOM     37  C   UNL     1       7.080   3.051  -4.822  0.00  0.00    -0.096 C 
ATOM     38  H   UNL     1       6.936   1.021  -4.967  0.00  0.00    -0.082 HD
ENDBRANCH  30  31
ENDBRANCH   5  30
TORSDOF 7
