REMARK  Name = ZINC16995722
REMARK  3 active torsions:
REMARK  status: ('A' for Active; 'I' for Inactive)
REMARK    1  A    between atoms: C_1  and  C_2
REMARK    2  A    between atoms: C_5  and  C_8
REMARK    3  A    between atoms: C_13  and  C_25
REMARK                            x       y       z     vdW  Elec       q    Type
REMARK                         _______ _______ _______ _____ _____    ______ ____
ROOT
ATOM      1  C   UNL     1      -0.013   1.086   0.008  0.00  0.00    +0.097 C 
ATOM      2  C   UNL     1      -0.840   1.531   1.152  0.00  0.00    +0.117 C 
ATOM      3  C   UNL     1      -2.151   1.743   0.883  0.00  0.00    +0.143 C 
ATOM      4  C   UNL     1      -3.129   2.220   1.913  0.00  0.00    +0.078 C 
ATOM      5  C   UNL     1      -2.376   3.079   2.935  0.00  0.00    -0.002 C 
ATOM      6  C   UNL     1      -1.274   2.217   3.545  0.00  0.00    +0.055 C 
ATOM      7  C   UNL     1      -0.326   1.731   2.452  0.00  0.00    +0.031 C 
ATOM      8  N   UNL     1       0.868   1.533   2.848  0.00  0.00    -0.255 NA
ATOM      9  C   UNL     1       1.955   0.827   2.566  0.00  0.00    +0.077 A 
ATOM     10  C   UNL     1       2.614   0.110   3.576  0.00  0.00    +0.029 A 
ATOM     11  C   UNL     1       3.716  -0.661   3.289  0.00  0.00    +0.002 A 
ATOM     12  C   UNL     1       4.203  -0.747   1.996  0.00  0.00    +0.001 A 
ATOM     13  C   UNL     1       3.582  -0.042   0.981  0.00  0.00    +0.017 A 
ATOM     14  C   UNL     1       2.480   0.742   1.252  0.00  0.00    +0.034 A 
ATOM     15  S   UNL     1       1.681   1.668  -0.005  0.00  0.00    -0.114 S 
ATOM     16  C   UNL     1      -3.337   3.544   4.031  0.00  0.00    +0.008 C 
ATOM     17  O   UNL     1      -2.596   1.516  -0.371  0.00  0.00    -0.297 OA
ENDROOT
BRANCH   1  22
ATOM     18  C   UNL     1      -2.572   2.872  -4.855  0.00  0.00    +0.044 C 
ATOM     19  C   UNL     1      -1.906   2.406  -3.587  0.00  0.00    -0.050 A 
ATOM     20  C   UNL     1      -1.755   1.054  -3.341  0.00  0.00    +0.003 A 
ATOM     21  C   UNL     1      -1.143   0.627  -2.178  0.00  0.00    +0.005 A 
ATOM     22  C   UNL     1      -0.680   1.552  -1.260  0.00  0.00    -0.033 A 
ATOM     23  C   UNL     1      -0.836   2.904  -1.503  0.00  0.00    +0.005 A 
ATOM     24  C   UNL     1      -1.444   3.331  -2.669  0.00  0.00    +0.003 A 
ENDBRANCH   1  22
TORSDOF 1
