REMARK  Name = ZINC59228516
REMARK  7 active torsions:
REMARK  status: ('A' for Active; 'I' for Inactive)
REMARK    1  A    between atoms: C_1  and  O_2
REMARK    2  A    between atoms: O_2  and  C_3
REMARK    3  A    between atoms: C_8  and  O_9
REMARK    4  A    between atoms: O_9  and  C_10
REMARK    5  A    between atoms: N_15  and  N_18
REMARK    6  A    between atoms: C_19  and  C_20
REMARK    7  A    between atoms: C_23  and  C_26
REMARK                            x       y       z     vdW  Elec       q    Type
REMARK                         _______ _______ _______ _____ _____    ______ ____
ROOT
ATOM      1  C   UNL     1      -1.205  -0.637   0.265  0.00  0.00    +0.162 A 
ATOM      2  C   UNL     1      -2.373   0.099   0.281  0.00  0.00    +0.064 A 
ATOM      3  C   UNL     1      -3.599  -0.555   0.159  0.00  0.00    +0.068 A 
ATOM      4  C   UNL     1      -3.643  -1.955   0.021  0.00  0.00    +0.057 A 
ATOM      5  C   UNL     1      -2.465  -2.682   0.006  0.00  0.00    +0.075 A 
ATOM      6  C   UNL     1      -1.250  -2.025   0.122  0.00  0.00    +0.163 A 
ATOM      7  N   UNL     1      -4.880  -2.576  -0.099  0.00  0.00    -0.333 N 
ATOM      8  H   UNL     1      -4.926  -3.540  -0.195  0.00  0.00    +0.168 HD
ATOM      9  C   UNL     1      -6.013  -1.852  -0.082  0.00  0.00    +0.183 A 
ATOM     10  S   UNL     1      -7.509  -2.670  -0.233  0.00  0.00    -0.011 S 
ATOM     11  N   UNL     1      -6.020  -0.516   0.047  0.00  0.00    -0.173 N 
ATOM     12  C   UNL     1      -4.872   0.183   0.169  0.00  0.00    +0.283 A 
ATOM     13  O   UNL     1      -4.889   1.394   0.286  0.00  0.00    -0.265 OA
ENDROOT
BRANCH   1  15
ATOM     14  C   UNL     1      -0.031   1.415   0.526  0.00  0.00    +0.277 C 
ATOM     15  O   UNL     1      -0.005  -0.006   0.383  0.00  0.00    -0.491 OA
ENDBRANCH   1  15
BRANCH   6  16
ATOM     16  O   UNL     1      -0.094  -2.739   0.102  0.00  0.00    -0.491 OA
ATOM     17  C   UNL     1      -0.209  -4.155  -0.047  0.00  0.00    +0.277 C 
ENDBRANCH   6  16
BRANCH  11  18
ATOM     18  N   UNL     1      -7.244   0.166   0.055  0.00  0.00    -0.169 NA
ATOM     19  C   UNL     1      -7.543   0.975  -0.915  0.00  0.00    +0.141 C 
BRANCH  19  20
ATOM     20  C   UNL     1      -8.776   1.778  -0.852  0.00  0.00    -0.005 A 
ATOM     21  C   UNL     1      -9.623   1.673   0.257  0.00  0.00    +0.010 A 
ATOM     22  C   UNL     1     -10.766   2.417   0.316  0.00  0.00    +0.016 A 
ATOM     23  C   UNL     1     -11.091   3.285  -0.732  0.00  0.00    +0.063 A 
ATOM     24  C   UNL     1     -10.244   3.390  -1.841  0.00  0.00    +0.016 A 
ATOM     25  C   UNL     1      -9.098   2.650  -1.897  0.00  0.00    +0.010 A 
BRANCH  23  26
ATOM     26  C   UNL     1     -12.325   4.088  -0.669  0.00  0.00    +0.387 C 
ATOM     27  O   UNL     1     -13.066   3.995   0.300  0.00  0.00    -0.241 OA
ATOM     28  O   UNL     1     -12.608   4.847  -1.586  0.00  0.00    -0.241 OA
ENDBRANCH  23  26
ENDBRANCH  19  20
ENDBRANCH  11  18
TORSDOF 5
