REMARK  Name = ZINC66487624
REMARK  7 active torsions:
REMARK  status: ('A' for Active; 'I' for Inactive)
REMARK    1  A    between atoms: C_1  and  C_2
REMARK    2  A    between atoms: C_9  and  C_11
REMARK    3  A    between atoms: C_11  and  C_12
REMARK    4  A    between atoms: N_14  and  C_15
REMARK    5  A    between atoms: C_19  and  N_21
REMARK    6  A    between atoms: C_22  and  O_24
REMARK    7  A    between atoms: O_24  and  C_25
REMARK                            x       y       z     vdW  Elec       q    Type
REMARK                         _______ _______ _______ _____ _____    ______ ____
ROOT
ATOM      1  C   UNL     1      -1.320  -1.548   5.315  0.00  0.00    +0.223 C 
ATOM      2  O   UNL     1      -2.242  -1.644   4.533  0.00  0.00    -0.275 OA
ATOM      3  N   UNL     1      -1.558  -1.558   6.642  0.00  0.00    -0.285 N 
ATOM      4  H   UNL     1      -0.817  -1.548   7.268  0.00  0.00    +0.155 HD
ENDROOT
BRANCH   3   5
ATOM      5  C   UNL     1      -2.876  -1.581   7.116  0.00  0.00    +0.035 A 
ATOM      6  C   UNL     1      -3.850  -2.291   6.426  0.00  0.00    +0.026 A 
ATOM      7  C   UNL     1      -5.150  -2.316   6.893  0.00  0.00    +0.042 A 
ATOM      8  C   UNL     1      -5.485  -1.634   8.049  0.00  0.00    +0.145 A 
ATOM      9  C   UNL     1      -4.514  -0.922   8.743  0.00  0.00    +0.073 A 
ATOM     10  C   UNL     1      -3.207  -0.901   8.279  0.00  0.00    +0.049 A 
ATOM     11  F   UNL     1      -6.758  -1.659   8.503  0.00  0.00    -0.204 F 
BRANCH   9  12
ATOM     12  N   UNL     1      -4.853  -0.231   9.914  0.00  0.00    -0.248 N 
ATOM     13  C   UNL     1      -4.243   0.934  10.209  0.00  0.00    +0.404 C 
ATOM     14  O   UNL     1      -3.341   1.344   9.505  0.00  0.00    -0.226 OA
ATOM     15  H   UNL     1      -5.527  -0.590  10.511  0.00  0.00    +0.158 HD
BRANCH  13  16
ATOM     16  O   UNL     1      -4.633   1.645  11.285  0.00  0.00    -0.453 OA
ATOM     17  C   UNL     1      -3.942   2.870  11.538  0.00  0.00    +0.282 C 
ENDBRANCH  13  16
ENDBRANCH   9  12
ENDBRANCH   3   5
BRANCH   1  18
ATOM     18  C   UNL     1       0.092  -1.419   4.804  0.00  0.00    +0.150 C 
BRANCH  18  27
ATOM     19  C   UNL     1       0.045   1.473   0.032  0.00  0.00    +0.047 C 
ATOM     20  C   UNL     1       0.057  -0.034   0.026  0.00  0.00    -0.010 A 
ATOM     21  C   UNL     1       0.062  -0.717  -1.150  0.00  0.00    +0.008 A 
ATOM     22  C   UNL     1       0.073  -2.122  -1.139  0.00  0.00    +0.018 A 
ATOM     23  C   UNL     1       0.078  -2.793   0.032  0.00  0.00    +0.092 A 
ATOM     24  N   UNL     1       0.073  -2.121   1.219  0.00  0.00    -0.308 N 
ATOM     25  C   UNL     1       0.069  -0.750   1.240  0.00  0.00    +0.118 A 
ATOM     26  N   UNL     1       0.072  -0.359   2.507  0.00  0.00    -0.343 N 
ATOM     27  C   UNL     1       0.084  -1.435   3.297  0.00  0.00    +0.043 A 
ATOM     28  C   UNL     1       0.076  -2.541   2.521  0.00  0.00    +0.114 A 
ATOM     29  H   UNL     1       0.067   0.562   2.811  0.00  0.00    +0.167 HD
ENDBRANCH  18  27
ENDBRANCH   1  18
TORSDOF 5
