REMARK  Name = ZINC22016799
REMARK  7 active torsions:
REMARK  status: ('A' for Active; 'I' for Inactive)
REMARK    1  A    between atoms: C_1  and  C_2
REMARK    2  A    between atoms: C_5  and  N_9
REMARK    3  A    between atoms: N_9  and  C_10
REMARK    4  A    between atoms: C_10  and  C_12
REMARK    5  A    between atoms: C_10  and  C_13
REMARK    6  A    between atoms: N_15  and  C_16
REMARK    7  A    between atoms: C_20  and  N_22
REMARK                            x       y       z     vdW  Elec       q    Type
REMARK                         _______ _______ _______ _____ _____    ______ ____
ROOT
ATOM      1  C   UNL     1      -4.809   3.929  -0.533  0.00  0.00    +0.237 C 
ATOM      2  O   UNL     1      -4.563   5.054  -0.912  0.00  0.00    -0.273 OA
ATOM      3  N   UNL     1      -6.063   3.445  -0.629  0.00  0.00    -0.284 N 
ATOM      4  H   UNL     1      -6.271   2.399  -0.357  0.00  0.00    +0.155 HD
ENDROOT
BRANCH   3   5
ATOM      5  C   UNL     1      -7.100   4.271  -1.076  0.00  0.00    +0.036 A 
ATOM      6  C   UNL     1      -6.854   5.232  -2.049  0.00  0.00    +0.023 A 
ATOM      7  C   UNL     1      -7.880   6.046  -2.488  0.00  0.00    +0.004 A 
ATOM      8  C   UNL     1      -9.150   5.905  -1.960  0.00  0.00    +0.033 A 
ATOM      9  C   UNL     1      -9.398   4.950  -0.991  0.00  0.00    +0.128 A 
ATOM     10  C   UNL     1      -8.378   4.130  -0.551  0.00  0.00    +0.056 A 
BRANCH   9  11
ATOM     11  N   UNL     1     -10.759   4.804  -0.429  0.00  0.00    +0.056 N 
ATOM     12  O   UNL     1     -11.661   5.524  -0.819  0.00  0.00    -0.126 OA
ATOM     13  O   UNL     1     -10.978   3.962   0.425  0.00  0.00    -0.126 OA
ENDBRANCH   9  11
ENDBRANCH   3   5
BRANCH   1  14
ATOM     14  C   UNL     1      -3.713   3.072   0.046  0.00  0.00    +0.154 C 
ATOM     15  C   UNL     1      -4.072   2.686   1.482  0.00  0.00    +0.038 C 
BRANCH  14  16
ATOM     16  N   UNL     1      -2.454   3.821   0.041  0.00  0.00    -0.333 N 
ATOM     17  H   UNL     1      -2.468   4.920   0.054  0.00  0.00    +0.147 HD
BRANCH  16  22
ATOM     18  C   UNL     1       2.493   1.048  -0.045  0.00  0.00    +0.045 C 
ATOM     19  C   UNL     1       1.179   1.785  -0.022  0.00  0.00    -0.037 A 
ATOM     20  C   UNL     1      -0.009   1.077  -0.017  0.00  0.00    +0.006 A 
ATOM     21  C   UNL     1      -1.216   1.749  -0.002  0.00  0.00    +0.023 A 
ATOM     22  C   UNL     1      -1.235   3.138   0.020  0.00  0.00    +0.029 A 
ATOM     23  C   UNL     1      -0.041   3.847   0.016  0.00  0.00    +0.037 A 
ATOM     24  C   UNL     1       1.163   3.168  -0.005  0.00  0.00    +0.018 A 
ATOM     25  I   UNL     1       2.966   4.235  -0.011  0.00  0.00    -0.043 I 
ENDBRANCH  16  22
ENDBRANCH  14  16
ENDBRANCH   1  14
TORSDOF 5
