REMARK  Name = ZINC66801992
REMARK  10 active torsions:
REMARK  status: ('A' for Active; 'I' for Inactive)
REMARK    1  A    between atoms: C_1  and  C_2
REMARK    2  A    between atoms: C_6  and  N_8
REMARK    3  A    between atoms: C_9  and  C_29
REMARK    4  A    between atoms: C_10  and  C_13
REMARK    5  A    between atoms: N_15  and  C_16
REMARK    6  A    between atoms: C_21  and  S_22
REMARK    7  A    between atoms: S_22  and  C_23
REMARK    8  A    between atoms: C_23  and  C_25
REMARK    9  A    between atoms: C_23  and  C_26
REMARK   10  A    between atoms: C_26  and  C_27
REMARK                            x       y       z     vdW  Elec       q    Type
REMARK                         _______ _______ _______ _____ _____    ______ ____
ROOT
ATOM      1  C   UNL     1      -0.905  -5.497   4.588  0.00  0.00    +0.252 C 
ATOM      2  O   UNL     1      -1.695  -6.203   3.991  0.00  0.00    -0.270 OA
ATOM      3  N   UNL     1      -0.604  -5.761   5.875  0.00  0.00    -0.280 N 
ATOM      4  H   UNL     1       0.069  -5.235   6.334  0.00  0.00    +0.155 HD
ENDROOT
BRANCH   1   7
ATOM      5  N   UNL     1       0.277  -2.878   2.373  0.00  0.00    -0.236 N 
ATOM      6  C   UNL     1      -0.487  -3.963   2.596  0.00  0.00    +0.054 A 
ATOM      7  C   UNL     1      -0.276  -4.353   3.904  0.00  0.00    +0.078 A 
ATOM      8  C   UNL     1       0.654  -3.449   4.465  0.00  0.00    +0.148 A 
ATOM      9  N   UNL     1       0.980  -2.582   3.546  0.00  0.00    -0.174 NA
ATOM     10  C   UNL     1      -1.403  -4.630   1.603  0.00  0.00    +0.066 C 
BRANCH   5  16
ATOM     11  C   UNL     1       0.802   1.400   0.004  0.00  0.00    +0.044 C 
ATOM     12  C   UNL     1       0.613  -0.095  -0.010  0.00  0.00    -0.048 A 
ATOM     13  C   UNL     1       0.519  -0.768  -1.214  0.00  0.00    +0.003 A 
ATOM     14  C   UNL     1       0.345  -2.140  -1.231  0.00  0.00    +0.002 A 
ATOM     15  C   UNL     1       0.265  -2.842  -0.044  0.00  0.00    +0.028 A 
ATOM     16  C   UNL     1       0.359  -2.169   1.167  0.00  0.00    +0.066 A 
ATOM     17  C   UNL     1       0.539  -0.792   1.180  0.00  0.00    +0.031 A 
ENDBRANCH   5  16
ENDBRANCH   1   7
BRANCH   3  18
ATOM     18  C   UNL     1      -1.264  -6.796   6.551  0.00  0.00    +0.047 A 
ATOM     19  C   UNL     1      -1.673  -7.927   5.861  0.00  0.00    +0.024 A 
ATOM     20  C   UNL     1      -2.325  -8.947   6.529  0.00  0.00    +0.002 A 
ATOM     21  C   UNL     1      -2.571  -8.843   7.886  0.00  0.00    +0.001 A 
ATOM     22  C   UNL     1      -2.167  -7.720   8.583  0.00  0.00    +0.016 A 
ATOM     23  C   UNL     1      -1.507  -6.694   7.921  0.00  0.00    +0.029 A 
BRANCH  23  24
ATOM     24  S   UNL     1      -0.984  -5.263   8.807  0.00  0.00    -0.119 S 
BRANCH  24  25
ATOM     25  C   UNL     1      -1.373  -5.652  10.536  0.00  0.00    +0.062 C 
ATOM     26  C   UNL     1      -0.454  -6.773  11.025  0.00  0.00    +0.020 C 
BRANCH  25  27
ATOM     27  C   UNL     1      -1.161  -4.406  11.398  0.00  0.00    +0.132 C 
BRANCH  27  28
ATOM     28  C   UNL     1      -2.128  -3.368  11.006  0.00  0.00    +0.064 C 
ATOM     29  N   UNL     1      -2.874  -2.566  10.703  0.00  0.00    -0.197 NA
ENDBRANCH  27  28
ENDBRANCH  25  27
ENDBRANCH  24  25
ENDBRANCH  23  24
ENDBRANCH   3  18
TORSDOF 7
