REMARK  Name = ZINC24102197
REMARK  5 active torsions:
REMARK  status: ('A' for Active; 'I' for Inactive)
REMARK    1  A    between atoms: C_1  and  O_2
REMARK    2  A    between atoms: O_2  and  C_3
REMARK    3  A    between atoms: C_6  and  S_10
REMARK    4  A    between atoms: S_10  and  N_13
REMARK    5  A    between atoms: N_13  and  C_14
REMARK                            x       y       z     vdW  Elec       q    Type
REMARK                         _______ _______ _______ _____ _____    ______ ____
ROOT
ATOM      1  N   UNL     1       0.024  -0.502   1.581  0.00  0.00    -0.216 N 
ATOM      2  H   UNL     1       0.898  -1.040   1.976  0.00  0.00    +0.174 HD
ENDROOT
BRANCH   1   3
ATOM      3  C   UNL     1      -1.070  -0.239   2.413  0.00  0.00    +0.052 A 
ATOM      4  C   UNL     1      -2.361  -0.461   1.952  0.00  0.00    +0.028 A 
ATOM      5  C   UNL     1      -3.444  -0.203   2.773  0.00  0.00    +0.051 A 
ATOM      6  C   UNL     1      -3.243   0.278   4.054  0.00  0.00    +0.167 A 
ATOM      7  C   UNL     1      -1.947   0.503   4.520  0.00  0.00    +0.169 A 
ATOM      8  C   UNL     1      -0.865   0.238   3.701  0.00  0.00    +0.074 A 
ATOM      9  O   UNL     1      -2.027   0.975   5.804  0.00  0.00    -0.447 OA
ATOM     10  C   UNL     1      -3.364   1.486   5.900  0.00  0.00    +0.254 C 
ATOM     11  O   UNL     1      -4.122   0.610   5.054  0.00  0.00    -0.448 OA
ATOM     12  C   UNL     1      -3.873   1.440   7.345  0.00  0.00    +0.093 C 
ATOM     13  C   UNL     1      -3.675   2.891   7.856  0.00  0.00    +0.008 C 
ATOM     14  C   UNL     1      -4.017   3.746   6.610  0.00  0.00    +0.008 C 
ATOM     15  C   UNL     1      -3.446   2.936   5.425  0.00  0.00    +0.093 C 
ENDBRANCH   1   3
BRANCH   1  16
ATOM     16  S   UNL     1       0.002  -0.004   0.002  0.00  0.00    +0.072 S 
ATOM     17  O   UNL     1      -1.243  -0.424  -0.539  0.00  0.00    -0.150 OA
ATOM     18  O   UNL     1       1.248  -0.390  -0.563  0.00  0.00    -0.150 OA
BRANCH  16  22
ATOM     19  C   UNL     1      -0.060   4.524   0.026  0.00  0.00    +0.134 A 
ATOM     20  C   UNL     1      -1.251   3.813   0.034  0.00  0.00    +0.048 A 
ATOM     21  C   UNL     1      -1.229   2.432   0.021  0.00  0.00    +0.032 A 
ATOM     22  C   UNL     1      -0.022   1.758   0.012  0.00  0.00    +0.110 A 
ATOM     23  C   UNL     1       1.167   2.464   0.004  0.00  0.00    +0.047 A 
ATOM     24  C   UNL     1       1.150   3.846   0.011  0.00  0.00    +0.061 A 
ATOM     25 BR   UNL     1       2.776   4.812   0.002  0.00  0.00    -0.046 Br
BRANCH  19  27
ATOM     26  C   UNL     1      -1.362   6.514   0.049  0.00  0.00    +0.277 C 
ATOM     27  O   UNL     1      -0.080   5.883   0.034  0.00  0.00    -0.494 OA
ENDBRANCH  19  27
ENDBRANCH  16  22
ENDBRANCH   1  16
TORSDOF 4
