REMARK  Name = ZINC20693751
REMARK  9 active torsions:
REMARK  status: ('A' for Active; 'I' for Inactive)
REMARK    1  A    between atoms: C_1  and  O_2
REMARK    2  A    between atoms: O_2  and  C_3
REMARK    3  A    between atoms: C_6  and  N_9
REMARK    4  A    between atoms: N_9  and  S_10
REMARK    5  A    between atoms: S_10  and  C_13
REMARK    6  A    between atoms: C_26  and  C_29
REMARK    7  A    between atoms: C_33  and  O_36
REMARK    8  A    between atoms: C_34  and  O_35
REMARK    9  A    between atoms: O_36  and  C_37
REMARK                            x       y       z     vdW  Elec       q    Type
REMARK                         _______ _______ _______ _____ _____    ______ ____
ROOT
ATOM      1  C   UNL     1      -0.488   2.952  -0.044  0.00  0.00    +0.109 A 
ATOM      2  C   UNL     1      -1.117   1.724  -0.142  0.00  0.00    +0.030 A 
ATOM      3  C   UNL     1      -0.377   0.565  -0.017  0.00  0.00    +0.025 A 
ATOM      4  C   UNL     1       0.992   0.635   0.205  0.00  0.00    +0.031 A 
ATOM      5  C   UNL     1       1.627   1.863   0.302  0.00  0.00    -0.018 A 
ATOM      6  C   UNL     1       0.872   3.022   0.181  0.00  0.00    +0.034 A 
ATOM      7  C   UNL     1       3.099   1.987   0.540  0.00  0.00    +0.049 C 
ATOM      8  C   UNL     1       3.394   2.405   1.961  0.00  0.00    -0.023 C 
ATOM      9  C   UNL     1       4.481   1.812   2.391  0.00  0.00    -0.030 C 
ATOM     10  C   UNL     1       5.063   0.920   1.311  0.00  0.00    +0.033 C 
ATOM     11  C   UNL     1       3.850   0.652   0.373  0.00  0.00    +0.029 C 
ATOM     12  C   UNL     1       3.036  -0.487   0.993  0.00  0.00    +0.109 C 
ATOM     13  N   UNL     1       1.728  -0.549   0.333  0.00  0.00    -0.336 N 
ATOM     14  H   UNL     1       1.347  -1.509  -0.046  0.00  0.00    +0.147 HD
ENDROOT
BRANCH  12  15
ATOM     15  C   UNL     1       2.848  -0.229   2.466  0.00  0.00    +0.018 A 
ATOM     16  C   UNL     1       1.806   0.571   2.900  0.00  0.00    +0.009 A 
ATOM     17  C   UNL     1       1.631   0.809   4.250  0.00  0.00    +0.004 A 
ATOM     18  C   UNL     1       2.495   0.249   5.172  0.00  0.00    +0.049 A 
ATOM     19  C   UNL     1       3.540  -0.554   4.744  0.00  0.00    +0.162 A 
ATOM     20  C   UNL     1       3.714  -0.798   3.385  0.00  0.00    +0.163 A 
BRANCH  20  21
ATOM     21  O   UNL     1       4.736  -1.589   2.960  0.00  0.00    -0.503 OA
ATOM     22  H   UNL     1       5.423  -2.039   3.691  0.00  0.00    +0.292 HD
ENDBRANCH  20  21
BRANCH  19  23
ATOM     23  O   UNL     1       4.391  -1.106   5.650  0.00  0.00    -0.491 OA
ATOM     24  C   UNL     1       4.148  -0.816   7.028  0.00  0.00    +0.277 C 
ENDBRANCH  19  23
ENDBRANCH  12  15
BRANCH   1  25
ATOM     25  S   UNL     1      -1.428   4.434  -0.200  0.00  0.00    +0.072 S 
ATOM     26  O   UNL     1      -0.548   5.419  -0.725  0.00  0.00    -0.150 OA
ATOM     27  O   UNL     1      -2.644   4.078  -0.844  0.00  0.00    -0.150 OA
BRANCH  25  28
ATOM     28  N   UNL     1      -1.828   4.923   1.330  0.00  0.00    -0.216 N 
ATOM     29  H   UNL     1      -2.885   4.984   1.629  0.00  0.00    +0.174 HD
BRANCH  28  33
ATOM     30  C   UNL     1       1.169   5.923   4.049  0.00  0.00    +0.120 A 
ATOM     31  C   UNL     1       0.483   4.725   4.184  0.00  0.00    +0.047 A 
ATOM     32  C   UNL     1      -0.510   4.393   3.283  0.00  0.00    +0.028 A 
ATOM     33  C   UNL     1      -0.822   5.259   2.243  0.00  0.00    +0.048 A 
ATOM     34  C   UNL     1      -0.131   6.455   2.107  0.00  0.00    +0.028 A 
ATOM     35  C   UNL     1       0.858   6.788   3.011  0.00  0.00    +0.047 A 
BRANCH  30  37
ATOM     36  C   UNL     1       2.813   7.497   4.738  0.00  0.00    +0.277 C 
ATOM     37  O   UNL     1       2.147   6.248   4.936  0.00  0.00    -0.495 OA
ENDBRANCH  30  37
ENDBRANCH  28  33
ENDBRANCH  25  28
ENDBRANCH   1  25
TORSDOF 7
