REMARK  Name = ZINC09176187
REMARK  11 active torsions:
REMARK  status: ('A' for Active; 'I' for Inactive)
REMARK    1  A    between atoms: C_1  and  C_2
REMARK    2  A    between atoms: C_2  and  N_57
REMARK    3  A    between atoms: C_3  and  C_4
REMARK    4  A    between atoms: C_3  and  N_57
REMARK    5  A    between atoms: C_5  and  C_6
REMARK    6  A    between atoms: C_5  and  N_57
REMARK    7  A    between atoms: C_6  and  N_7
REMARK    8  A    between atoms: C_8  and  C_24
REMARK    9  A    between atoms: C_11  and  C_12
REMARK   10  A    between atoms: C_11  and  O_19
REMARK   11  A    between atoms: C_15  and  C_18
REMARK                            x       y       z     vdW  Elec       q    Type
REMARK                         _______ _______ _______ _____ _____    ______ ____
ROOT
ATOM      1  N   UNL     1       1.000   1.850  -0.190  0.00  0.00    -0.285 N 
ATOM      2  C   UNL     1       0.742   3.286  -0.047  0.00  0.00    +0.144 C 
ATOM      3  C   UNL     1      -0.759   3.459  -0.064  0.00  0.00    +0.071 C 
ATOM      4  C   UNL     1      -1.458   4.644   0.044  0.00  0.00    +0.133 C 
ATOM      5  C   UNL     1      -1.300   2.171  -0.216  0.00  0.00    +0.249 C 
ATOM      6  O   UNL     1      -2.484   1.896  -0.277  0.00  0.00    -0.282 OA
ATOM      7  C   UNL     1      -0.173   1.202  -0.284  0.00  0.00    +0.288 C 
ATOM      8  O   UNL     1      -0.295   0.001  -0.412  0.00  0.00    -0.266 OA
ENDROOT
BRANCH   4   9
ATOM      9  C   UNL     1      -2.927   4.625   0.157  0.00  0.00    +0.017 A 
ATOM     10  C   UNL     1      -3.710   5.368  -0.731  0.00  0.00    +0.012 A 
ATOM     11  C   UNL     1      -5.085   5.342  -0.621  0.00  0.00    +0.004 A 
ATOM     12  C   UNL     1      -5.689   4.590   0.371  0.00  0.00    -0.050 A 
ATOM     13  C   UNL     1      -4.920   3.856   1.258  0.00  0.00    +0.004 A 
ATOM     14  C   UNL     1      -3.545   3.868   1.158  0.00  0.00    +0.012 A 
ATOM     15  C   UNL     1      -7.191   4.571   0.488  0.00  0.00    +0.044 C 
ENDBRANCH   4   9
BRANCH   2  16
ATOM     16  C   UNL     1       1.362   4.038  -1.196  0.00  0.00    -0.022 A 
ATOM     17  C   UNL     1       1.309   3.514  -2.474  0.00  0.00    +0.007 A 
ATOM     18  C   UNL     1       1.873   4.207  -3.529  0.00  0.00    +0.020 A 
ATOM     19  C   UNL     1       2.500   5.420  -3.304  0.00  0.00    +0.041 A 
ATOM     20  C   UNL     1       2.557   5.941  -2.023  0.00  0.00    +0.020 A 
ATOM     21  C   UNL     1       1.988   5.250  -0.970  0.00  0.00    +0.007 A 
ATOM     22 CL   UNL     1       3.214   6.287  -4.627  0.00  0.00    -0.084 Cl
ENDBRANCH   2  16
BRANCH   4  23
ATOM     23  O   UNL     1      -0.796   5.820   0.045  0.00  0.00    -0.506 OA
ATOM     24  H   UNL     1      -1.451   6.571   0.130  0.00  0.00    +0.292 HD
ENDBRANCH   4  23
BRANCH   1  25
ATOM     25  C   UNL     1       2.324   1.223  -0.225  0.00  0.00    +0.090 C 
BRANCH  25  26
ATOM     26  C   UNL     1       2.818   1.155  -1.671  0.00  0.00    -0.060 C 
BRANCH  26  27
ATOM     27  N   UNL     1       4.095   0.410  -1.700  0.00  0.00    +0.380 N 
ATOM     28  H   UNL     1       4.673   0.708  -0.905  0.00  0.00    -0.082 HD
BRANCH  27  30
ATOM     29  C   UNL     1       5.169  -1.767  -1.397  0.00  0.00    -0.017 C 
ATOM     30  C   UNL     1       3.836  -1.041  -1.589  0.00  0.00    -0.082 C 
ENDBRANCH  27  30
BRANCH  27  31
ATOM     31  C   UNL     1       4.819   0.699  -2.955  0.00  0.00    -0.082 C 
ATOM     32  C   UNL     1       5.470   2.079  -2.839  0.00  0.00    -0.017 C 
ENDBRANCH  27  31
ENDBRANCH  26  27
ENDBRANCH  25  26
ENDBRANCH   1  25
TORSDOF 8
