REMARK  Name = ZINC48326288
REMARK  9 active torsions:
REMARK  status: ('A' for Active; 'I' for Inactive)
REMARK    1  A    between atoms: C_1  and  C_2
REMARK    2  A    between atoms: C_5  and  C_29
REMARK    3  A    between atoms: C_6  and  C_8
REMARK    4  A    between atoms: C_8  and  C_10
REMARK    5  A    between atoms: C_8  and  N_11
REMARK    6  A    between atoms: N_14  and  C_15
REMARK    7  A    between atoms: C_16  and  C_28
REMARK    8  A    between atoms: N_17  and  C_27
REMARK    9  A    between atoms: N_18  and  C_21
REMARK                            x       y       z     vdW  Elec       q    Type
REMARK                         _______ _______ _______ _____ _____    ______ ____
ROOT
ATOM      1  N   UNL     1      -1.598  -1.129   3.379  0.00  0.00    -0.293 N 
ATOM      2  C   UNL     1      -1.836  -1.939   4.429  0.00  0.00    +0.304 C 
ATOM      3  O   UNL     1      -1.746  -3.145   4.299  0.00  0.00    -0.252 OA
ATOM      4  N   UNL     1      -2.173  -1.413   5.623  0.00  0.00    -0.264 N 
ATOM      5  H   UNL     1      -1.670  -0.167   3.482  0.00  0.00    +0.151 HD
ATOM      6  H   UNL     1      -2.162  -0.451   5.750  0.00  0.00    +0.157 HD
ENDROOT
BRANCH   4   7
ATOM      7  C   UNL     1      -2.543  -2.260   6.688  0.00  0.00    +0.122 A 
ATOM      8  C   UNL     1      -1.973  -2.291   7.913  0.00  0.00    +0.059 A 
ATOM      9  N   UNL     1      -2.612  -3.246   8.662  0.00  0.00    -0.282 N 
ATOM     10  N   UNL     1      -3.613  -3.825   7.871  0.00  0.00    -0.216 N 
ATOM     11  C   UNL     1      -3.582  -3.226   6.663  0.00  0.00    +0.293 A 
ATOM     12  O   UNL     1      -4.314  -3.470   5.721  0.00  0.00    -0.264 OA
ATOM     13  C   UNL     1      -2.302  -3.600  10.049  0.00  0.00    +0.171 C 
ATOM     14  C   UNL     1      -0.830  -1.425   8.376  0.00  0.00    +0.067 C 
BRANCH  10  15
ATOM     15  C   UNL     1      -4.491  -4.840   8.264  0.00  0.00    +0.067 A 
ATOM     16  C   UNL     1      -4.691  -5.944   7.445  0.00  0.00    +0.028 A 
ATOM     17  C   UNL     1      -5.559  -6.944   7.837  0.00  0.00    +0.002 A 
ATOM     18  C   UNL     1      -6.228  -6.848   9.043  0.00  0.00    +0.000 A 
ATOM     19  C   UNL     1      -6.031  -5.751   9.861  0.00  0.00    +0.002 A 
ATOM     20  C   UNL     1      -5.160  -4.750   9.478  0.00  0.00    +0.028 A 
ENDBRANCH  10  15
ENDBRANCH   4   7
BRANCH   1  21
ATOM     21  C   UNL     1      -1.232  -1.700   2.081  0.00  0.00    +0.102 C 
ATOM     22  C   UNL     1       0.277  -1.951   2.042  0.00  0.00    +0.033 C 
BRANCH  21  28
ATOM     23  C   UNL     1      -2.173   2.968   0.543  0.00  0.00    +0.044 C 
ATOM     24  C   UNL     1      -2.061   1.494   0.248  0.00  0.00    -0.050 A 
ATOM     25  C   UNL     1      -2.305   1.024  -1.029  0.00  0.00    +0.003 A 
ATOM     26  C   UNL     1      -2.202  -0.327  -1.299  0.00  0.00    +0.004 A 
ATOM     27  C   UNL     1      -1.855  -1.209  -0.293  0.00  0.00    -0.046 A 
ATOM     28  C   UNL     1      -1.610  -0.739   0.984  0.00  0.00    -0.024 A 
ATOM     29  C   UNL     1      -1.708   0.613   1.253  0.00  0.00    +0.009 A 
ATOM     30  C   UNL     1      -1.744  -2.683  -0.588  0.00  0.00    +0.044 C 
ENDBRANCH  21  28
ENDBRANCH   1  21
TORSDOF 4
