REMARK  Name = ZINC26375797
REMARK  3 active torsions:
REMARK  status: ('A' for Active; 'I' for Inactive)
REMARK    1  A    between atoms: C_1  and  C_2
REMARK    2  A    between atoms: C_13  and  O_15
REMARK    3  A    between atoms: C_20  and  O_26
REMARK                            x       y       z     vdW  Elec       q    Type
REMARK                         _______ _______ _______ _____ _____    ______ ____
ROOT
ATOM      1  C   UNL     1      -0.663  -0.350  -5.090  0.00  0.00    +0.014 C 
ATOM      2  C   UNL     1       0.662   0.416  -5.079  0.00  0.00    -0.003 C 
ATOM      3  C   UNL     1       1.521  -0.053  -3.921  0.00  0.00    +0.010 C 
ATOM      4  C   UNL     1       0.661   0.089  -2.658  0.00  0.00    +0.005 C 
ATOM      5  C   UNL     1       0.201   1.528  -2.442  0.00  0.00    -0.000 C 
ATOM      6  C   UNL     1      -0.544   2.055  -3.678  0.00  0.00    -0.003 C 
ATOM      7  C   UNL     1       0.393   1.930  -4.865  0.00  0.00    +0.001 C 
ATOM      8  C   UNL     1      -0.192   2.335  -6.223  0.00  0.00    +0.007 C 
ATOM      9  C   UNL     1       0.709   1.572  -7.232  0.00  0.00    +0.032 C 
ATOM     10  C   UNL     1       1.300   0.364  -6.463  0.00  0.00    +0.121 C 
ATOM     11  C   UNL     1      -0.914   3.523  -3.460  0.00  0.00    +0.008 C 
ATOM     12  C   UNL     1      -1.901   3.634  -2.295  0.00  0.00    +0.031 C 
ATOM     13  C   UNL     1      -1.277   2.974  -1.077  0.00  0.00    -0.068 C 
ATOM     14  C   UNL     1      -1.244   3.645   0.037  0.00  0.00    +0.003 C 
ATOM     15  C   UNL     1      -0.649   3.103   1.306  0.00  0.00    +0.137 C 
ATOM     16  C   UNL     1      -0.717   1.573   1.274  0.00  0.00    +0.036 C 
ATOM     17  C   UNL     1      -0.013   1.086   0.008  0.00  0.00    +0.011 C 
ATOM     18  C   UNL     1      -0.736   1.583  -1.232  0.00  0.00    +0.018 C 
ENDROOT
BRANCH  10  19
ATOM     19  O   UNL     1       0.957  -0.857  -7.121  0.00  0.00    -0.391 OA
ATOM     20  H   UNL     1       1.334  -1.061  -8.134  0.00  0.00    +0.210 HD
ENDBRANCH  10  19
BRANCH  15  21
ATOM     21  O   UNL     1      -1.388   3.592   2.427  0.00  0.00    -0.388 OA
ATOM     22  H   UNL     1      -1.097   3.300   3.447  0.00  0.00    +0.210 HD
ENDBRANCH  15  21
TORSDOF 2
