REMARK  Name = ZINC22002381
REMARK  8 active torsions:
REMARK  status: ('A' for Active; 'I' for Inactive)
REMARK    1  A    between atoms: C_1  and  C_2
REMARK    2  A    between atoms: C_5  and  C_7
REMARK    3  A    between atoms: N_12  and  C_27
REMARK    4  A    between atoms: C_16  and  C_24
REMARK    5  A    between atoms: C_17  and  N_23
REMARK    6  A    between atoms: C_18  and  C_19
REMARK    7  A    between atoms: C_18  and  C_21
REMARK    8  A    between atoms: C_27  and  C_28
REMARK                            x       y       z     vdW  Elec       q    Type
REMARK                         _______ _______ _______ _____ _____    ______ ____
ROOT
ATOM      1  C   UNL     1       0.034  -3.302   1.611  0.00  0.00    +0.103 C 
ATOM      2  C   UNL     1       1.306  -3.263   2.460  0.00  0.00    +0.047 C 
ATOM      3  C   UNL     1       2.546  -3.116   1.608  0.00  0.00    +0.094 C 
ATOM      4  N   UNL     1       3.218  -4.400   1.392  0.00  0.00    -0.294 NA
ATOM      5  C   UNL     1       3.625  -4.985   2.683  0.00  0.00    +0.112 C 
ATOM      6  C   UNL     1       2.372  -5.260   3.476  0.00  0.00    -0.007 C 
ATOM      7  C   UNL     1       1.327  -4.488   3.328  0.00  0.00    -0.029 C 
ATOM      8  C   UNL     1       0.065  -4.847   4.024  0.00  0.00    +0.085 C 
ATOM      9  C   UNL     1      -1.107  -4.254   3.629  0.00  0.00    +0.051 C 
ATOM     10  C   UNL     1      -1.185  -3.235   2.532  0.00  0.00    +0.191 C 
ENDROOT
BRANCH   1  15
ATOM     11  C   UNL     1       0.035   1.447  -0.090  0.00  0.00    +0.086 C 
ATOM     12  C   UNL     1       0.020  -0.060  -0.070  0.00  0.00    +0.102 A 
ATOM     13  C   UNL     1      -0.020  -0.861  -1.150  0.00  0.00    +0.044 A 
ATOM     14  C   UNL     1      -0.021  -2.192  -0.673  0.00  0.00    +0.045 A 
ATOM     15  C   UNL     1       0.019  -2.125   0.670  0.00  0.00    +0.112 A 
ATOM     16  O   UNL     1       0.049  -0.831   1.029  0.00  0.00    -0.464 OA
ENDBRANCH   1  15
BRANCH   9  17
ATOM     17  N   UNL     1      -2.257  -4.610   4.262  0.00  0.00    -0.359 N 
ATOM     18  H   UNL     1      -2.228  -5.227   5.010  0.00  0.00    +0.142 HD
ATOM     19  H   UNL     1      -3.106  -4.247   3.966  0.00  0.00    +0.142 HD
ENDBRANCH   9  17
BRANCH   8  20
ATOM     20  C   UNL     1       0.072  -5.790   5.084  0.00  0.00    +0.388 C 
ATOM     21  O   UNL     1      -0.129  -6.976   4.850  0.00  0.00    -0.241 OA
ATOM     22  O   UNL     1       0.280  -5.419   6.233  0.00  0.00    -0.241 OA
ENDBRANCH   8  20
BRANCH  10  23
ATOM     23  C   UNL     1      -2.401  -3.473   1.737  0.00  0.00    +0.091 C 
ATOM     24  N   UNL     1      -3.339  -3.657   1.124  0.00  0.00    -0.194 NA
ENDBRANCH  10  23
BRANCH  10  25
ATOM     25  C   UNL     1      -1.260  -1.892   3.131  0.00  0.00    +0.091 C 
ATOM     26  N   UNL     1      -1.319  -0.856   3.593  0.00  0.00    -0.194 NA
ENDBRANCH  10  25
BRANCH   4  27
ATOM     27  C   UNL     1       4.373  -4.247   0.497  0.00  0.00    +0.120 C 
BRANCH  27  28
ATOM     28  C   UNL     1       4.888  -5.607   0.103  0.00  0.00    -0.033 A 
ATOM     29  C   UNL     1       5.853  -6.230   0.872  0.00  0.00    +0.005 A 
ATOM     30  C   UNL     1       6.325  -7.478   0.510  0.00  0.00    +0.000 A 
ATOM     31  C   UNL     1       5.832  -8.103  -0.620  0.00  0.00    +0.000 A 
ATOM     32  C   UNL     1       4.866  -7.480  -1.388  0.00  0.00    +0.000 A 
ATOM     33  C   UNL     1       4.391  -6.234  -1.024  0.00  0.00    +0.005 A 
ENDBRANCH  27  28
ENDBRANCH   4  27
TORSDOF 7
