REMARK  Name = ZINC22421477
REMARK  6 active torsions:
REMARK  status: ('A' for Active; 'I' for Inactive)
REMARK    1  A    between atoms: C_1  and  S_2
REMARK    2  A    between atoms: S_2  and  N_5
REMARK    3  A    between atoms: N_5  and  C_6
REMARK    4  A    between atoms: C_9  and  C_12
REMARK    5  A    between atoms: C_13  and  C_14
REMARK    6  A    between atoms: N_16  and  C_17
REMARK                            x       y       z     vdW  Elec       q    Type
REMARK                         _______ _______ _______ _____ _____    ______ ____
ROOT
ATOM      1  C   UNL     1       0.272   1.721   0.172  0.00  0.00    +0.241 C 
ATOM      2  O   UNL     1      -0.799   2.300   0.189  0.00  0.00    -0.270 OA
ATOM      3  N   UNL     1       1.419   2.429   0.150  0.00  0.00    -0.282 N 
ATOM      4  H   UNL     1       2.387   1.909   0.219  0.00  0.00    +0.155 HD
ENDROOT
BRANCH   3   5
ATOM      5  C   UNL     1       1.380   3.824   0.041  0.00  0.00    +0.037 A 
ATOM      6  C   UNL     1       2.343   4.598   0.674  0.00  0.00    +0.027 A 
ATOM      7  C   UNL     1       2.305   5.975   0.568  0.00  0.00    +0.051 A 
ATOM      8  C   UNL     1       1.306   6.587  -0.172  0.00  0.00    +0.173 A 
ATOM      9  C   UNL     1       0.339   5.814  -0.808  0.00  0.00    +0.174 A 
ATOM     10  C   UNL     1       0.381   4.433  -0.706  0.00  0.00    +0.073 A 
ATOM     11  O   UNL     1      -0.523   6.645  -1.464  0.00  0.00    -0.395 OA
ATOM     12  C   UNL     1       0.161   7.909  -1.561  0.00  0.00    +0.589 C 
ATOM     13  O   UNL     1       1.050   7.904  -0.429  0.00  0.00    -0.395 OA
ATOM     14  F   UNL     1       0.885   7.985  -2.756  0.00  0.00    -0.125 F 
ATOM     15  F   UNL     1      -0.749   8.968  -1.471  0.00  0.00    -0.125 F 
ENDBRANCH   3   5
BRANCH   1  17
ATOM     16  C   UNL     1      -0.835  -0.448   0.190  0.00  0.00    +0.013 C 
ATOM     17  C   UNL     1       0.314   0.260   0.169  0.00  0.00    +0.068 C 
BRANCH  16  21
ATOM     18  C   UNL     1      -0.714  -4.683   0.181  0.00  0.00    +0.048 A 
ATOM     19  C   UNL     1      -1.940  -4.024   0.207  0.00  0.00    +0.025 A 
ATOM     20  C   UNL     1      -1.984  -2.654   0.210  0.00  0.00    +0.010 A 
ATOM     21  C   UNL     1      -0.793  -1.917   0.187  0.00  0.00    -0.025 A 
ATOM     22  C   UNL     1       0.438  -2.584   0.156  0.00  0.00    +0.010 A 
ATOM     23  C   UNL     1       0.473  -3.954   0.159  0.00  0.00    +0.025 A 
BRANCH  18  24
ATOM     24  N   UNL     1      -0.674  -6.074   0.178  0.00  0.00    -0.221 N 
ATOM     25  H   UNL     1      -1.304  -6.644   0.876  0.00  0.00    +0.173 HD
BRANCH  24  27
ATOM     26  C   UNL     1      -0.263  -6.389  -2.526  0.00  0.00    +0.218 C 
ATOM     27  S   UNL     1       0.323  -6.871  -0.878  0.00  0.00    +0.040 S 
ATOM     28  O   UNL     1       1.614  -6.327  -0.639  0.00  0.00    -0.155 OA
ATOM     29  O   UNL     1       0.064  -8.249  -0.650  0.00  0.00    -0.155 OA
ENDBRANCH  24  27
ENDBRANCH  18  24
ENDBRANCH  16  21
ENDBRANCH   1  17
TORSDOF 5
