REMARK  Name = ZINC41584077
REMARK  9 active torsions:
REMARK  status: ('A' for Active; 'I' for Inactive)
REMARK    1  A    between atoms: C_1  and  C_2
REMARK    2  A    between atoms: C_2  and  C_3
REMARK    3  A    between atoms: C_3  and  C_4
REMARK    4  A    between atoms: C_4  and  N_5
REMARK    5  A    between atoms: N_5  and  C_6
REMARK    6  A    between atoms: N_5  and  C_7
REMARK    7  A    between atoms: C_7  and  C_8
REMARK    8  A    between atoms: C_9  and  O_26
REMARK    9  A    between atoms: C_16  and  C_17
REMARK                            x       y       z     vdW  Elec       q    Type
REMARK                         _______ _______ _______ _____ _____    ______ ____
ROOT
ATOM      1  C   UNL     1      -4.423  -4.064   0.223  0.00  0.00    +0.020 A 
ATOM      2  C   UNL     1      -4.958  -4.273   1.484  0.00  0.00    +0.122 A 
ATOM      3  C   UNL     1      -6.123  -5.018   1.644  0.00  0.00    +0.046 A 
ATOM      4  C   UNL     1      -6.752  -5.551   0.555  0.00  0.00    +0.019 A 
ATOM      5  C   UNL     1      -6.225  -5.347  -0.721  0.00  0.00    +0.068 A 
ATOM      6  C   UNL     1      -5.053  -4.593  -0.896  0.00  0.00    +0.144 A 
ATOM      7  O   UNL     1      -4.744  -4.529  -2.209  0.00  0.00    -0.451 OA
ATOM      8  C   UNL     1      -5.642  -5.196  -2.971  0.00  0.00    +0.176 C 
ATOM      9  C   UNL     1      -5.612  -5.319  -4.322  0.00  0.00    +0.058 C 
ATOM     10  C   UNL     1      -6.649  -5.775  -2.067  0.00  0.00    +0.231 C 
ATOM     11  O   UNL     1      -7.622  -6.445  -2.365  0.00  0.00    -0.283 OA
ENDROOT
BRANCH   9  12
ATOM     12  C   UNL     1      -4.458  -4.817  -5.080  0.00  0.00    -0.021 A 
ATOM     13  C   UNL     1      -3.317  -4.366  -4.407  0.00  0.00    +0.009 A 
ATOM     14  C   UNL     1      -2.239  -3.896  -5.126  0.00  0.00    +0.016 A 
ATOM     15  C   UNL     1      -2.283  -3.869  -6.510  0.00  0.00    +0.018 A 
ATOM     16  C   UNL     1      -3.410  -4.313  -7.183  0.00  0.00    +0.016 A 
ATOM     17  C   UNL     1      -4.493  -4.792  -6.479  0.00  0.00    +0.009 A 
ATOM     18 BR   UNL     1      -0.798  -3.222  -7.487  0.00  0.00    -0.050 Br
ENDBRANCH   9  12
BRANCH   2  19
ATOM     19  O   UNL     1      -4.340  -3.749   2.573  0.00  0.00    -0.506 OA
ATOM     20  H   UNL     1      -4.642  -2.861   2.807  0.00  0.00    +0.292 HD
ENDBRANCH   2  19
BRANCH   1  21
ATOM     21  C   UNL     1      -3.161  -3.256   0.065  0.00  0.00    -0.036 C 
BRANCH  21  22
ATOM     22  N   UNL     1      -3.505  -1.838  -0.108  0.00  0.00    +0.381 N 
ATOM     23  C   UNL     1      -4.239  -1.663  -1.368  0.00  0.00    -0.096 C 
ATOM     24  H   UNL     1      -4.082  -1.536   0.662  0.00  0.00    -0.082 HD
BRANCH  22  25
ATOM     25  C   UNL     1      -2.275  -1.036  -0.142  0.00  0.00    -0.079 C 
BRANCH  25  26
ATOM     26  C   UNL     1      -2.636   0.450  -0.197  0.00  0.00    -0.019 C 
BRANCH  26  28
ATOM     27  C   UNL     1      -1.716   2.771  -0.287  0.00  0.00    +0.004 C 
ATOM     28  C   UNL     1      -1.355   1.286  -0.233  0.00  0.00    -0.005 C 
ENDBRANCH  26  28
ENDBRANCH  25  26
ENDBRANCH  22  25
ENDBRANCH  21  22
ENDBRANCH   1  21
TORSDOF 7
