REMARK  Name = ZINC09972359
REMARK  8 active torsions:
REMARK  status: ('A' for Active; 'I' for Inactive)
REMARK    1  A    between atoms: C_1  and  C_2
REMARK    2  A    between atoms: C_5  and  C_8
REMARK    3  A    between atoms: C_8  and  O_10
REMARK    4  A    between atoms: O_10  and  C_11
REMARK    5  A    between atoms: C_14  and  C_19
REMARK    6  A    between atoms: C_16  and  O_17
REMARK    7  A    between atoms: O_17  and  C_18
REMARK    8  A    between atoms: C_29  and  C_31
REMARK                            x       y       z     vdW  Elec       q    Type
REMARK                         _______ _______ _______ _____ _____    ______ ____
ROOT
ATOM      1  C   UNL     1       8.354   0.640   0.922  0.00  0.00    +0.024 C 
ATOM      2  C   UNL     1       7.569   0.255  -0.141  0.00  0.00    +0.081 C 
ATOM      3  C   UNL     1       7.053   1.238  -1.134  0.00  0.00    +0.153 C 
ATOM      4  N   UNL     1       7.705   2.316  -1.479  0.00  0.00    -0.283 NA
ATOM      5  N   UNL     1       5.790   0.895  -1.664  0.00  0.00    -0.152 N 
ATOM      6  C   UNL     1       5.404  -0.427  -1.591  0.00  0.00    +0.181 C 
ATOM      7  N   UNL     1       6.049  -1.417  -1.028  0.00  0.00    -0.152 NA
ATOM      8  C   UNL     1       7.192  -1.164  -0.361  0.00  0.00    +0.273 C 
ATOM      9  O   UNL     1       7.896  -2.073   0.050  0.00  0.00    -0.268 OA
ATOM     10  S   UNL     1       3.851  -0.413  -2.447  0.00  0.00    -0.033 S 
ATOM     11  C   UNL     1       3.792   1.338  -2.803  0.00  0.00    +0.130 C 
ATOM     12  N   UNL     1       4.917   1.765  -2.282  0.00  0.00    -0.164 NA
ATOM     13  H   UNL     1       8.686   2.533  -1.032  0.00  0.00    +0.188 HD
ENDROOT
BRANCH   1  17
ATOM     14  C   UNL     1       8.923   4.761   1.747  0.00  0.00    +0.173 A 
ATOM     15  C   UNL     1       7.715   4.319   1.221  0.00  0.00    +0.051 A 
ATOM     16  C   UNL     1       7.527   2.983   0.945  0.00  0.00    +0.012 A 
ATOM     17  C   UNL     1       8.553   2.063   1.208  0.00  0.00    -0.021 A 
ATOM     18  C   UNL     1       9.770   2.511   1.738  0.00  0.00    +0.057 A 
ATOM     19  C   UNL     1       9.950   3.853   2.005  0.00  0.00    +0.163 A 
BRANCH  19  20
ATOM     20  O   UNL     1      11.130   4.292   2.520  0.00  0.00    -0.491 OA
ATOM     21  C   UNL     1      12.139   3.308   2.760  0.00  0.00    +0.277 C 
ENDBRANCH  19  20
BRANCH  14  22
ATOM     22  O   UNL     1       9.103   6.080   2.011  0.00  0.00    -0.419 OA
BRANCH  22  23
ATOM     23  C   UNL     1       9.780   6.801   1.096  0.00  0.00    +0.345 C 
ATOM     24  O   UNL     1      10.115   6.288   0.046  0.00  0.00    -0.245 OA
BRANCH  23  29
ATOM     25  C   UNL     1      11.085  12.303   2.156  0.00  0.00    +0.044 C 
ATOM     26  C   UNL     1      10.743  10.862   1.879  0.00  0.00    -0.050 A 
ATOM     27  C   UNL     1      11.127  10.281   0.683  0.00  0.00    +0.004 A 
ATOM     28  C   UNL     1      10.818   8.963   0.422  0.00  0.00    +0.015 A 
ATOM     29  C   UNL     1      10.116   8.213   1.368  0.00  0.00    +0.059 A 
ATOM     30  C   UNL     1       9.727   8.807   2.571  0.00  0.00    +0.015 A 
ATOM     31  C   UNL     1      10.048  10.125   2.821  0.00  0.00    +0.004 A 
ENDBRANCH  23  29
ENDBRANCH  22  23
ENDBRANCH  14  22
ENDBRANCH   1  17
BRANCH  11  32
ATOM     32  C   UNL     1       2.745   2.108  -3.510  0.00  0.00    +0.012 A 
ATOM     33  C   UNL     1       1.601   1.476  -4.009  0.00  0.00    +0.030 A 
ATOM     34  C   UNL     1       0.653   2.231  -4.667  0.00  0.00    +0.111 A 
ATOM     35  N   UNL     1       0.808   3.532  -4.818  0.00  0.00    -0.263 NA
ATOM     36  C   UNL     1       1.871   4.168  -4.363  0.00  0.00    +0.111 A 
ATOM     37  C   UNL     1       2.871   3.489  -3.698  0.00  0.00    +0.030 A 
ENDBRANCH  11  32
TORSDOF 6
