REMARK  Name = ZINC21868440
REMARK  8 active torsions:
REMARK  status: ('A' for Active; 'I' for Inactive)
REMARK    1  A    between atoms: C_1  and  C_2
REMARK    2  A    between atoms: N_5  and  C_8
REMARK    3  A    between atoms: C_8  and  C_9
REMARK    4  A    between atoms: C_12  and  N_15
REMARK    5  A    between atoms: C_16  and  C_18
REMARK    6  A    between atoms: C_19  and  C_36
REMARK    7  A    between atoms: N_26  and  C_29
REMARK    8  A    between atoms: C_29  and  C_30
REMARK                            x       y       z     vdW  Elec       q    Type
REMARK                         _______ _______ _______ _____ _____    ______ ____
ROOT
ATOM      1  N   UNL     1       1.535  -5.564   6.353  0.00  0.00    -0.282 N 
ATOM      2  C   UNL     1       0.778  -5.596   7.467  0.00  0.00    +0.249 C 
ATOM      3  O   UNL     1      -0.414  -5.369   7.399  0.00  0.00    -0.270 OA
ATOM      4  H   UNL     1       2.470  -5.820   6.394  0.00  0.00    +0.155 HD
ENDROOT
BRANCH   2   5
ATOM      5  C   UNL     1       1.396  -5.909   8.771  0.00  0.00    +0.067 C 
ATOM      6  C   UNL     1       0.772  -5.983   9.960  0.00  0.00    +0.045 C 
ATOM      7  C   UNL     1       1.764  -6.320  10.993  0.00  0.00    +0.336 C 
ATOM      8  O   UNL     1       1.522  -6.462  12.175  0.00  0.00    -0.245 OA
ATOM      9  O   UNL     1       2.980  -6.449  10.432  0.00  0.00    -0.450 OA
ATOM     10  C   UNL     1       2.851  -6.214   9.029  0.00  0.00    +0.146 C 
ATOM     11  C   UNL     1       3.716  -5.022   8.617  0.00  0.00    +0.068 C 
ATOM     12  C   UNL     1       5.191  -5.366   8.844  0.00  0.00    +0.089 C 
ATOM     13  N   UNL     1       5.543  -6.556   8.059  0.00  0.00    -0.298 NA
ATOM     14  C   UNL     1       4.761  -7.724   8.482  0.00  0.00    +0.089 C 
ATOM     15  C   UNL     1       3.272  -7.456   8.243  0.00  0.00    +0.068 C 
ATOM     16  C   UNL     1      -0.700  -5.759  10.194  0.00  0.00    +0.052 C 
BRANCH  13  17
ATOM     17  C   UNL     1       6.984  -6.831   8.138  0.00  0.00    +0.119 C 
BRANCH  17  18
ATOM     18  C   UNL     1       7.348  -7.897   7.137  0.00  0.00    -0.033 A 
ATOM     19  C   UNL     1       7.303  -9.230   7.500  0.00  0.00    +0.005 A 
ATOM     20  C   UNL     1       7.636 -10.208   6.581  0.00  0.00    +0.000 A 
ATOM     21  C   UNL     1       8.014  -9.852   5.300  0.00  0.00    +0.000 A 
ATOM     22  C   UNL     1       8.058  -8.519   4.937  0.00  0.00    +0.000 A 
ATOM     23  C   UNL     1       7.721  -7.542   5.854  0.00  0.00    +0.005 A 
ENDBRANCH  17  18
ENDBRANCH  13  17
ENDBRANCH   2   5
BRANCH   1  27
ATOM     24  C   UNL     1      -0.140  -4.365   2.733  0.00  0.00    -0.064 A 
ATOM     25  C   UNL     1       0.855  -5.326   2.749  0.00  0.00    +0.003 A 
ATOM     26  C   UNL     1       1.412  -5.726   3.947  0.00  0.00    +0.023 A 
ATOM     27  C   UNL     1       0.973  -5.161   5.138  0.00  0.00    +0.034 A 
ATOM     28  C   UNL     1      -0.026  -4.196   5.119  0.00  0.00    +0.023 A 
ATOM     29  C   UNL     1      -0.575  -3.797   3.916  0.00  0.00    +0.003 A 
BRANCH  24  30
ATOM     30  C   UNL     1      -0.745  -3.931   1.423  0.00  0.00    -0.043 C 
BRANCH  30  35
ATOM     31  C   UNL     1       2.334  -0.233  -1.638  0.00  0.00    +0.007 C 
ATOM     32  C   UNL     1       1.556  -1.471  -1.187  0.00  0.00    -0.018 C 
ATOM     33  C   UNL     1       0.112  -1.078  -0.860  0.00  0.00    -0.016 C 
ATOM     34  C   UNL     1      -0.637  -2.304  -0.334  0.00  0.00    -0.078 C 
ATOM     35  N   UNL     1       0.022  -2.803   0.879  0.00  0.00    +0.382 N 
ATOM     36  C   UNL     1       1.383  -3.248   0.558  0.00  0.00    -0.078 C 
ATOM     37  C   UNL     1       2.211  -2.059   0.067  0.00  0.00    -0.016 C 
ATOM     38  H   UNL     1       0.064  -2.065   1.565  0.00  0.00    -0.081 HD
ENDBRANCH  30  35
ENDBRANCH  24  30
ENDBRANCH   1  27
TORSDOF 6
