REMARK  Name = ZINC32146006
REMARK  8 active torsions:
REMARK  status: ('A' for Active; 'I' for Inactive)
REMARK    1  A    between atoms: C_1  and  C_2
REMARK    2  A    between atoms: C_5  and  O_27
REMARK    3  A    between atoms: C_6  and  N_8
REMARK    4  A    between atoms: C_9  and  C_11
REMARK    5  A    between atoms: C_14  and  S_17
REMARK    6  A    between atoms: S_17  and  N_20
REMARK    7  A    between atoms: N_20  and  C_21
REMARK    8  A    between atoms: O_27  and  C_28
REMARK                            x       y       z     vdW  Elec       q    Type
REMARK                         _______ _______ _______ _____ _____    ______ ____
ROOT
ATOM      1  C   UNL     1       0.617   2.021   0.717  0.00  0.00    +0.037 A 
ATOM      2  C   UNL     1       1.916   2.523   0.614  0.00  0.00    +0.015 A 
ATOM      3  C   UNL     1       2.971   1.659   0.405  0.00  0.00    +0.029 A 
ATOM      4  C   UNL     1       2.744   0.298   0.297  0.00  0.00    +0.109 A 
ATOM      5  C   UNL     1       1.459  -0.205   0.398  0.00  0.00    +0.029 A 
ATOM      6  C   UNL     1       0.395   0.648   0.607  0.00  0.00    +0.015 A 
ENDROOT
BRANCH   1   8
ATOM      7  N   UNL     1      -0.301   4.268   1.041  0.00  0.00    -0.279 N 
ATOM      8  C   UNL     1      -0.519   2.942   0.935  0.00  0.00    +0.248 C 
ATOM      9  O   UNL     1      -1.649   2.503   1.020  0.00  0.00    -0.270 OA
ATOM     10  H   UNL     1       0.728   4.657   1.045  0.00  0.00    +0.155 HD
BRANCH   7  16
ATOM     11  C   UNL     1      -4.857   5.202   2.636  0.00  0.00    +0.044 C 
ATOM     12  C   UNL     1      -3.605   5.629   1.914  0.00  0.00    -0.048 A 
ATOM     13  C   UNL     1      -3.527   6.891   1.355  0.00  0.00    +0.007 A 
ATOM     14  C   UNL     1      -2.382   7.288   0.691  0.00  0.00    +0.048 A 
ATOM     15  C   UNL     1      -1.305   6.423   0.589  0.00  0.00    +0.141 A 
ATOM     16  C   UNL     1      -1.384   5.149   1.146  0.00  0.00    +0.076 A 
ATOM     17  C   UNL     1      -2.537   4.757   1.811  0.00  0.00    +0.030 A 
BRANCH  15  18
ATOM     18  O   UNL     1      -0.175   6.814  -0.059  0.00  0.00    -0.493 OA
ATOM     19  C   UNL     1      -0.165   8.135  -0.605  0.00  0.00    +0.277 C 
ENDBRANCH  15  18
ENDBRANCH   7  16
ENDBRANCH   1   8
BRANCH   4  20
ATOM     20  S   UNL     1       4.097  -0.798   0.029  0.00  0.00    +0.072 S 
ATOM     21  O   UNL     1       5.272  -0.092   0.403  0.00  0.00    -0.150 OA
ATOM     22  O   UNL     1       3.735  -2.041   0.616  0.00  0.00    -0.150 OA
BRANCH  20  23
ATOM     23  N   UNL     1       4.201  -1.058  -1.603  0.00  0.00    -0.216 N 
ATOM     24  H   UNL     1       4.050  -2.069  -2.010  0.00  0.00    +0.174 HD
BRANCH  23  25
ATOM     25  C   UNL     1       4.479   0.002  -2.460  0.00  0.00    +0.051 A 
ATOM     26  C   UNL     1       3.482   0.551  -3.267  0.00  0.00    +0.042 A 
ATOM     27  C   UNL     1       3.797   1.605  -4.098  0.00  0.00    +0.084 A 
ATOM     28  N   UNL     1       5.025   2.086  -4.145  0.00  0.00    -0.367 N 
ATOM     29  C   UNL     1       5.997   1.591  -3.402  0.00  0.00    +0.084 A 
ATOM     30  C   UNL     1       5.763   0.540  -2.540  0.00  0.00    +0.042 A 
ATOM     31  H   UNL     1       5.263   2.924  -4.817  0.00  0.00    +0.165 HD
ENDBRANCH  23  25
ENDBRANCH  20  23
ENDBRANCH   4  20
TORSDOF 6
