REMARK  Name = ZINC38656643
REMARK  13 active torsions:
REMARK  status: ('A' for Active; 'I' for Inactive)
REMARK    1  A    between atoms: C_1  and  C_2
REMARK    2  A    between atoms: C_4  and  O_41
REMARK    3  A    between atoms: C_15  and  C_21
REMARK    4  A    between atoms: C_17  and  C_19
REMARK    5  A    between atoms: C_17  and  C_20
REMARK    6  A    between atoms: C_21  and  C_23
REMARK    7  A    between atoms: C_23  and  O_24
REMARK    8  A    between atoms: O_24  and  C_25
REMARK    9  A    between atoms: C_25  and  C_27
REMARK   10  A    between atoms: C_27  and  C_28
REMARK   11  A    between atoms: C_27  and  C_29
REMARK   12  A    between atoms: C_27  and  C_30
REMARK   13  A    between atoms: C_39  and  C_40
REMARK                            x       y       z     vdW  Elec       q    Type
REMARK                         _______ _______ _______ _____ _____    ______ ____
ROOT
ATOM      1  C   UNL     1       0.361   1.412   0.327  0.00  0.00    +0.015 C 
ATOM      2  C   UNL     1       0.233  -0.104   0.146  0.00  0.00    +0.012 C 
ATOM      3  C   UNL     1      -1.214  -0.579   0.302  0.00  0.00    +0.042 C 
ATOM      4  C   UNL     1      -1.662  -0.499   1.754  0.00  0.00    +0.120 C 
ATOM      5  C   UNL     1      -0.796  -1.397   2.626  0.00  0.00    +0.035 C 
ATOM      6  C   UNL     1       0.650  -0.941   2.509  0.00  0.00    -0.000 C 
ATOM      7  C   UNL     1       1.165  -0.875   1.099  0.00  0.00    +0.004 C 
ATOM      8  C   UNL     1       1.344  -2.238   0.416  0.00  0.00    +0.039 C 
ATOM      9  C   UNL     1       1.409  -1.902  -1.093  0.00  0.00    +0.162 C 
ATOM     10  C   UNL     1       0.704  -0.539  -1.269  0.00  0.00    +0.165 C 
ATOM     11  O   UNL     1      -0.470  -0.828  -2.055  0.00  0.00    -0.332 OA
ATOM     12  C   UNL     1      -0.202  -2.076  -2.725  0.00  0.00    +0.166 C 
ATOM     13  O   UNL     1       0.581  -2.851  -1.794  0.00  0.00    -0.343 OA
ATOM     14  C   UNL     1      -1.525  -2.803  -3.010  0.00  0.00    +0.074 C 
ATOM     15  C   UNL     1       0.558  -1.859  -4.033  0.00  0.00    +0.074 C 
ATOM     16  C   UNL     1       1.541  -1.739   3.452  0.00  0.00    +0.008 C 
ATOM     17  C   UNL     1       1.530  -3.223   3.139  0.00  0.00    +0.032 C 
ATOM     18  C   UNL     1       0.239  -3.704   2.537  0.00  0.00    -0.056 C 
ATOM     19  C   UNL     1       0.229  -4.980   2.112  0.00  0.00    +0.051 C 
ATOM     20  C   UNL     1      -0.976  -5.513   1.445  0.00  0.00    +0.179 C 
ATOM     21  O   UNL     1      -1.174  -6.718   1.343  0.00  0.00    -0.288 OA
ATOM     22  C   UNL     1      -1.919  -4.531   0.867  0.00  0.00    +0.047 C 
ATOM     23  C   UNL     1      -1.898  -3.267   1.316  0.00  0.00    -0.012 C 
ATOM     24  C   UNL     1      -0.989  -2.869   2.430  0.00  0.00    +0.013 C 
ATOM     25  C   UNL     1      -1.784  -3.274   3.689  0.00  0.00    +0.020 C 
ENDROOT
BRANCH  10  26
ATOM     26  C   UNL     1       1.592   0.504  -1.902  0.00  0.00    +0.205 C 
ATOM     27  O   UNL     1       2.783   0.482  -1.707  0.00  0.00    -0.291 OA
BRANCH  26  28
ATOM     28  C   UNL     1       0.992   1.574  -2.778  0.00  0.00    +0.309 C 
BRANCH  28  29
ATOM     29  O   UNL     1       2.008   2.506  -3.155  0.00  0.00    -0.456 OA
BRANCH  29  30
ATOM     30  C   UNL     1       1.635   3.528  -3.942  0.00  0.00    +0.313 C 
ATOM     31  O   UNL     1       0.485   3.628  -4.298  0.00  0.00    -0.250 OA
BRANCH  30  32
ATOM     32  C   UNL     1       2.652   4.550  -4.380  0.00  0.00    +0.059 C 
ATOM     33  C   UNL     1       1.972   5.599  -5.263  0.00  0.00    +0.022 C 
ATOM     34  C   UNL     1       3.254   5.231  -3.150  0.00  0.00    +0.022 C 
ATOM     35  C   UNL     1       3.761   3.858  -5.175  0.00  0.00    +0.022 C 
ENDBRANCH  30  32
ENDBRANCH  29  30
ENDBRANCH  28  29
ENDBRANCH  26  28
ENDBRANCH  10  26
BRANCH   4  36
ATOM     36  O   UNL     1      -3.045  -0.806   1.892  0.00  0.00    -0.391 OA
ATOM     37  H   UNL     1      -3.630  -0.214   1.400  0.00  0.00    +0.210 HD
ENDBRANCH   4  36
TORSDOF 6
