REMARK  Name = ZINC16737911
REMARK  5 active torsions:
REMARK  status: ('A' for Active; 'I' for Inactive)
REMARK    1  A    between atoms: C_3  and  S_9
REMARK    2  A    between atoms: S_9  and  C_10
REMARK    3  A    between atoms: C_13  and  S_19
REMARK    4  A    between atoms: C_15  and  N_16
REMARK    5  A    between atoms: S_19  and  N_22
REMARK                            x       y       z     vdW  Elec       q    Type
REMARK                         _______ _______ _______ _____ _____    ______ ____
ROOT
ATOM      1  C   UNL     1       2.155   5.760  -0.137  0.00  0.00    +0.043 A 
ATOM      2  C   UNL     1       0.804   6.083  -0.103  0.00  0.00    +0.019 A 
ATOM      3  C   UNL     1       0.407   7.401  -0.210  0.00  0.00    +0.030 A 
ATOM      4  C   UNL     1       1.354   8.400  -0.351  0.00  0.00    +0.107 A 
ATOM      5  C   UNL     1       2.699   8.083  -0.385  0.00  0.00    +0.062 A 
ATOM      6  C   UNL     1       3.103   6.767  -0.273  0.00  0.00    +0.142 A 
ENDROOT
BRANCH   6   7
ATOM      7  N   UNL     1       4.544   6.430  -0.303  0.00  0.00    +0.058 N 
ATOM      8  O   UNL     1       5.375   7.313  -0.422  0.00  0.00    -0.126 OA
ATOM      9  O   UNL     1       4.900   5.268  -0.209  0.00  0.00    -0.126 OA
ENDBRANCH   6   7
BRANCH   4  10
ATOM     10  S   UNL     1       0.843  10.081  -0.487  0.00  0.00    +0.056 S 
ATOM     11  O   UNL     1       1.890  10.770  -1.157  0.00  0.00    -0.153 OA
ATOM     12  O   UNL     1      -0.491  10.062  -0.976  0.00  0.00    -0.153 OA
BRANCH  10  13
ATOM     13  N   UNL     1       0.776  10.699   1.048  0.00  0.00    -0.204 NA
ATOM     14  H   UNL     1       1.001  10.138   1.806  0.00  0.00    +0.144 HD
ATOM     15  H   UNL     1       0.512  11.621   1.188  0.00  0.00    +0.144 HD
ENDBRANCH  10  13
ENDBRANCH   4  10
BRANCH   1  16
ATOM     16  S   UNL     1       2.666   4.079  -0.001  0.00  0.00    -0.084 S 
BRANCH  16  19
ATOM     17  C   UNL     1      -0.608   1.783  -0.432  0.00  0.00    +0.039 A 
ATOM     18  C   UNL     1       0.565   2.468  -0.687  0.00  0.00    +0.021 A 
ATOM     19  C   UNL     1       1.171   3.205   0.322  0.00  0.00    +0.048 A 
ATOM     20  C   UNL     1       0.596   3.251   1.588  0.00  0.00    +0.140 A 
ATOM     21  C   UNL     1      -0.577   2.564   1.838  0.00  0.00    +0.077 A 
ATOM     22  C   UNL     1      -1.176   1.826   0.830  0.00  0.00    +0.126 A 
ATOM     23  F   UNL     1      -2.320   1.151   1.078  0.00  0.00    -0.205 F 
ATOM     24  F   UNL     1       1.184   3.966   2.572  0.00  0.00    -0.204 F 
ENDBRANCH  16  19
ENDBRANCH   1  16
TORSDOF 5
