REMARK  Name = ZINC07188607
REMARK  10 active torsions:
REMARK  status: ('A' for Active; 'I' for Inactive)
REMARK    1  A    between atoms: C_1  and  O_2
REMARK    2  A    between atoms: O_2  and  C_3
REMARK    3  A    between atoms: C_6  and  S_26
REMARK    4  A    between atoms: C_8  and  C_9
REMARK    5  A    between atoms: C_9  and  O_11
REMARK    6  A    between atoms: O_11  and  C_12
REMARK    7  A    between atoms: C_12  and  C_14
REMARK    8  A    between atoms: C_12  and  C_20
REMARK    9  A    between atoms: N_22  and  C_23
REMARK   10  A    between atoms: S_26  and  N_29
REMARK                            x       y       z     vdW  Elec       q    Type
REMARK                         _______ _______ _______ _____ _____    ______ ____
ROOT
ATOM      1  C   UNL     1      -0.014   1.211   0.009  0.00  0.00    +0.344 C 
ATOM      2  O   UNL     1       0.002  -0.004   0.002  0.00  0.00    -0.245 OA
ENDROOT
BRANCH   1   8
ATOM      3  C   UNL     1       2.478   1.285  -0.015  0.00  0.00    +0.134 A 
ATOM      4  C   UNL     1       3.663   2.005  -0.022  0.00  0.00    +0.048 A 
ATOM      5  C   UNL     1       3.634   3.385  -0.015  0.00  0.00    +0.032 A 
ATOM      6  C   UNL     1       2.425   4.062  -0.000  0.00  0.00    +0.106 A 
ATOM      7  C   UNL     1       1.238   3.363   0.003  0.00  0.00    +0.047 A 
ATOM      8  C   UNL     1       1.252   1.965   0.001  0.00  0.00    +0.102 A 
BRANCH   6   9
ATOM      9  S   UNL     1       2.405   5.824   0.009  0.00  0.00    +0.056 S 
ATOM     10  O   UNL     1       1.161   6.213   0.574  0.00  0.00    -0.153 OA
ATOM     11  O   UNL     1       3.651   6.241   0.550  0.00  0.00    -0.153 OA
BRANCH   9  12
ATOM     12  N   UNL     1       2.385   6.321  -1.570  0.00  0.00    -0.204 NA
ATOM     13  H   UNL     1       2.386   5.666  -2.285  0.00  0.00    +0.144 HD
ATOM     14  H   UNL     1       2.373   7.268  -1.780  0.00  0.00    +0.144 HD
ENDBRANCH   9  12
ENDBRANCH   6   9
BRANCH   3  16
ATOM     15  C   UNL     1       3.790  -0.695  -0.038  0.00  0.00    +0.277 C 
ATOM     16  O   UNL     1       2.505  -0.071  -0.023  0.00  0.00    -0.494 OA
ENDBRANCH   3  16
ENDBRANCH   1   8
BRANCH   1  17
ATOM     17  O   UNL     1      -1.190   1.869   0.018  0.00  0.00    -0.443 OA
BRANCH  17  18
ATOM     18  C   UNL     1      -2.397   1.061   0.019  0.00  0.00    +0.292 C 
BRANCH  18  19
ATOM     19  C   UNL     1      -3.502   1.809  -0.682  0.00  0.00    +0.002 A 
ATOM     20  C   UNL     1      -3.590   3.183  -0.564  0.00  0.00    +0.008 A 
ATOM     21  C   UNL     1      -4.601   3.869  -1.211  0.00  0.00    +0.000 A 
ATOM     22  C   UNL     1      -5.530   3.180  -1.968  0.00  0.00    +0.000 A 
ATOM     23  C   UNL     1      -5.445   1.805  -2.082  0.00  0.00    +0.000 A 
ATOM     24  C   UNL     1      -4.431   1.119  -1.438  0.00  0.00    +0.008 A 
ENDBRANCH  18  19
BRANCH  18  25
ATOM     25  C   UNL     1      -2.808   0.774   1.440  0.00  0.00    +0.259 C 
ATOM     26  O   UNL     1      -2.203   1.282   2.361  0.00  0.00    -0.271 OA
ATOM     27  N   UNL     1      -3.848  -0.046   1.689  0.00  0.00    -0.309 N 
ATOM     28  H   UNL     1      -4.332  -0.452   0.953  0.00  0.00    +0.149 HD
BRANCH  27  29
ATOM     29  C   UNL     1      -4.248  -0.325   3.070  0.00  0.00    +0.073 C 
ATOM     30  C   UNL     1      -4.576  -1.775   3.432  0.00  0.00    +0.024 C 
ATOM     31  C   UNL     1      -5.699  -0.742   3.316  0.00  0.00    +0.024 C 
ENDBRANCH  27  29
ENDBRANCH  18  25
ENDBRANCH  17  18
ENDBRANCH   1  17
TORSDOF 9
