REMARK  Name = ZINC05605259
REMARK  8 active torsions:
REMARK  status: ('A' for Active; 'I' for Inactive)
REMARK    1  A    between atoms: C_1  and  O_2
REMARK    2  A    between atoms: O_2  and  C_3
REMARK    3  A    between atoms: C_6  and  C_11
REMARK    4  A    between atoms: C_8  and  O_9
REMARK    5  A    between atoms: O_9  and  C_10
REMARK    6  A    between atoms: C_15  and  O_27
REMARK    7  A    between atoms: C_17  and  O_26
REMARK    8  A    between atoms: C_21  and  C_22
REMARK                            x       y       z     vdW  Elec       q    Type
REMARK                         _______ _______ _______ _____ _____    ______ ____
ROOT
ATOM      1  C   UNL     1      -2.285   5.447  -0.276  0.00  0.00    +0.077 A 
ATOM      2  C   UNL     1      -2.412   3.999  -0.514  0.00  0.00    +0.204 A 
ATOM      3  O   UNL     1      -3.425   3.516  -0.990  0.00  0.00    -0.286 OA
ATOM      4  C   UNL     1      -1.257   3.163  -0.150  0.00  0.00    +0.106 A 
ATOM      5  C   UNL     1      -1.275   1.775  -0.342  0.00  0.00    +0.135 A 
ATOM      6  C   UNL     1      -0.172   1.024   0.017  0.00  0.00    +0.091 A 
ATOM      7  C   UNL     1       0.950   1.645   0.555  0.00  0.00    +0.124 A 
ATOM      8  C   UNL     1       0.977   3.018   0.743  0.00  0.00    +0.092 A 
ATOM      9  C   UNL     1      -0.122   3.790   0.394  0.00  0.00    +0.146 A 
ATOM     10  O   UNL     1      -0.104   5.126   0.573  0.00  0.00    -0.450 OA
ATOM     11  C   UNL     1      -1.130   5.922   0.257  0.00  0.00    +0.219 A 
ENDROOT
BRANCH   1  15
ATOM     12  C   UNL     1      -5.473   8.096  -1.244  0.00  0.00    +0.162 A 
ATOM     13  C   UNL     1      -4.307   8.111  -1.994  0.00  0.00    +0.050 A 
ATOM     14  C   UNL     1      -3.270   7.257  -1.679  0.00  0.00    +0.012 A 
ATOM     15  C   UNL     1      -3.397   6.370  -0.612  0.00  0.00    -0.007 A 
ATOM     16  C   UNL     1      -4.569   6.354   0.143  0.00  0.00    +0.058 A 
ATOM     17  C   UNL     1      -5.604   7.215  -0.174  0.00  0.00    +0.162 A 
BRANCH  12  19
ATOM     18  C   UNL     1      -6.290   9.819  -2.666  0.00  0.00    +0.277 C 
ATOM     19  O   UNL     1      -6.491   8.943  -1.555  0.00  0.00    -0.491 OA
ENDBRANCH  12  19
BRANCH  17  20
ATOM     20  O   UNL     1      -6.748   7.202   0.561  0.00  0.00    -0.491 OA
ATOM     21  C   UNL     1      -6.813   6.273   1.644  0.00  0.00    +0.277 C 
ENDBRANCH  17  20
ENDBRANCH   1  15
BRANCH  11  22
ATOM     22  C   UNL     1      -0.999   7.403   0.501  0.00  0.00    +0.451 C 
ATOM     23  F   UNL     1      -2.099   7.853   1.240  0.00  0.00    -0.163 F 
ATOM     24  F   UNL     1       0.177   7.656   1.214  0.00  0.00    -0.163 F 
ATOM     25  F   UNL     1      -0.955   8.075  -0.725  0.00  0.00    -0.163 F 
ENDBRANCH  11  22
BRANCH   7  26
ATOM     26  O   UNL     1       2.030   0.899   0.901  0.00  0.00    -0.507 OA
ATOM     27  H   UNL     1       2.921   1.385   1.327  0.00  0.00    +0.292 HD
ENDBRANCH   7  26
BRANCH   5  28
ATOM     28  O   UNL     1      -2.369   1.172  -0.873  0.00  0.00    -0.506 OA
ATOM     29  H   UNL     1      -2.379   0.083  -1.021  0.00  0.00    +0.292 HD
ENDBRANCH   5  28
TORSDOF 6
