REMARK  Name = ZINC38684641
REMARK  15 active torsions:
REMARK  status: ('A' for Active; 'I' for Inactive)
REMARK    1  A    between atoms: C_1  and  C_2
REMARK    2  A    between atoms: C_7  and  O_8
REMARK    3  A    between atoms: O_8  and  C_9
REMARK    4  A    between atoms: C_9  and  C_10
REMARK    5  A    between atoms: C_10  and  O_12
REMARK    6  A    between atoms: O_12  and  C_13
REMARK    7  A    between atoms: C_20  and  N_38
REMARK    8  A    between atoms: C_21  and  C_36
REMARK    9  A    between atoms: C_22  and  C_24
REMARK   10  A    between atoms: C_28  and  O_30
REMARK   11  A    between atoms: O_30  and  C_31
REMARK   12  A    between atoms: C_31  and  C_32
REMARK   13  A    between atoms: C_32  and  C_33
REMARK   14  A    between atoms: C_33  and  C_34
REMARK   15  A    between atoms: C_33  and  C_35
REMARK                            x       y       z     vdW  Elec       q    Type
REMARK                         _______ _______ _______ _____ _____    ______ ____
ROOT
ATOM      1  C   UNL     1       0.100   0.347   7.125  0.00  0.00    +0.135 A 
ATOM      2  C   UNL     1       0.038   1.729   7.009  0.00  0.00    +0.047 A 
ATOM      3  C   UNL     1       0.073   2.519   8.141  0.00  0.00    +0.012 A 
ATOM      4  C   UNL     1       0.170   1.939   9.394  0.00  0.00    +0.008 A 
ATOM      5  C   UNL     1       0.233   0.560   9.515  0.00  0.00    +0.138 A 
ATOM      6  C   UNL     1       0.192  -0.237   8.378  0.00  0.00    +0.093 A 
ATOM      7  O   UNL     1       0.329  -0.027  10.734  0.00  0.00    -0.441 OA
ATOM      8  C   UNL     1       0.746   0.688  11.792  0.00  0.00    +0.199 C 
ATOM      9  C   UNL     1       0.714   2.042  11.799  0.00  0.00    +0.098 C 
ATOM     10  C   UNL     1       0.207   2.818  10.616  0.00  0.00    +0.098 C 
ENDROOT
BRANCH  10  11
ATOM     11  C   UNL     1      -1.182   3.324  10.909  0.00  0.00    -0.031 A 
ATOM     12  C   UNL     1      -2.202   2.428  11.175  0.00  0.00    +0.005 A 
ATOM     13  C   UNL     1      -3.477   2.888  11.444  0.00  0.00    +0.004 A 
ATOM     14  C   UNL     1      -3.736   4.245  11.447  0.00  0.00    +0.045 A 
ATOM     15  C   UNL     1      -2.716   5.146  11.181  0.00  0.00    +0.121 A 
ATOM     16  C   UNL     1      -1.435   4.681  10.917  0.00  0.00    +0.050 A 
BRANCH  15  17
ATOM     17  O   UNL     1      -2.968   6.481  11.184  0.00  0.00    -0.492 OA
BRANCH  17  18
ATOM     18  C   UNL     1      -4.308   6.888  11.469  0.00  0.00    +0.229 C 
BRANCH  18  19
ATOM     19  C   UNL     1      -4.398   8.415  11.427  0.00  0.00    +0.044 C 
BRANCH  19  20
ATOM     20  C   UNL     1      -5.832   8.850  11.733  0.00  0.00    -0.014 C 
ATOM     21  C   UNL     1      -6.187   8.462  13.170  0.00  0.00    +0.007 C 
ATOM     22  C   UNL     1      -5.951  10.366  11.569  0.00  0.00    +0.007 C 
ENDBRANCH  19  20
ENDBRANCH  18  19
ENDBRANCH  17  18
ENDBRANCH  15  17
ENDBRANCH  10  11
BRANCH   8  23
ATOM     23  N   UNL     1       1.217   0.028  12.899  0.00  0.00    -0.328 N 
ATOM     24  H   UNL     1       1.246  -0.942  12.909  0.00  0.00    +0.145 HD
ATOM     25  H   UNL     1       1.522   0.530  13.670  0.00  0.00    +0.145 HD
ENDBRANCH   8  23
BRANCH   9  26
ATOM     26  C   UNL     1       1.173   2.749  12.957  0.00  0.00    +0.101 C 
ATOM     27  N   UNL     1       1.537   3.309  13.875  0.00  0.00    -0.191 NA
ENDBRANCH   9  26
BRANCH   1  28
ATOM     28  O   UNL     1       0.066  -0.431   6.012  0.00  0.00    -0.423 OA
BRANCH  28  29
ATOM     29  C   UNL     1       1.186  -0.531   5.278  0.00  0.00    +0.350 C 
ATOM     30  O   UNL     1       2.156   0.130   5.563  0.00  0.00    -0.247 OA
BRANCH  29  31
ATOM     31  C   UNL     1       1.233  -1.468   4.099  0.00  0.00    +0.349 C 
BRANCH  31  32
ATOM     32  O   UNL     1       2.521  -1.397   3.484  0.00  0.00    -0.481 OA
BRANCH  32  39
ATOM     33  C   UNL     1       5.060  -1.269   2.254  0.00  0.00    +0.047 C 
ATOM     34  C   UNL     1       3.958  -2.166   1.752  0.00  0.00    -0.009 A 
ATOM     35  C   UNL     1       4.171  -2.974   0.652  0.00  0.00    +0.007 A 
ATOM     36  C   UNL     1       3.161  -3.797   0.191  0.00  0.00    +0.000 A 
ATOM     37  C   UNL     1       1.934  -3.814   0.829  0.00  0.00    +0.004 A 
ATOM     38  C   UNL     1       1.716  -3.009   1.930  0.00  0.00    +0.046 A 
ATOM     39  C   UNL     1       2.731  -2.186   2.398  0.00  0.00    +0.124 A 
ENDBRANCH  32  39
ENDBRANCH  31  32
ENDBRANCH  29  31
ENDBRANCH  28  29
ENDBRANCH   1  28
TORSDOF 12
