REMARK  Name = ZINC39362671
REMARK  5 active torsions:
REMARK  status: ('A' for Active; 'I' for Inactive)
REMARK    1  A    between atoms: C_1  and  S_2
REMARK    2  A    between atoms: S_2  and  C_3
REMARK    3  A    between atoms: C_6  and  C_16
REMARK    4  A    between atoms: N_8  and  C_9
REMARK    5  A    between atoms: C_16  and  C_17
REMARK                            x       y       z     vdW  Elec       q    Type
REMARK                         _______ _______ _______ _____ _____    ______ ____
ROOT
ATOM      1  C   UNL     1      -1.723  -0.465  -0.209  0.00  0.00    +0.179 C 
ATOM      2  N   UNL     1      -2.689   0.387  -0.134  0.00  0.00    -0.162 NA
ATOM      3  N   UNL     1      -3.906  -0.242   0.157  0.00  0.00    -0.246 N 
ATOM      4  C   UNL     1      -3.608  -1.681   0.270  0.00  0.00    +0.187 C 
ATOM      5  N   UNL     1      -2.160  -1.763   0.013  0.00  0.00    -0.258 N 
ATOM      6  H   UNL     1      -4.771   0.184   0.264  0.00  0.00    +0.170 HD
ENDROOT
BRANCH   5   7
ATOM      7  C   UNL     1      -1.378  -2.923  -0.001  0.00  0.00    +0.038 A 
ATOM      8  C   UNL     1      -1.567  -3.877  -0.993  0.00  0.00    +0.026 A 
ATOM      9  C   UNL     1      -0.793  -5.021  -1.005  0.00  0.00    +0.040 A 
ATOM     10  C   UNL     1       0.170  -5.217  -0.029  0.00  0.00    +0.124 A 
ATOM     11  C   UNL     1       0.359  -4.268   0.960  0.00  0.00    +0.040 A 
ATOM     12  C   UNL     1      -0.408  -3.119   0.973  0.00  0.00    +0.026 A 
ATOM     13  F   UNL     1       0.924  -6.338  -0.043  0.00  0.00    -0.205 F 
ENDBRANCH   5   7
BRANCH   1  15
ATOM     14  C   UNL     1      -0.095   1.770  -0.750  0.00  0.00    +0.093 C 
ATOM     15  S   UNL     1      -0.051  -0.033  -0.559  0.00  0.00    -0.092 S 
ENDBRANCH   1  15
BRANCH   4  16
ATOM     16  C   UNL     1      -3.942  -2.190   1.673  0.00  0.00    +0.097 C 
BRANCH  16  17
ATOM     17  C   UNL     1      -5.432  -2.118   1.892  0.00  0.00    +0.029 A 
ATOM     18  N   UNL     1      -6.008  -0.951   2.316  0.00  0.00    -0.311 N 
ATOM     19  C   UNL     1      -7.337  -0.876   2.514  0.00  0.00    +0.327 A 
ATOM     20  O   UNL     1      -7.829   0.170   2.890  0.00  0.00    -0.247 OA
ATOM     21  N   UNL     1      -8.130  -1.943   2.300  0.00  0.00    -0.275 N 
ATOM     22  C   UNL     1      -7.600  -3.110   1.882  0.00  0.00    +0.254 A 
ATOM     23  O   UNL     1      -8.317  -4.075   1.688  0.00  0.00    -0.268 OA
ATOM     24  C   UNL     1      -6.204  -3.202   1.665  0.00  0.00    +0.091 A 
ATOM     25  H   UNL     1      -9.086  -1.871   2.447  0.00  0.00    +0.173 HD
ATOM     26  H   UNL     1      -5.454  -0.172   2.475  0.00  0.00    +0.170 HD
ENDBRANCH  16  17
ENDBRANCH   4  16
TORSDOF 4
