REMARK  Name = ZINC12458358
REMARK  7 active torsions:
REMARK  status: ('A' for Active; 'I' for Inactive)
REMARK    1  A    between atoms: C_1  and  C_2
REMARK    2  A    between atoms: C_4  and  O_10
REMARK    3  A    between atoms: C_6  and  C_9
REMARK    4  A    between atoms: O_10  and  C_11
REMARK    5  A    between atoms: C_11  and  C_12
REMARK    6  A    between atoms: C_14  and  C_17
REMARK    7  A    between atoms: N_19  and  C_20
REMARK                            x       y       z     vdW  Elec       q    Type
REMARK                         _______ _______ _______ _____ _____    ______ ____
ROOT
ATOM      1  C   UNL     1      -6.189   2.539   1.694  0.00  0.00    +0.175 A 
ATOM      2  C   UNL     1      -6.802   3.742   1.596  0.00  0.00    +0.084 A 
ATOM      3  C   UNL     1      -8.188   3.424   1.641  0.00  0.00    +0.168 A 
ATOM      4  N   UNL     1      -8.259   2.122   1.757  0.00  0.00    -0.073 NA
ATOM      5  O   UNL     1      -7.160   1.619   1.782  0.00  0.00    -0.355 OA
ENDROOT
BRANCH   3   6
ATOM      6  C   UNL     1      -9.323   4.377   1.570  0.00  0.00    +0.266 C 
ATOM      7  O   UNL     1      -9.111   5.568   1.462  0.00  0.00    -0.268 OA
ATOM      8  N   UNL     1     -10.590   3.920   1.626  0.00  0.00    -0.299 N 
ATOM      9  H   UNL     1     -10.759   2.969   1.712  0.00  0.00    +0.150 HD
BRANCH   8  10
ATOM     10  C   UNL     1     -11.711   4.860   1.556  0.00  0.00    +0.159 C 
ATOM     11  C   UNL     1     -12.999   4.102   1.224  0.00  0.00    +0.032 C 
ATOM     12  C   UNL     1     -12.993   2.726   1.866  0.00  0.00    +0.004 C 
ATOM     13  C   UNL     1     -13.053   2.758   3.383  0.00  0.00    +0.019 C 
ATOM     14  C   UNL     1     -11.772   3.357   3.966  0.00  0.00    +0.104 C 
ATOM     15  N   UNL     1     -11.917   4.821   4.018  0.00  0.00    -0.314 N 
ATOM     16  C   UNL     1     -11.888   5.542   2.897  0.00  0.00    +0.233 C 
ATOM     17  O   UNL     1     -12.003   6.748   2.951  0.00  0.00    -0.274 OA
ATOM     18  H   UNL     1     -12.034   5.263   4.873  0.00  0.00    +0.149 HD
ENDBRANCH   8  10
ENDBRANCH   3   6
BRANCH   1  19
ATOM     19  C   UNL     1      -4.704   2.284   1.699  0.00  0.00    +0.306 C 
BRANCH  19  20
ATOM     20  O   UNL     1      -4.218   2.322   3.042  0.00  0.00    -0.484 OA
BRANCH  20  24
ATOM     21  C   UNL     1       0.176   1.394   1.131  0.00  0.00    +0.045 C 
ATOM     22  C   UNL     1      -0.716   1.654   2.317  0.00  0.00    -0.028 A 
ATOM     23  C   UNL     1      -2.067   1.875   2.131  0.00  0.00    +0.050 A 
ATOM     24  C   UNL     1      -2.888   2.109   3.224  0.00  0.00    +0.122 A 
ATOM     25  C   UNL     1      -2.349   2.132   4.502  0.00  0.00    +0.050 A 
ATOM     26  C   UNL     1      -0.997   1.916   4.684  0.00  0.00    -0.028 A 
ATOM     27  C   UNL     1      -0.180   1.677   3.593  0.00  0.00    +0.047 A 
ATOM     28 CL   UNL     1       1.519   1.406   3.825  0.00  0.00    -0.083 Cl
ATOM     29  C   UNL     1      -0.411   1.940   6.072  0.00  0.00    +0.045 C 
ENDBRANCH  20  24
ENDBRANCH  19  20
ENDBRANCH   1  19
TORSDOF 5
