REMARK  Name = ZINC64370036
REMARK  7 active torsions:
REMARK  status: ('A' for Active; 'I' for Inactive)
REMARK    1  A    between atoms: C_1  and  N_2
REMARK    2  A    between atoms: C_3  and  C_19
REMARK    3  A    between atoms: C_6  and  S_7
REMARK    4  A    between atoms: S_7  and  C_8
REMARK    5  A    between atoms: C_8  and  C_9
REMARK    6  A    between atoms: N_11  and  C_12
REMARK    7  A    between atoms: C_20  and  N_28
REMARK                            x       y       z     vdW  Elec       q    Type
REMARK                         _______ _______ _______ _____ _____    ______ ____
ROOT
ATOM      1  C   UNL     1      -0.022   1.460   0.010  0.00  0.00    +0.153 C 
ATOM      2  N   UNL     1      -0.011  -0.005   0.002  0.00  0.00    -0.305 N 
ATOM      3  C   UNL     1      -0.015  -0.832  -1.100  0.00  0.00    +0.173 A 
ATOM      4  N   UNL     1      -0.001  -2.069  -0.651  0.00  0.00    -0.128 NA
ATOM      5  N   UNL     1       0.011  -2.070   0.633  0.00  0.00    -0.122 NA
ATOM      6  C   UNL     1       0.011  -0.838   1.087  0.00  0.00    +0.192 A 
ENDROOT
BRANCH   3   7
ATOM      7  C   UNL     1      -0.031  -0.413  -2.508  0.00  0.00    +0.080 A 
ATOM      8  C   UNL     1      -0.040  -1.197  -3.621  0.00  0.00    +0.052 A 
ATOM      9  C   UNL     1      -0.057  -0.557  -4.927  0.00  0.00    +0.029 A 
ATOM     10  C   UNL     1      -0.068  -1.157  -6.210  0.00  0.00    +0.014 A 
ATOM     11  C   UNL     1      -0.083  -0.350  -7.324  0.00  0.00    +0.020 A 
ATOM     12  C   UNL     1      -0.086   1.030  -7.190  0.00  0.00    +0.112 A 
ATOM     13  N   UNL     1      -0.075   1.586  -5.993  0.00  0.00    -0.248 NA
ATOM     14  C   UNL     1      -0.061   0.857  -4.899  0.00  0.00    +0.111 A 
ATOM     15  S   UNL     1      -0.050   1.243  -3.166  0.00  0.00    -0.064 S 
BRANCH   8  16
ATOM     16  N   UNL     1      -0.034  -2.593  -3.511  0.00  0.00    -0.356 N 
ATOM     17  H   UNL     1      -0.023  -3.010  -2.635  0.00  0.00    +0.142 HD
ATOM     18  H   UNL     1      -0.041  -3.143  -4.310  0.00  0.00    +0.142 HD
ENDBRANCH   8  16
ENDBRANCH   3   7
BRANCH   6  19
ATOM     19  S   UNL     1       0.032  -0.348   2.780  0.00  0.00    -0.077 S 
BRANCH  19  20
ATOM     20  C   UNL     1       0.058  -1.917   3.690  0.00  0.00    +0.173 C 
BRANCH  20  21
ATOM     21  C   UNL     1       0.077  -1.638   5.171  0.00  0.00    +0.227 C 
ATOM     22  O   UNL     1       0.074  -0.493   5.573  0.00  0.00    -0.275 OA
ATOM     23  N   UNL     1       0.098  -2.660   6.049  0.00  0.00    -0.285 N 
ATOM     24  H   UNL     1       0.033  -3.574   5.731  0.00  0.00    +0.155 HD
BRANCH  23  25
ATOM     25  C   UNL     1       0.214  -2.402   7.421  0.00  0.00    +0.034 A 
ATOM     26  C   UNL     1       0.935  -3.268   8.232  0.00  0.00    +0.026 A 
ATOM     27  C   UNL     1       1.048  -3.012   9.585  0.00  0.00    +0.040 A 
ATOM     28  C   UNL     1       0.442  -1.894  10.132  0.00  0.00    +0.124 A 
ATOM     29  C   UNL     1      -0.277  -1.029   9.324  0.00  0.00    +0.040 A 
ATOM     30  C   UNL     1      -0.388  -1.278   7.970  0.00  0.00    +0.026 A 
ATOM     31  F   UNL     1       0.553  -1.646  11.455  0.00  0.00    -0.205 F 
ENDBRANCH  23  25
ENDBRANCH  20  21
ENDBRANCH  19  20
ENDBRANCH   6  19
TORSDOF 6
