REMARK  Name = ZINC12471910
REMARK  1 active torsions:
REMARK  status: ('A' for Active; 'I' for Inactive)
REMARK    1  A    between atoms: C_1  and  C_2
REMARK                            x       y       z     vdW  Elec       q    Type
REMARK                         _______ _______ _______ _____ _____    ______ ____
ROOT
ATOM      1  C   UNL     1       1.170   3.592   0.010  0.00  0.00    +0.045 C 
ATOM      2  C   UNL     1       1.163   2.085   0.002  0.00  0.00    -0.030 A 
ATOM      3  C   UNL     1      -0.017   1.401   0.010  0.00  0.00    +0.074 A 
ATOM      4  C   UNL     1       0.002  -0.004   0.002  0.00  0.00    +0.249 A 
ATOM      5  O   UNL     1      -1.047  -0.628   0.009  0.00  0.00    -0.268 OA
ATOM      6  N   UNL     1       1.177  -0.662  -0.013  0.00  0.00    -0.328 N 
ATOM      7  H   UNL     1       1.191  -1.762  -0.019  0.00  0.00    +0.168 HD
ATOM      8  C   UNL     1       2.353   0.016  -0.020  0.00  0.00    +0.101 A 
ATOM      9  C   UNL     1       2.370   1.370  -0.013  0.00  0.00    +0.037 A 
ATOM     10 BR   UNL     1       4.018   2.297  -0.022  0.00  0.00    -0.049 Br
ENDROOT
TORSDOF 0
