REMARK  Name = ZINC39590747
REMARK  3 active torsions:
REMARK  status: ('A' for Active; 'I' for Inactive)
REMARK    1  A    between atoms: C_4  and  C_7
REMARK    2  A    between atoms: C_9  and  C_13
REMARK    3  A    between atoms: C_21  and  C_23
REMARK                            x       y       z     vdW  Elec       q    Type
REMARK                         _______ _______ _______ _____ _____    ______ ____
ROOT
ATOM      1  C   UNL     1       5.763  -2.987  -1.332  0.00  0.00    +0.206 C 
ATOM      2  N   UNL     1       5.557  -2.130  -2.523  0.00  0.00    -0.231 NA
ATOM      3  N   UNL     1       6.862  -2.029  -3.199  0.00  0.00    -0.224 NA
ATOM      4  C   UNL     1       7.561  -3.251  -2.752  0.00  0.00    +0.240 C 
ATOM      5  N   UNL     1       7.215  -3.273  -1.293  0.00  0.00    -0.206 N 
ATOM      6  N   UNL     1       8.305  -3.454  -0.468  0.00  0.00    -0.173 NA
ATOM      7  C   UNL     1       9.531  -3.295  -0.872  0.00  0.00    +0.125 C 
ATOM      8  S   UNL     1       9.371  -2.994  -2.660  0.00  0.00    -0.063 S 
ATOM      9  H   UNL     1       4.861  -2.525  -3.138  0.00  0.00    +0.143 HD
ATOM     10  H   UNL     1       6.751  -2.022  -4.201  0.00  0.00    +0.144 HD
ENDROOT
BRANCH   7  11
ATOM     11  C   UNL     1      10.771  -3.354  -0.068  0.00  0.00    +0.008 A 
ATOM     12  C   UNL     1      12.011  -3.151  -0.676  0.00  0.00    +0.010 A 
ATOM     13  C   UNL     1      13.163  -3.207   0.080  0.00  0.00    +0.001 A 
ATOM     14  C   UNL     1      13.092  -3.464   1.438  0.00  0.00    +0.000 A 
ATOM     15  C   UNL     1      11.866  -3.666   2.046  0.00  0.00    +0.001 A 
ATOM     16  C   UNL     1      10.705  -3.607   1.303  0.00  0.00    +0.010 A 
ENDBRANCH   7  11
BRANCH   1  19
ATOM     17  C   UNL     1       3.699  -0.689  -0.037  0.00  0.00    +0.091 C 
ATOM     18  C   UNL     1       3.832  -2.029  -0.051  0.00  0.00    +0.034 C 
ATOM     19  C   UNL     1       5.335  -2.245  -0.065  0.00  0.00    +0.190 C 
ATOM     20  N   UNL     1       5.871  -0.874  -0.056  0.00  0.00    -0.176 NA
ATOM     21  N   UNL     1       4.919  -0.090  -0.047  0.00  0.00    -0.154 NA
BRANCH  17  25
ATOM     22  C   UNL     1      -0.017   1.379   0.010  0.00  0.00    +0.000 A 
ATOM     23  C   UNL     1       1.169   2.092   0.002  0.00  0.00    +0.001 A 
ATOM     24  C   UNL     1       2.377   1.426  -0.013  0.00  0.00    +0.010 A 
ATOM     25  C   UNL     1       2.402   0.033  -0.021  0.00  0.00    +0.002 A 
ATOM     26  C   UNL     1       1.205  -0.680  -0.013  0.00  0.00    +0.010 A 
ATOM     27  C   UNL     1       0.002  -0.004   0.002  0.00  0.00    +0.001 A 
ENDBRANCH  17  25
ENDBRANCH   1  19
TORSDOF 3
