REMARK  Name = ZINC36092917
REMARK  10 active torsions:
REMARK  status: ('A' for Active; 'I' for Inactive)
REMARK    1  A    between atoms: C_1  and  C_2
REMARK    2  A    between atoms: C_7  and  N_12
REMARK    3  A    between atoms: C_9  and  C_11
REMARK    4  A    between atoms: C_13  and  C_15
REMARK    5  A    between atoms: C_15  and  C_16
REMARK    6  A    between atoms: C_16  and  C_17
REMARK    7  A    between atoms: C_17  and  C_18
REMARK    8  A    between atoms: C_18  and  N_19
REMARK    9  A    between atoms: C_26  and  O_32
REMARK   10  A    between atoms: O_32  and  C_33
REMARK                            x       y       z     vdW  Elec       q    Type
REMARK                         _______ _______ _______ _____ _____    ______ ____
ROOT
ATOM      1  N   UNL     1       2.249   0.543  10.858  0.00  0.00    -0.287 N 
ATOM      2  C   UNL     1       1.639  -0.330  11.684  0.00  0.00    +0.279 A 
ATOM      3  O   UNL     1       0.508  -0.713  11.446  0.00  0.00    -0.265 OA
ATOM      4  C   UNL     1       2.326  -0.799  12.833  0.00  0.00    +0.129 A 
ATOM      5  C   UNL     1       3.610  -0.342  13.068  0.00  0.00    +0.079 A 
ATOM      6  C   UNL     1       4.068  -0.981  14.301  0.00  0.00    +0.027 A 
ATOM      7  C   UNL     1       5.256  -0.918  15.036  0.00  0.00    +0.057 A 
ATOM      8  C   UNL     1       5.386  -1.662  16.191  0.00  0.00    +0.121 A 
ATOM      9  C   UNL     1       4.340  -2.473  16.625  0.00  0.00    +0.047 A 
ATOM     10  C   UNL     1       3.166  -2.543  15.911  0.00  0.00    +0.030 A 
ATOM     11  C   UNL     1       3.013  -1.801  14.742  0.00  0.00    +0.049 A 
ATOM     12  N   UNL     1       1.974  -1.677  13.845  0.00  0.00    -0.349 N 
ATOM     13  H   UNL     1       1.122  -2.137  13.912  0.00  0.00    +0.166 HD
ATOM     14  N   UNL     1       4.184   0.555  12.185  0.00  0.00    -0.333 N 
ATOM     15  C   UNL     1       3.500   0.971  11.103  0.00  0.00    +0.161 A 
ATOM     16  S   UNL     1       4.235   2.074  10.019  0.00  0.00    -0.013 S 
ATOM     17  H   UNL     1       5.084   0.881  12.344  0.00  0.00    +0.168 HD
ENDROOT
BRANCH   8  18
ATOM     18  O   UNL     1       6.540  -1.604  16.907  0.00  0.00    -0.495 OA
ATOM     19  C   UNL     1       6.608  -2.399  18.093  0.00  0.00    +0.277 C 
ENDBRANCH   8  18
BRANCH   1  20
ATOM     20  C   UNL     1       1.541   1.028   9.671  0.00  0.00    +0.127 C 
BRANCH  20  21
ATOM     21  C   UNL     1       1.822   0.094   8.492  0.00  0.00    +0.022 C 
BRANCH  21  22
ATOM     22  C   UNL     1       1.082   0.601   7.253  0.00  0.00    +0.011 C 
BRANCH  22  23
ATOM     23  C   UNL     1       1.363  -0.333   6.074  0.00  0.00    +0.096 C 
BRANCH  23  25
ATOM     24  N   UNL     1       0.735  -0.503   3.687  0.00  0.00    -0.312 N 
ATOM     25  C   UNL     1       0.634   0.166   4.853  0.00  0.00    +0.213 C 
ATOM     26  O   UNL     1      -0.044   1.170   4.919  0.00  0.00    -0.276 OA
ATOM     27  H   UNL     1       1.276  -1.306   3.634  0.00  0.00    +0.149 HD
BRANCH  24  33
ATOM     28  C   UNL     1      -0.019   1.526   0.010  0.00  0.00    +0.008 C 
ATOM     29  C   UNL     1       0.002  -0.004   0.002  0.00  0.00    -0.009 C 
ATOM     30  C   UNL     1      -1.433  -0.534   0.013  0.00  0.00    +0.003 C 
ATOM     31  C   UNL     1      -2.149  -0.040   1.272  0.00  0.00    +0.002 C 
ATOM     32  C   UNL     1      -1.409  -0.547   2.511  0.00  0.00    +0.022 C 
ATOM     33  C   UNL     1       0.026  -0.018   2.500  0.00  0.00    +0.076 C 
ATOM     34  C   UNL     1       0.742  -0.511   1.242  0.00  0.00    +0.009 C 
ATOM     35  C   UNL     1       2.178   0.019   1.231  0.00  0.00    +0.009 C 
ENDBRANCH  24  33
ENDBRANCH  23  25
ENDBRANCH  22  23
ENDBRANCH  21  22
ENDBRANCH  20  21
ENDBRANCH   1  20
TORSDOF 7
