REMARK  Name = ZINC04875564
REMARK  9 active torsions:
REMARK  status: ('A' for Active; 'I' for Inactive)
REMARK    1  A    between atoms: C_1  and  C_2
REMARK    2  A    between atoms: C_5  and  C_8
REMARK    3  A    between atoms: C_14  and  C_16
REMARK    4  A    between atoms: C_16  and  C_18
REMARK    5  A    between atoms: C_16  and  N_21
REMARK    6  A    between atoms: C_18  and  C_19
REMARK    7  A    between atoms: C_18  and  C_20
REMARK    8  A    between atoms: C_22  and  C_24
REMARK    9  A    between atoms: C_27  and  C_30
REMARK                            x       y       z     vdW  Elec       q    Type
REMARK                         _______ _______ _______ _____ _____    ______ ____
ROOT
ATOM      1  C   UNL     1      -6.595  -0.651   0.128  0.00  0.00    +0.134 A 
ATOM      2  N   UNL     1      -5.910  -0.645   1.265  0.00  0.00    -0.140 NA
ATOM      3  N   UNL     1      -4.785  -0.076   1.330  0.00  0.00    -0.125 NA
ATOM      4  C   UNL     1      -4.250   0.540   0.288  0.00  0.00    +0.188 A 
ATOM      5  S   UNL     1      -5.474   0.271  -0.918  0.00  0.00    -0.030 S 
ATOM      6  N   UNL     1      -3.039   1.212   0.184  0.00  0.00    -0.262 N 
ATOM      7  C   UNL     1      -2.227   1.306   1.255  0.00  0.00    +0.239 C 
ATOM      8  O   UNL     1      -2.588   0.876   2.330  0.00  0.00    -0.273 OA
ATOM      9  H   UNL     1      -2.779   1.615  -0.659  0.00  0.00    +0.157 HD
ENDROOT
BRANCH   1  14
ATOM     10  C   UNL     1     -11.714  -2.979  -1.090  0.00  0.00    +0.044 C 
ATOM     11  C   UNL     1     -10.373  -2.369  -0.771  0.00  0.00    -0.050 A 
ATOM     12  C   UNL     1      -9.847  -2.490   0.503  0.00  0.00    +0.004 A 
ATOM     13  C   UNL     1      -8.620  -1.935   0.802  0.00  0.00    +0.011 A 
ATOM     14  C   UNL     1      -7.910  -1.249  -0.185  0.00  0.00    +0.009 A 
ATOM     15  C   UNL     1      -8.449  -1.125  -1.466  0.00  0.00    +0.011 A 
ATOM     16  C   UNL     1      -9.674  -1.690  -1.753  0.00  0.00    +0.004 A 
ENDBRANCH   1  14
BRANCH   7  17
ATOM     17  C   UNL     1      -0.869   1.946   1.117  0.00  0.00    +0.162 C 
BRANCH  17  18
ATOM     18  N   UNL     1      -0.375   2.334   2.441  0.00  0.00    -0.300 N 
ATOM     19  C   UNL     1       0.523   3.332   2.559  0.00  0.00    +0.245 C 
ATOM     20  O   UNL     1       0.924   3.909   1.567  0.00  0.00    -0.270 OA
ATOM     21  H   UNL     1      -0.695   1.873   3.232  0.00  0.00    +0.150 HD
BRANCH  19  22
ATOM     22  C   UNL     1       1.022   3.724   3.894  0.00  0.00    +0.037 A 
ATOM     23  C   UNL     1       0.559   3.066   5.036  0.00  0.00    +0.013 A 
ATOM     24  C   UNL     1       1.031   3.434   6.279  0.00  0.00    +0.004 A 
ATOM     25  C   UNL     1       1.954   4.458   6.396  0.00  0.00    -0.050 A 
ATOM     26  C   UNL     1       2.413   5.117   5.269  0.00  0.00    +0.004 A 
ATOM     27  C   UNL     1       1.952   4.756   4.020  0.00  0.00    +0.013 A 
ATOM     28  C   UNL     1       2.461   4.858   7.758  0.00  0.00    +0.044 C 
ENDBRANCH  19  22
ENDBRANCH  17  18
BRANCH  17  29
ATOM     29  C   UNL     1       0.102   0.949   0.483  0.00  0.00    +0.012 C 
ATOM     30  C   UNL     1       0.272  -0.258   1.409  0.00  0.00    +0.009 C 
ATOM     31  C   UNL     1       1.459   1.623   0.271  0.00  0.00    +0.009 C 
ENDBRANCH  17  29
ENDBRANCH   7  17
TORSDOF 5
