REMARK  Name = ZINC05274852
REMARK  7 active torsions:
REMARK  status: ('A' for Active; 'I' for Inactive)
REMARK    1  A    between atoms: C_1  and  O_2
REMARK    2  A    between atoms: O_2  and  C_3
REMARK    3  A    between atoms: C_3  and  C_5
REMARK    4  A    between atoms: C_11  and  C_22
REMARK    5  A    between atoms: C_11  and  O_26
REMARK    6  A    between atoms: C_13  and  C_15
REMARK    7  A    between atoms: C_20  and  O_21
REMARK                            x       y       z     vdW  Elec       q    Type
REMARK                         _______ _______ _______ _____ _____    ______ ____
ROOT
ATOM      1  C   UNL     1       4.012   9.309   0.017  0.00  0.00    +0.157 A 
ATOM      2  C   UNL     1       5.380   9.402   0.005  0.00  0.00    +0.083 A 
ATOM      3  S   UNL     1       5.844   7.728  -0.003  0.00  0.00    -0.058 S 
ATOM      4  C   UNL     1       4.204   7.022   0.001  0.00  0.00    +0.184 A 
ATOM      5  N   UNL     1       3.446   8.100   0.014  0.00  0.00    -0.217 NA
ATOM      6  N   UNL     1       3.828   5.690  -0.004  0.00  0.00    -0.160 N 
ATOM      7  C   UNL     1       4.747   4.541  -0.020  0.00  0.00    +0.256 C 
ATOM      8  C   UNL     1       3.803   3.322  -0.011  0.00  0.00    +0.124 C 
ATOM      9  C   UNL     1       2.420   3.933  -0.000  0.00  0.00    +0.075 C 
ATOM     10  N   UNL     1       2.517   5.218   0.006  0.00  0.00    -0.179 NA
ENDROOT
BRANCH   9  11
ATOM     11  C   UNL     1       1.156   3.175   0.008  0.00  0.00    +0.039 A 
ATOM     12  C   UNL     1       1.174   1.779   0.000  0.00  0.00    +0.013 A 
ATOM     13  C   UNL     1      -0.013   1.076   0.008  0.00  0.00    +0.001 A 
ATOM     14  C   UNL     1      -1.222   1.749   0.017  0.00  0.00    +0.004 A 
ATOM     15  C   UNL     1      -1.254   3.131   0.031  0.00  0.00    +0.046 A 
ATOM     16  C   UNL     1      -0.071   3.852   0.023  0.00  0.00    +0.126 A 
BRANCH  16  17
ATOM     17  O   UNL     1      -0.101   5.210   0.031  0.00  0.00    -0.506 OA
ATOM     18  H   UNL     1      -0.118   5.608  -0.851  0.00  0.00    +0.292 HD
ENDBRANCH  16  17
ENDBRANCH   9  11
BRANCH   7  19
ATOM     19  C   UNL     1       5.608   4.557  -1.285  0.00  0.00    +0.438 C 
ATOM     20  F   UNL     1       6.382   5.722  -1.307  0.00  0.00    -0.166 F 
ATOM     21  F   UNL     1       6.448   3.439  -1.291  0.00  0.00    -0.166 F 
ATOM     22  F   UNL     1       4.780   4.525  -2.412  0.00  0.00    -0.166 F 
ENDBRANCH   7  19
BRANCH   1  23
ATOM     23  C   UNL     1       3.182  10.522   0.032  0.00  0.00    +0.358 C 
ATOM     24  O   UNL     1       3.708  11.619   0.034  0.00  0.00    -0.243 OA
BRANCH  23  26
ATOM     25  C   UNL     1       1.082  11.659   0.058  0.00  0.00    +0.280 C 
ATOM     26  O   UNL     1       1.838  10.419   0.043  0.00  0.00    -0.463 OA
ENDBRANCH  23  26
ENDBRANCH   1  23
BRANCH   7  27
ATOM     27  O   UNL     1       5.571   4.541   1.148  0.00  0.00    -0.363 OA
ATOM     28  H   UNL     1       6.137   5.321   1.230  0.00  0.00    +0.212 HD
ENDBRANCH   7  27
TORSDOF 6
