REMARK  Name = ZINC40493435
REMARK  7 active torsions:
REMARK  status: ('A' for Active; 'I' for Inactive)
REMARK    1  A    between atoms: C_1  and  C_2
REMARK    2  A    between atoms: C_7  and  C_10
REMARK    3  A    between atoms: C_11  and  C_13
REMARK    4  A    between atoms: C_17  and  O_25
REMARK    5  A    between atoms: C_19  and  O_23
REMARK    6  A    between atoms: O_23  and  C_24
REMARK    7  A    between atoms: O_25  and  C_26
REMARK                            x       y       z     vdW  Elec       q    Type
REMARK                         _______ _______ _______ _____ _____    ______ ____
ROOT
ATOM      1  C   UNL     1      -1.921  -4.276  -0.496  0.00  0.00    +0.103 A 
ATOM      2  C   UNL     1      -2.470  -5.201  -1.326  0.00  0.00    +0.041 A 
ATOM      3  C   UNL     1      -2.090  -6.482  -0.857  0.00  0.00    +0.007 A 
ATOM      4  C   UNL     1      -2.353  -7.785  -1.302  0.00  0.00    +0.056 A 
ATOM      5  C   UNL     1      -1.830  -8.861  -0.619  0.00  0.00    +0.124 A 
ATOM      6  C   UNL     1      -1.040  -8.661   0.512  0.00  0.00    +0.093 A 
ATOM      7  C   UNL     1      -0.772  -7.385   0.964  0.00  0.00    +0.147 A 
ATOM      8  C   UNL     1      -1.293  -6.282   0.284  0.00  0.00    +0.089 A 
ATOM      9  N   UNL     1      -1.197  -4.922   0.485  0.00  0.00    -0.348 N 
ATOM     10  H   UNL     1      -0.703  -4.490   1.200  0.00  0.00    +0.166 HD
ENDROOT
BRANCH   1  19
ATOM     11  C   UNL     1      -2.317  -2.344   4.189  0.00  0.00    +0.039 C 
ATOM     12  C   UNL     1      -2.642  -1.912   2.758  0.00  0.00    +0.133 C 
ATOM     13  C   UNL     1      -1.673  -2.595   1.785  0.00  0.00    +0.139 C 
ATOM     14  N   UNL     1      -1.882  -2.023   0.445  0.00  0.00    -0.291 N 
ATOM     15  C   UNL     1      -1.879  -0.558   0.310  0.00  0.00    +0.139 C 
ATOM     16  C   UNL     1      -2.837   0.026   1.355  0.00  0.00    +0.133 C 
ATOM     17  O   UNL     1      -2.502  -0.493   2.644  0.00  0.00    -0.371 OA
ATOM     18  C   UNL     1      -4.274  -0.364   1.004  0.00  0.00    +0.039 C 
ATOM     19  C   UNL     1      -2.069  -2.818  -0.627  0.00  0.00    +0.263 C 
ATOM     20  O   UNL     1      -2.361  -2.330  -1.702  0.00  0.00    -0.268 OA
ENDBRANCH   1  19
BRANCH   7  21
ATOM     21  O   UNL     1       0.000  -7.202   2.068  0.00  0.00    -0.493 OA
ATOM     22  C   UNL     1       0.500  -8.376   2.712  0.00  0.00    +0.277 C 
ENDBRANCH   7  21
BRANCH   5  23
ATOM     23  O   UNL     1      -2.085 -10.125  -1.049  0.00  0.00    -0.495 OA
ATOM     24  C   UNL     1      -1.512 -11.196  -0.296  0.00  0.00    +0.277 C 
ENDBRANCH   5  23
TORSDOF 3
