REMARK  Name = ZINC41135718
REMARK  8 active torsions:
REMARK  status: ('A' for Active; 'I' for Inactive)
REMARK    1  A    between atoms: C_1  and  C_2
REMARK    2  A    between atoms: C_5  and  C_25
REMARK    3  A    between atoms: C_6  and  S_8
REMARK    4  A    between atoms: S_8  and  N_11
REMARK    5  A    between atoms: N_11  and  C_12
REMARK    6  A    between atoms: C_12  and  C_13
REMARK    7  A    between atoms: C_16  and  C_18
REMARK    8  A    between atoms: C_23  and  C_24
REMARK                            x       y       z     vdW  Elec       q    Type
REMARK                         _______ _______ _______ _____ _____    ______ ____
ROOT
ATOM      1  N   UNL     1      -1.393  -3.974   1.939  0.00  0.00    -0.181 NA
ATOM      2  H   UNL     1      -2.169  -4.006   2.521  0.00  0.00    +0.149 HD
ENDROOT
BRANCH   1   3
ATOM      3  S   UNL     1      -0.158  -2.919   2.263  0.00  0.00    +0.059 S 
ATOM      4  O   UNL     1       1.048  -3.663   2.162  0.00  0.00    -0.153 OA
ATOM      5  O   UNL     1      -0.523  -2.216   3.442  0.00  0.00    -0.153 OA
BRANCH   3  11
ATOM      6  C   UNL     1       2.209  -0.602  -1.780  0.00  0.00    +0.044 C 
ATOM      7  C   UNL     1       1.002  -0.708  -0.885  0.00  0.00    -0.049 A 
ATOM      8  C   UNL     1      -0.083   0.126  -1.086  0.00  0.00    +0.004 A 
ATOM      9  C   UNL     1      -1.190   0.029  -0.265  0.00  0.00    +0.005 A 
ATOM     10  C   UNL     1      -1.213  -0.901   0.758  0.00  0.00    -0.024 A 
ATOM     11  C   UNL     1      -0.129  -1.734   0.959  0.00  0.00    +0.108 A 
ATOM     12  C   UNL     1       0.977  -1.641   0.135  0.00  0.00    +0.032 A 
ATOM     13  C   UNL     1      -2.420  -1.005   1.655  0.00  0.00    +0.046 C 
ENDBRANCH   3  11
ENDBRANCH   1   3
BRANCH   1  14
ATOM     14  C   UNL     1      -1.315  -4.857   0.773  0.00  0.00    +0.203 C 
BRANCH  14  15
ATOM     15  C   UNL     1      -2.365  -5.933   0.887  0.00  0.00    +0.233 A 
ATOM     16  N   UNL     1      -3.584  -5.871   0.429  0.00  0.00    -0.111 NA
ATOM     17  N   UNL     1      -4.202  -6.966   0.702  0.00  0.00    -0.107 NA
ATOM     18  C   UNL     1      -3.392  -7.770   1.349  0.00  0.00    +0.249 A 
ATOM     19  O   UNL     1      -2.211  -7.132   1.473  0.00  0.00    -0.419 OA
BRANCH  18  20
ATOM     20  C   UNL     1      -3.713  -9.126   1.844  0.00  0.00    +0.041 A 
ATOM     21  C   UNL     1      -2.748  -9.870   2.526  0.00  0.00    +0.013 A 
ATOM     22  C   UNL     1      -3.054 -11.134   2.985  0.00  0.00    +0.001 A 
ATOM     23  C   UNL     1      -4.314 -11.665   2.772  0.00  0.00    +0.000 A 
ATOM     24  C   UNL     1      -5.274 -10.933   2.097  0.00  0.00    +0.004 A 
ATOM     25  C   UNL     1      -4.983  -9.665   1.638  0.00  0.00    -0.038 A 
ATOM     26  C   UNL     1      -6.033  -8.866   0.909  0.00  0.00    +0.044 C 
ENDBRANCH  18  20
ENDBRANCH  14  15
ENDBRANCH   1  14
TORSDOF 5
