REMARK  Name = ZINC23468938
REMARK  5 active torsions:
REMARK  status: ('A' for Active; 'I' for Inactive)
REMARK    1  A    between atoms: C_4  and  C_7
REMARK    2  A    between atoms: C_7  and  C_8
REMARK    3  A    between atoms: C_7  and  N_14
REMARK    4  A    between atoms: N_17  and  C_20
REMARK    5  A    between atoms: N_29  and  O_30
REMARK                            x       y       z     vdW  Elec       q    Type
REMARK                         _______ _______ _______ _____ _____    ______ ____
ROOT
ATOM      1  N   UNL     1       3.854  -1.954  -0.747  0.00  0.00    -0.295 NA
ATOM      2  C   UNL     1       2.866  -2.945  -0.296  0.00  0.00    +0.067 C 
ATOM      3  C   UNL     1       3.017  -4.224  -1.123  0.00  0.00    -0.062 C 
ATOM      4  N   UNL     1       4.377  -4.754  -0.960  0.00  0.00    +0.387 N 
ATOM      5  C   UNL     1       5.351  -3.764  -1.437  0.00  0.00    -0.062 C 
ATOM      6  C   UNL     1       5.219  -2.481  -0.613  0.00  0.00    +0.067 C 
ATOM      7  H   UNL     1       4.547  -4.950   0.015  0.00  0.00    -0.081 HD
ENDROOT
BRANCH   4   8
ATOM      8  C   UNL     1       4.516  -5.992  -1.740  0.00  0.00    -0.019 C 
ATOM      9  C   UNL     1       3.539  -7.050  -1.181  0.00  0.00    -0.005 C 
ATOM     10  C   UNL     1       3.333  -8.172  -2.253  0.00  0.00    +0.025 C 
ATOM     11  C   UNL     1       4.770  -8.534  -2.537  0.00  0.00    -0.031 C 
ATOM     12  C   UNL     1       5.399  -8.105  -3.548  0.00  0.00    -0.031 C 
ATOM     13  C   UNL     1       6.887  -7.852  -3.491  0.00  0.00    +0.033 C 
ATOM     14  C   UNL     1       6.842  -6.417  -2.906  0.00  0.00    +0.056 C 
ATOM     15  C   UNL     1       5.945  -6.458  -1.669  0.00  0.00    +0.044 C 
ATOM     16  N   UNL     1       6.414  -6.892  -0.561  0.00  0.00    -0.098 NA
BRANCH  16  17
ATOM     17  O   UNL     1       7.757  -7.333  -0.484  0.00  0.00    -0.409 OA
ATOM     18  H   UNL     1       8.020  -7.643   0.393  0.00  0.00    +0.328 HD
ENDBRANCH  16  17
ENDBRANCH   4   8
BRANCH   1  19
ATOM     19  C   UNL     1       3.703  -0.690  -0.014  0.00  0.00    +0.117 C 
BRANCH  19  23
ATOM     20  C   UNL     1       6.386   2.217  -1.628  0.00  0.00    +0.000 A 
ATOM     21  C   UNL     1       6.244   2.092  -0.258  0.00  0.00    +0.000 A 
ATOM     22  C   UNL     1       5.376   1.151   0.264  0.00  0.00    +0.005 A 
ATOM     23  C   UNL     1       4.649   0.336  -0.583  0.00  0.00    -0.026 A 
ATOM     24  C   UNL     1       4.790   0.462  -1.953  0.00  0.00    +0.005 A 
ATOM     25  C   UNL     1       5.659   1.401  -2.475  0.00  0.00    +0.000 A 
ENDBRANCH  19  23
BRANCH  19  26
ATOM     26  C   UNL     1       2.286  -0.196  -0.149  0.00  0.00    -0.026 A 
ATOM     27  C   UNL     1       1.648  -0.254  -1.374  0.00  0.00    +0.005 A 
ATOM     28  C   UNL     1       0.348   0.199  -1.499  0.00  0.00    +0.000 A 
ATOM     29  C   UNL     1      -0.315   0.709  -0.398  0.00  0.00    +0.000 A 
ATOM     30  C   UNL     1       0.323   0.765   0.828  0.00  0.00    +0.000 A 
ATOM     31  C   UNL     1       1.621   0.308   0.953  0.00  0.00    +0.005 A 
ENDBRANCH  19  26
ENDBRANCH   1  19
TORSDOF 5
