REMARK  Name = ZINC38796724
REMARK  7 active torsions:
REMARK  status: ('A' for Active; 'I' for Inactive)
REMARK    1  A    between atoms: C_4  and  N_7
REMARK    2  A    between atoms: C_10  and  C_13
REMARK    3  A    between atoms: C_13  and  S_14
REMARK    4  A    between atoms: S_14  and  C_15
REMARK    5  A    between atoms: C_19  and  C_28
REMARK    6  A    between atoms: N_20  and  C_21
REMARK    7  A    between atoms: C_21  and  C_22
REMARK                            x       y       z     vdW  Elec       q    Type
REMARK                         _______ _______ _______ _____ _____    ______ ____
ROOT
ATOM      1  C   UNL     1       7.350  -6.643   2.113  0.00  0.00    +0.237 C 
ATOM      2  N   UNL     1       8.543  -6.038   1.498  0.00  0.00    -0.237 N 
ATOM      3  N   UNL     1       8.820  -6.786   0.348  0.00  0.00    -0.169 NA
ATOM      4  C   UNL     1       7.957  -7.754   0.192  0.00  0.00    +0.147 C 
ATOM      5  N   UNL     1       7.007  -7.762   1.221  0.00  0.00    -0.283 N 
ATOM      6  H   UNL     1       9.039  -5.271   1.826  0.00  0.00    +0.171 HD
ENDROOT
BRANCH   4   7
ATOM      7  C   UNL     1       7.979  -8.670  -0.871  0.00  0.00    +0.022 C 
ATOM      8  C   UNL     1       8.953  -8.788  -1.863  0.00  0.00    +0.006 A 
ATOM      9  C   UNL     1      10.151  -8.084  -2.111  0.00  0.00    +0.010 A 
ATOM     10  C   UNL     1      10.923  -8.423  -3.175  0.00  0.00    +0.001 A 
ATOM     11  C   UNL     1      10.563  -9.459  -4.040  0.00  0.00    +0.002 A 
ATOM     12  C   UNL     1       9.427 -10.177  -3.861  0.00  0.00    +0.026 A 
ATOM     13  C   UNL     1       8.569  -9.881  -2.771  0.00  0.00    +0.043 A 
ATOM     14  N   UNL     1       7.430 -10.422  -2.385  0.00  0.00    -0.380 N 
ATOM     15  C   UNL     1       6.954  -9.740  -1.178  0.00  0.00    +0.152 C 
ATOM     16  H   UNL     1       6.980 -11.158  -2.828  0.00  0.00    +0.160 HD
ENDBRANCH   4   7
BRANCH   1  17
ATOM     17  S   UNL     1       5.991  -5.443   2.176  0.00  0.00    -0.112 S 
BRANCH  17  18
ATOM     18  C   UNL     1       5.709  -5.007   0.438  0.00  0.00    +0.128 C 
BRANCH  18  22
ATOM     19  N   UNL     1       3.556  -0.610   0.180  0.00  0.00    -0.294 N 
ATOM     20  C   UNL     1       3.594  -1.996   0.219  0.00  0.00    +0.163 A 
ATOM     21  N   UNL     1       4.645  -2.783   0.309  0.00  0.00    -0.229 NA
ATOM     22  C   UNL     1       4.512  -4.097   0.336  0.00  0.00    +0.060 A 
ATOM     23  C   UNL     1       3.252  -4.590   0.267  0.00  0.00    +0.072 A 
ATOM     24  S   UNL     1       2.307  -3.079   0.171  0.00  0.00    -0.060 S 
ATOM     25  H   UNL     1       4.382  -0.103   0.133  0.00  0.00    +0.154 HD
BRANCH  19  29
ATOM     26  C   UNL     1      -0.103   1.376   0.261  0.00  0.00    +0.000 A 
ATOM     27  C   UNL     1       0.055   0.192   0.958  0.00  0.00    +0.002 A 
ATOM     28  C   UNL     1       1.267  -0.469   0.933  0.00  0.00    +0.023 A 
ATOM     29  C   UNL     1       2.328   0.057   0.207  0.00  0.00    +0.033 A 
ATOM     30  C   UNL     1       2.166   1.246  -0.492  0.00  0.00    +0.023 A 
ATOM     31  C   UNL     1       0.951   1.902  -0.463  0.00  0.00    +0.002 A 
ENDBRANCH  19  29
ENDBRANCH  18  22
ENDBRANCH  17  18
ENDBRANCH   1  17
BRANCH   5  32
ATOM     32  C   UNL     1       5.891  -8.699   1.379  0.00  0.00    +0.140 C 
BRANCH  32  33
ATOM     33  C   UNL     1       6.304  -9.828   2.325  0.00  0.00    +0.136 C 
ATOM     34  C   UNL     1       5.181 -10.892   2.414  0.00  0.00    +0.035 C 
ATOM     35  C   UNL     1       5.997 -12.148   2.826  0.00  0.00    +0.031 C 
ATOM     36  C   UNL     1       7.335 -11.927   2.088  0.00  0.00    +0.160 C 
ATOM     37  O   UNL     1       7.444 -10.527   1.800  0.00  0.00    -0.375 OA
ENDBRANCH  32  33
ENDBRANCH   5  32
TORSDOF 7
