REMARK  Name = ZINC02780777
REMARK  8 active torsions:
REMARK  status: ('A' for Active; 'I' for Inactive)
REMARK    1  A    between atoms: C_1  and  C_2
REMARK    2  A    between atoms: C_3  and  C_23
REMARK    3  A    between atoms: C_5  and  N_10
REMARK    4  A    between atoms: C_6  and  C_7
REMARK    5  A    between atoms: C_11  and  C_13
REMARK    6  A    between atoms: C_13  and  C_15
REMARK    7  A    between atoms: C_13  and  N_16
REMARK    8  A    between atoms: C_17  and  C_22
REMARK                            x       y       z     vdW  Elec       q    Type
REMARK                         _______ _______ _______ _____ _____    ______ ____
ROOT
ATOM      1  N   UNL     1      -2.648   0.718   2.505  0.00  0.00    -0.278 N 
ATOM      2  C   UNL     1      -3.386   0.265   3.538  0.00  0.00    +0.242 C 
ATOM      3  O   UNL     1      -4.414  -0.344   3.328  0.00  0.00    -0.273 OA
ATOM      4  H   UNL     1      -1.826   1.205   2.673  0.00  0.00    +0.155 HD
ENDROOT
BRANCH   1   9
ATOM      5  C   UNL     1      -2.523   0.849  -2.554  0.00  0.00    +0.045 C 
ATOM      6  C   UNL     1      -3.103   0.493  -1.210  0.00  0.00    -0.027 A 
ATOM      7  C   UNL     1      -4.255  -0.194  -1.103  0.00  0.00    -0.008 A 
ATOM      8  S   UNL     1      -4.482  -0.344   0.657  0.00  0.00    -0.078 S 
ATOM      9  C   UNL     1      -3.065   0.489   1.203  0.00  0.00    +0.084 A 
ATOM     10  C   UNL     1      -2.447   0.874   0.018  0.00  0.00    +0.068 A 
ATOM     11  C   UNL     1      -5.140  -0.713  -2.207  0.00  0.00    +0.052 C 
BRANCH  10  12
ATOM     12  C   UNL     1      -1.187   1.624   0.017  0.00  0.00    +0.244 C 
ATOM     13  O   UNL     1      -1.204   2.841   0.023  0.00  0.00    -0.270 OA
ATOM     14  N   UNL     1      -0.011   0.966   0.007  0.00  0.00    -0.325 N 
ATOM     15  H   UNL     1       0.002  -0.004   0.002  0.00  0.00    +0.145 HD
ATOM     16  H   UNL     1       0.822   1.462   0.002  0.00  0.00    +0.145 HD
ENDBRANCH  10  12
ENDBRANCH   1   9
BRANCH   2  17
ATOM     17  C   UNL     1      -2.933   0.514   4.954  0.00  0.00    +0.190 C 
ATOM     18  C   UNL     1      -2.838   2.021   5.201  0.00  0.00    +0.042 C 
BRANCH  17  19
ATOM     19  N   UNL     1      -3.899  -0.074   5.886  0.00  0.00    -0.256 N 
ATOM     20  C   UNL     1      -3.638  -1.032   6.801  0.00  0.00    +0.051 A 
ATOM     21  C   UNL     1      -4.790  -1.298   7.459  0.00  0.00    +0.058 A 
ATOM     22  C   UNL     1      -5.789  -0.475   6.928  0.00  0.00    +0.150 A 
ATOM     23  N   UNL     1      -5.255   0.263   5.989  0.00  0.00    -0.178 NA
ATOM     24 BR   UNL     1      -5.011  -2.560   8.851  0.00  0.00    -0.047 Br
ATOM     25  C   UNL     1      -2.303  -1.687   7.045  0.00  0.00    +0.066 C 
ENDBRANCH  17  19
ENDBRANCH   2  17
TORSDOF 4
