REMARK  Name = ZINC66696574
REMARK  11 active torsions:
REMARK  status: ('A' for Active; 'I' for Inactive)
REMARK    1  A    between atoms: C_1  and  C_2
REMARK    2  A    between atoms: C_3  and  N_9
REMARK    3  A    between atoms: C_4  and  C_8
REMARK    4  A    between atoms: N_5  and  C_7
REMARK    5  A    between atoms: C_10  and  C_12
REMARK    6  A    between atoms: C_12  and  C_14
REMARK    7  A    between atoms: C_12  and  N_15
REMARK    8  A    between atoms: N_15  and  C_16
REMARK    9  A    between atoms: C_17  and  C_29
REMARK   10  A    between atoms: N_18  and  C_28
REMARK   11  A    between atoms: N_19  and  C_22
REMARK                            x       y       z     vdW  Elec       q    Type
REMARK                         _______ _______ _______ _____ _____    ______ ____
ROOT
ATOM      1  N   UNL     1       0.613   2.933  -4.329  0.00  0.00    -0.327 N 
ATOM      2  H   UNL     1       1.266   3.351  -3.747  0.00  0.00    +0.147 HD
ENDROOT
BRANCH   1   3
ATOM      3  C   UNL     1      -0.086   3.710  -5.278  0.00  0.00    +0.116 A 
ATOM      4  C   UNL     1       0.062   5.037  -5.480  0.00  0.00    +0.059 A 
ATOM      5  N   UNL     1      -0.792   5.418  -6.486  0.00  0.00    -0.282 N 
ATOM      6  N   UNL     1      -1.492   4.284  -6.918  0.00  0.00    -0.216 N 
ATOM      7  C   UNL     1      -1.063   3.233  -6.189  0.00  0.00    +0.293 A 
ATOM      8  O   UNL     1      -1.447   2.082  -6.293  0.00  0.00    -0.264 OA
ATOM      9  C   UNL     1      -0.946   6.776  -7.015  0.00  0.00    +0.171 C 
ATOM     10  C   UNL     1       1.004   5.944  -4.731  0.00  0.00    +0.067 C 
BRANCH   6  11
ATOM     11  C   UNL     1      -2.458   4.246  -7.927  0.00  0.00    +0.067 A 
ATOM     12  C   UNL     1      -3.606   3.482  -7.764  0.00  0.00    +0.028 A 
ATOM     13  C   UNL     1      -4.559   3.447  -8.763  0.00  0.00    +0.002 A 
ATOM     14  C   UNL     1      -4.371   4.172  -9.925  0.00  0.00    +0.000 A 
ATOM     15  C   UNL     1      -3.229   4.934 -10.091  0.00  0.00    +0.002 A 
ATOM     16  C   UNL     1      -2.276   4.978  -9.094  0.00  0.00    +0.028 A 
ENDBRANCH   6  11
ENDBRANCH   1   3
BRANCH   1  17
ATOM     17  C   UNL     1       0.351   1.495  -4.225  0.00  0.00    +0.154 C 
ATOM     18  C   UNL     1       1.205   0.746  -5.250  0.00  0.00    +0.038 C 
BRANCH  17  20
ATOM     19  N   UNL     1       0.540  -0.277  -2.510  0.00  0.00    -0.281 N 
ATOM     20  C   UNL     1       0.700   1.021  -2.838  0.00  0.00    +0.237 C 
ATOM     21  O   UNL     1       1.125   1.806  -2.017  0.00  0.00    -0.273 OA
ATOM     22  H   UNL     1       0.252  -0.915  -3.181  0.00  0.00    +0.155 HD
BRANCH  19  25
ATOM     23  C   UNL     1      -0.004   1.433   0.037  0.00  0.00    +0.069 C 
ATOM     24  C   UNL     1       0.558   0.036  -0.025  0.00  0.00    +0.081 A 
ATOM     25  C   UNL     1       0.790  -0.705  -1.193  0.00  0.00    +0.077 A 
ATOM     26  C   UNL     1       1.300  -1.909  -0.827  0.00  0.00    +0.057 A 
ATOM     27  N   UNL     1       1.384  -1.924   0.529  0.00  0.00    -0.270 N 
ATOM     28  N   UNL     1       0.918  -0.691   1.002  0.00  0.00    -0.175 NA
ATOM     29  C   UNL     1       1.880  -3.031   1.350  0.00  0.00    +0.172 C 
ATOM     30  C   UNL     1       1.698  -3.027  -1.756  0.00  0.00    +0.067 C 
ENDBRANCH  19  25
ENDBRANCH  17  20
ENDBRANCH   1  17
TORSDOF 5
