REMARK  Name = ZINC14267411
REMARK  9 active torsions:
REMARK  status: ('A' for Active; 'I' for Inactive)
REMARK    1  A    between atoms: C_1  and  C_2
REMARK    2  A    between atoms: C_2  and  C_3
REMARK    3  A    between atoms: C_3  and  C_24
REMARK    4  A    between atoms: N_6  and  C_10
REMARK    5  A    between atoms: C_10  and  C_11
REMARK    6  A    between atoms: N_13  and  C_14
REMARK    7  A    between atoms: C_14  and  C_16
REMARK    8  A    between atoms: C_14  and  C_17
REMARK    9  A    between atoms: C_24  and  C_25
REMARK                            x       y       z     vdW  Elec       q    Type
REMARK                         _______ _______ _______ _____ _____    ______ ____
ROOT
ATOM      1  C   UNL     1       3.442   1.474  -2.834  0.00  0.00    +0.213 C 
ENDROOT
BRANCH   1   5
ATOM      2  C   UNL     1       0.718  -0.497  -1.257  0.00  0.00    +0.112 C 
ATOM      3  C   UNL     1       2.144   0.016  -1.295  0.00  0.00    +0.247 C 
ATOM      4  O   UNL     1       3.025  -0.210  -0.494  0.00  0.00    -0.273 OA
ATOM      5  N   UNL     1       2.228   0.775  -2.405  0.00  0.00    -0.215 N 
ATOM      6  C   UNL     1       1.066   0.812  -3.067  0.00  0.00    +0.310 C 
ATOM      7  O   UNL     1       0.895   1.432  -4.099  0.00  0.00    -0.252 OA
ATOM      8  N   UNL     1       0.107   0.087  -2.463  0.00  0.00    -0.285 N 
ATOM      9  H   UNL     1      -0.807  -0.029  -2.764  0.00  0.00    +0.151 HD
BRANCH   2  11
ATOM     10  C   UNL     1      -0.019   1.526   0.010  0.00  0.00    +0.006 C 
ATOM     11  C   UNL     1       0.002  -0.004   0.002  0.00  0.00    +0.032 C 
ENDBRANCH   2  11
BRANCH   2  12
ATOM     12  C   UNL     1       0.691  -2.026  -1.326  0.00  0.00    +0.032 C 
ATOM     13  C   UNL     1       1.412  -2.492  -2.592  0.00  0.00    +0.006 C 
ENDBRANCH   2  12
ENDBRANCH   1   5
BRANCH   1  14
ATOM     14  C   UNL     1       4.250   0.572  -3.732  0.00  0.00    +0.231 C 
ATOM     15  O   UNL     1       3.851  -0.544  -3.988  0.00  0.00    -0.274 OA
ATOM     16  N   UNL     1       5.416   1.006  -4.250  0.00  0.00    -0.307 N 
ATOM     17  H   UNL     1       5.735   1.899  -4.045  0.00  0.00    +0.149 HD
BRANCH  16  18
ATOM     18  C   UNL     1       6.202   0.130  -5.123  0.00  0.00    +0.100 C 
ATOM     19  C   UNL     1       5.688   0.247  -6.559  0.00  0.00    +0.033 C 
BRANCH  18  20
ATOM     20  C   UNL     1       7.651   0.539  -5.072  0.00  0.00    -0.027 A 
ATOM     21  C   UNL     1       7.990   1.878  -5.041  0.00  0.00    +0.007 A 
ATOM     22  C   UNL     1       9.320   2.254  -4.995  0.00  0.00    +0.020 A 
ATOM     23  C   UNL     1      10.311   1.289  -4.979  0.00  0.00    +0.041 A 
ATOM     24  C   UNL     1       9.971  -0.052  -5.010  0.00  0.00    +0.020 A 
ATOM     25  C   UNL     1       8.641  -0.426  -5.051  0.00  0.00    +0.007 A 
ATOM     26 CL   UNL     1      11.981   1.760  -4.921  0.00  0.00    -0.084 Cl
ENDBRANCH  18  20
ENDBRANCH  16  18
ENDBRANCH   1  14
TORSDOF 6
