REMARK  Name = ZINC21230649
REMARK  8 active torsions:
REMARK  status: ('A' for Active; 'I' for Inactive)
REMARK    1  A    between atoms: C_1  and  C_2
REMARK    2  A    between atoms: C_2  and  N_3
REMARK    3  A    between atoms: C_13  and  S_14
REMARK    4  A    between atoms: S_14  and  C_15
REMARK    5  A    between atoms: C_15  and  C_17
REMARK    6  A    between atoms: C_15  and  C_20
REMARK    7  A    between atoms: C_17  and  C_18
REMARK    8  A    between atoms: C_17  and  C_19
REMARK                            x       y       z     vdW  Elec       q    Type
REMARK                         _______ _______ _______ _____ _____    ______ ____
ROOT
ATOM      1  S   UNL     1      -0.886   1.324   1.722  0.00  0.00    -0.075 S 
ENDROOT
BRANCH   1  12
ATOM      2  N   UNL     1      -3.059  -0.119   2.397  0.00  0.00    -0.288 N 
ATOM      3  C   UNL     1      -4.012  -1.065   2.225  0.00  0.00    +0.262 A 
ATOM      4  O   UNL     1      -4.874  -1.253   3.064  0.00  0.00    -0.267 OA
ATOM      5  C   UNL     1      -3.968  -1.855   0.987  0.00  0.00    +0.065 A 
ATOM      6  C   UNL     1      -4.904  -2.852   0.716  0.00  0.00    +0.015 A 
ATOM      7  C   UNL     1      -4.817  -3.558  -0.452  0.00  0.00    +0.001 A 
ATOM      8  C   UNL     1      -3.808  -3.292  -1.369  0.00  0.00    +0.002 A 
ATOM      9  C   UNL     1      -2.878  -2.321  -1.128  0.00  0.00    +0.028 A 
ATOM     10  C   UNL     1      -2.940  -1.581   0.057  0.00  0.00    +0.079 A 
ATOM     11  N   UNL     1      -2.045  -0.611   0.332  0.00  0.00    -0.223 NA
ATOM     12  C   UNL     1      -2.101   0.079   1.445  0.00  0.00    +0.173 A 
BRANCH   2  14
ATOM     13  C   UNL     1      -3.902   1.953   3.386  0.00  0.00    +0.027 C 
ATOM     14  C   UNL     1      -3.057   0.698   3.613  0.00  0.00    +0.124 C 
ENDBRANCH   2  14
ENDBRANCH   1  12
BRANCH   1  15
ATOM     15  C   UNL     1       0.113   1.128   0.225  0.00  0.00    +0.143 C 
BRANCH  15  16
ATOM     16  C   UNL     1       1.393   1.910   0.369  0.00  0.00    +0.234 C 
ATOM     17  O   UNL     1       1.467   2.807   1.182  0.00  0.00    -0.274 OA
ATOM     18  N   UNL     1       2.455   1.613  -0.405  0.00  0.00    -0.239 N 
ATOM     19  C   UNL     1       3.600   2.312  -0.276  0.00  0.00    +0.303 C 
ATOM     20  O   UNL     1       3.675   3.211   0.539  0.00  0.00    -0.253 OA
ATOM     21  N   UNL     1       4.663   2.015  -1.050  0.00  0.00    -0.313 N 
ATOM     22  H   UNL     1       2.388   0.799  -1.142  0.00  0.00    +0.159 HD
ATOM     23  H   UNL     1       5.597   2.586  -0.945  0.00  0.00    +0.146 HD
ATOM     24  H   UNL     1       4.595   1.201  -1.787  0.00  0.00    +0.146 HD
ENDBRANCH  15  16
BRANCH  15  25
ATOM     25  C   UNL     1      -0.669   1.649  -0.982  0.00  0.00    +0.005 C 
ATOM     26  C   UNL     1      -0.855   3.162  -0.855  0.00  0.00    +0.009 C 
ATOM     27  C   UNL     1       0.104   1.335  -2.264  0.00  0.00    +0.009 C 
ENDBRANCH  15  25
ENDBRANCH   1  15
TORSDOF 5
