REMARK  Name = ZINC66583043
REMARK  9 active torsions:
REMARK  status: ('A' for Active; 'I' for Inactive)
REMARK    1  A    between atoms: C_1  and  C_2
REMARK    2  A    between atoms: C_2  and  C_4
REMARK    3  A    between atoms: C_2  and  N_17
REMARK    4  A    between atoms: N_9  and  C_10
REMARK    5  A    between atoms: C_10  and  C_11
REMARK    6  A    between atoms: N_17  and  C_18
REMARK    7  A    between atoms: C_22  and  N_24
REMARK    8  A    between atoms: C_25  and  C_27
REMARK    9  A    between atoms: C_27  and  O_28
REMARK                            x       y       z     vdW  Elec       q    Type
REMARK                         _______ _______ _______ _____ _____    ______ ____
ROOT
ATOM      1  C   UNL     1       0.057   1.205  -0.164  0.00  0.00    +0.038 C 
ATOM      2  C   UNL     1      -0.106  -0.313  -0.065  0.00  0.00    +0.154 C 
ENDROOT
BRANCH   2   3
ATOM      3  C   UNL     1       0.469  -0.961  -1.299  0.00  0.00    +0.240 C 
ATOM      4  O   UNL     1       1.380  -1.755  -1.198  0.00  0.00    -0.273 OA
ATOM      5  N   UNL     1      -0.030  -0.658  -2.513  0.00  0.00    -0.239 N 
ATOM      6  C   UNL     1       0.483  -1.238  -3.616  0.00  0.00    +0.306 C 
ATOM      7  O   UNL     1       1.397  -2.033  -3.516  0.00  0.00    -0.252 OA
ATOM      8  N   UNL     1      -0.016  -0.935  -4.831  0.00  0.00    -0.297 N 
ATOM      9  H   UNL     1      -0.759  -0.023  -2.594  0.00  0.00    +0.159 HD
ATOM     10  H   UNL     1      -0.745  -0.300  -4.912  0.00  0.00    +0.150 HD
BRANCH   8  11
ATOM     11  C   UNL     1       0.542  -1.564  -6.030  0.00  0.00    +0.137 C 
BRANCH  11  12
ATOM     12  C   UNL     1      -0.197  -1.051  -7.267  0.00  0.00    +0.135 C 
ATOM     13  C   UNL     1       0.355  -1.732  -8.545  0.00  0.00    +0.035 C 
ATOM     14  C   UNL     1      -0.866  -1.606  -9.497  0.00  0.00    +0.031 C 
ATOM     15  C   UNL     1      -2.056  -1.748  -8.524  0.00  0.00    +0.160 C 
ATOM     16  O   UNL     1      -1.583  -1.425  -7.210  0.00  0.00    -0.375 OA
ENDBRANCH  11  12
ENDBRANCH   8  11
ENDBRANCH   2   3
BRANCH   2  17
ATOM     17  N   UNL     1       0.603  -0.804   1.119  0.00  0.00    -0.333 N 
ATOM     18  H   UNL     1       1.510  -1.139   1.038  0.00  0.00    +0.147 HD
BRANCH  17  19
ATOM     19  C   UNL     1      -0.027  -0.790   2.366  0.00  0.00    +0.029 A 
ATOM     20  C   UNL     1      -1.328  -0.316   2.482  0.00  0.00    +0.023 A 
ATOM     21  C   UNL     1      -1.952  -0.302   3.715  0.00  0.00    +0.004 A 
ATOM     22  C   UNL     1      -1.285  -0.759   4.835  0.00  0.00    +0.023 A 
ATOM     23  C   UNL     1       0.015  -1.234   4.726  0.00  0.00    +0.035 A 
ATOM     24  C   UNL     1       0.643  -1.256   3.488  0.00  0.00    +0.046 A 
BRANCH  23  25
ATOM     25  N   UNL     1       0.690  -1.697   5.861  0.00  0.00    -0.284 N 
ATOM     26  C   UNL     1       0.007  -2.311   6.847  0.00  0.00    +0.243 C 
ATOM     27  O   UNL     1      -1.174  -2.549   6.710  0.00  0.00    -0.273 OA
ATOM     28  H   UNL     1       1.649  -1.575   5.938  0.00  0.00    +0.155 HD
BRANCH  26  29
ATOM     29  C   UNL     1       0.711  -2.703   8.121  0.00  0.00    +0.251 C 
BRANCH  29  30
ATOM     30  O   UNL     1      -0.218  -3.333   9.004  0.00  0.00    -0.386 OA
ATOM     31  H   UNL     1       0.167  -3.612   9.846  0.00  0.00    +0.210 HD
ENDBRANCH  29  30
ENDBRANCH  26  29
ENDBRANCH  23  25
ENDBRANCH  17  19
ENDBRANCH   2  17
TORSDOF 8
