REMARK  Name = ZINC14703137
REMARK  5 active torsions:
REMARK  status: ('A' for Active; 'I' for Inactive)
REMARK    1  A    between atoms: C_1  and  C_2
REMARK    2  A    between atoms: C_11  and  C_12
REMARK    3  A    between atoms: C_11  and  N_48
REMARK    4  A    between atoms: C_21  and  S_23
REMARK    5  A    between atoms: S_23  and  N_26
REMARK                            x       y       z     vdW  Elec       q    Type
REMARK                         _______ _______ _______ _____ _____    ______ ____
ROOT
ATOM      1  C   UNL     1      -3.906   2.634   5.575  0.00  0.00    +0.203 C 
ATOM      2  O   UNL     1      -4.280   1.513   5.301  0.00  0.00    -0.277 OA
ATOM      3  N   UNL     1      -2.969   3.236   4.816  0.00  0.00    -0.272 N 
ATOM      4  C   UNL     1      -2.439   4.583   5.046  0.00  0.00    +0.118 C 
ATOM      5  C   UNL     1      -1.408   4.807   3.928  0.00  0.00    +0.056 C 
ATOM      6  C   UNL     1      -1.434   3.527   3.123  0.00  0.00    -0.023 A 
ATOM      7  C   UNL     1      -2.358   2.666   3.695  0.00  0.00    +0.040 A 
ATOM      8  C   UNL     1      -2.559   1.409   3.121  0.00  0.00    +0.026 A 
ATOM      9  C   UNL     1      -1.846   1.034   2.001  0.00  0.00    +0.030 A 
ATOM     10  C   UNL     1      -0.927   1.900   1.439  0.00  0.00    +0.105 A 
ATOM     11  C   UNL     1      -0.719   3.144   2.006  0.00  0.00    +0.034 A 
ENDROOT
BRANCH  10  12
ATOM     12  S   UNL     1      -0.017   1.417   0.010  0.00  0.00    +0.056 S 
ATOM     13  O   UNL     1       0.002  -0.004   0.002  0.00  0.00    -0.153 OA
ATOM     14  O   UNL     1       1.172   2.195   0.003  0.00  0.00    -0.153 OA
BRANCH  12  15
ATOM     15  N   UNL     1      -0.897   1.885  -1.312  0.00  0.00    -0.204 NA
ATOM     16  H   UNL     1      -1.747   2.338  -1.194  0.00  0.00    +0.144 HD
ATOM     17  H   UNL     1      -0.563   1.708  -2.205  0.00  0.00    +0.144 HD
ENDBRANCH  12  15
ENDBRANCH  10  12
BRANCH   1  18
ATOM     18  C   UNL     1      -4.491   3.355   6.762  0.00  0.00    +0.020 C 
BRANCH  18  28
ATOM     19  C   UNL     1      -4.723   3.054   9.686  0.00  0.00    -0.007 C 
ATOM     20  C   UNL     1      -5.903   3.061   8.712  0.00  0.00    -0.023 C 
ATOM     21  C   UNL     1      -7.020   2.204   9.257  0.00  0.00    +0.005 A 
ATOM     22  C   UNL     1      -7.503   2.169  10.508  0.00  0.00    +0.021 A 
ATOM     23  C   UNL     1      -8.538   1.211  10.531  0.00  0.00    +0.019 A 
ATOM     24  C   UNL     1      -8.646   0.698   9.286  0.00  0.00    +0.086 A 
ATOM     25  N   UNL     1      -7.720   1.303   8.499  0.00  0.00    -0.354 N 
ATOM     26  C   UNL     1      -7.463   1.079   7.071  0.00  0.00    +0.103 C 
ATOM     27  C   UNL     1      -6.639   2.260   6.541  0.00  0.00    -0.055 C 
ATOM     28  N   UNL     1      -5.470   2.467   7.423  0.00  0.00    +0.392 N 
ATOM     29  H   UNL     1      -5.027   1.559   7.606  0.00  0.00    -0.080 HD
ENDBRANCH  18  28
ENDBRANCH   1  18
TORSDOF 4
