REMARK  Name = ZINC42731119
REMARK  4 active torsions:
REMARK  status: ('A' for Active; 'I' for Inactive)
REMARK    1  A    between atoms: C_1  and  C_2
REMARK    2  A    between atoms: C_6  and  C_7
REMARK    3  A    between atoms: C_7  and  C_9
REMARK    4  A    between atoms: C_7  and  O_14
REMARK                            x       y       z     vdW  Elec       q    Type
REMARK                         _______ _______ _______ _____ _____    ______ ____
ROOT
ATOM      1  C   UNL     1       0.030  -0.179   2.581  0.00  0.00    +0.184 C 
ENDROOT
BRANCH   1   7
ATOM      2  C   UNL     1      -0.018   1.503   0.010  0.00  0.00    +0.044 C 
ATOM      3  C   UNL     1       0.002  -0.004   0.002  0.00  0.00    -0.037 A 
ATOM      4  C   UNL     1       0.006  -0.699  -1.193  0.00  0.00    +0.011 A 
ATOM      5  C   UNL     1       0.024  -2.054  -1.165  0.00  0.00    +0.046 A 
ATOM      6  S   UNL     1       0.037  -2.387   0.589  0.00  0.00    -0.098 S 
ATOM      7  C   UNL     1       0.023  -0.698   1.166  0.00  0.00    +0.025 A 
ENDBRANCH   1   7
BRANCH   1   8
ATOM      8  C   UNL     1      -1.335  -0.369   3.192  0.00  0.00    +0.023 A 
ATOM      9  C   UNL     1      -2.377   0.586   3.240  0.00  0.00    +0.047 A 
ATOM     10  C   UNL     1      -3.411   0.002   3.871  0.00  0.00    +0.195 A 
ATOM     11  O   UNL     1      -3.053  -1.249   4.206  0.00  0.00    -0.471 OA
ATOM     12  C   UNL     1      -1.796  -1.480   3.793  0.00  0.00    +0.201 A 
ENDBRANCH   1   8
BRANCH   1  13
ATOM     13  O   UNL     1       0.999  -0.896   3.347  0.00  0.00    -0.382 OA
ATOM     14  H   UNL     1       0.838  -1.849   3.393  0.00  0.00    +0.211 HD
ENDBRANCH   1  13
TORSDOF 3
