REMARK  Name = ZINC44937703
REMARK  6 active torsions:
REMARK  status: ('A' for Active; 'I' for Inactive)
REMARK    1  A    between atoms: C_1  and  N_2
REMARK    2  A    between atoms: N_2  and  C_3
REMARK    3  A    between atoms: N_2  and  C_14
REMARK    4  A    between atoms: C_3  and  C_4
REMARK    5  A    between atoms: C_14  and  C_15
REMARK    6  A    between atoms: N_17  and  C_18
REMARK                            x       y       z     vdW  Elec       q    Type
REMARK                         _______ _______ _______ _____ _____    ______ ____
ROOT
ATOM      1  C   UNL     1      -0.018   1.465   0.010  0.00  0.00    -0.095 C 
ATOM      2  N   UNL     1       0.002  -0.004   0.002  0.00  0.00    +0.386 N 
ATOM      3  H   UNL     1       0.490  -0.338   0.820  0.00  0.00    -0.081 HD
ENDROOT
BRANCH   2   4
ATOM      4  C   UNL     1       0.690  -0.478  -1.207  0.00  0.00    -0.043 C 
BRANCH   4   5
ATOM      5  C   UNL     1       2.137  -0.060  -1.158  0.00  0.00    -0.060 A 
ATOM      6  C   UNL     1       2.522   1.157  -1.689  0.00  0.00    +0.005 A 
ATOM      7  C   UNL     1       3.848   1.544  -1.647  0.00  0.00    +0.049 A 
ATOM      8  C   UNL     1       4.796   0.711  -1.072  0.00  0.00    +0.162 A 
ATOM      9  C   UNL     1       4.409  -0.511  -0.536  0.00  0.00    +0.162 A 
ATOM     10  C   UNL     1       3.076  -0.891  -0.577  0.00  0.00    +0.051 A 
ATOM     11  O   UNL     1       5.322  -1.340   0.040  0.00  0.00    -0.485 OA
ATOM     12  C   UNL     1       6.699  -1.091  -0.264  0.00  0.00    +0.270 C 
ATOM     13  C   UNL     1       6.957   0.415  -0.125  0.00  0.00    +0.270 C 
ATOM     14  O   UNL     1       6.099   1.103  -1.042  0.00  0.00    -0.485 OA
ENDBRANCH   4   5
ENDBRANCH   2   4
BRANCH   2  15
ATOM     15  C   UNL     1      -1.376  -0.512   0.012  0.00  0.00    +0.019 C 
BRANCH  15  16
ATOM     16  C   UNL     1      -2.043  -0.130   1.309  0.00  0.00    +0.197 C 
ATOM     17  O   UNL     1      -1.430   0.504   2.142  0.00  0.00    -0.278 OA
ATOM     18  N   UNL     1      -3.320  -0.492   1.542  0.00  0.00    -0.306 N 
ATOM     19  H   UNL     1      -3.810  -0.999   0.876  0.00  0.00    +0.149 HD
BRANCH  18  20
ATOM     20  C   UNL     1      -3.968  -0.120   2.802  0.00  0.00    +0.159 C 
ATOM     21  C   UNL     1      -5.486  -0.077   2.607  0.00  0.00    +0.032 C 
ATOM     22  C   UNL     1      -6.133   0.844   3.625  0.00  0.00    +0.004 C 
ATOM     23  C   UNL     1      -6.034   0.342   5.054  0.00  0.00    +0.019 C 
ATOM     24  C   UNL     1      -4.582   0.350   5.536  0.00  0.00    +0.104 C 
ATOM     25  N   UNL     1      -3.947  -0.917   5.141  0.00  0.00    -0.314 N 
ATOM     26  C   UNL     1      -3.646  -1.151   3.864  0.00  0.00    +0.233 C 
ATOM     27  O   UNL     1      -3.115  -2.196   3.550  0.00  0.00    -0.274 OA
ATOM     28  H   UNL     1      -3.744  -1.585   5.814  0.00  0.00    +0.149 HD
ENDBRANCH  18  20
ENDBRANCH  15  16
ENDBRANCH   2  15
TORSDOF 5
