REMARK  Name = ZINC19374124
REMARK  7 active torsions:
REMARK  status: ('A' for Active; 'I' for Inactive)
REMARK    1  A    between atoms: C_4  and  C_7
REMARK    2  A    between atoms: C_10  and  C_13
REMARK    3  A    between atoms: C_13  and  C_15
REMARK    4  A    between atoms: C_13  and  O_34
REMARK    5  A    between atoms: C_15  and  N_16
REMARK    6  A    between atoms: C_23  and  O_33
REMARK    7  A    between atoms: C_27  and  O_32
REMARK                            x       y       z     vdW  Elec       q    Type
REMARK                         _______ _______ _______ _____ _____    ______ ____
ROOT
ATOM      1  N   UNL     1      -0.607   1.592  -1.236  0.00  0.00    +0.382 N 
ATOM      2  C   UNL     1      -1.048   2.984  -1.081  0.00  0.00    -0.075 C 
ATOM      3  C   UNL     1      -1.791   3.429  -2.343  0.00  0.00    +0.029 C 
ATOM      4  C   UNL     1      -0.862   3.298  -3.550  0.00  0.00    +0.110 C 
ATOM      5  C   UNL     1      -0.373   1.853  -3.661  0.00  0.00    +0.029 C 
ATOM      6  C   UNL     1       0.329   1.454  -2.360  0.00  0.00    -0.075 C 
ATOM      7  C   UNL     1      -1.623   3.679  -4.825  0.00  0.00    +0.084 C 
ATOM      8  C   UNL     1      -2.194   5.088  -4.640  0.00  0.00    +0.152 C 
ATOM      9  C   UNL     1      -1.119   6.007  -4.119  0.00  0.00    +0.026 A 
ATOM     10  C   UNL     1      -1.302   7.376  -4.232  0.00  0.00    +0.055 A 
ATOM     11  C   UNL     1      -0.339   8.251  -3.756  0.00  0.00    +0.117 A 
ATOM     12  C   UNL     1       0.812   7.755  -3.162  0.00  0.00    +0.049 A 
ATOM     13  C   UNL     1       0.996   6.392  -3.050  0.00  0.00    +0.049 A 
ATOM     14  C   UNL     1       0.031   5.512  -3.530  0.00  0.00    +0.127 A 
ATOM     15  O   UNL     1       0.252   4.176  -3.403  0.00  0.00    -0.485 OA
ATOM     16  H   UNL     1      -1.494   0.983  -1.462  0.00  0.00    -0.082 HD
ENDROOT
BRANCH  11  17
ATOM     17  O   UNL     1      -0.523   9.593  -3.869  0.00  0.00    -0.507 OA
ATOM     18  H   UNL     1       0.242  10.287  -3.491  0.00  0.00    +0.292 HD
ENDBRANCH  11  17
BRANCH   8  19
ATOM     19  O   UNL     1      -2.669   5.575  -5.897  0.00  0.00    -0.387 OA
ATOM     20  H   UNL     1      -3.117   6.578  -5.964  0.00  0.00    +0.210 HD
ENDBRANCH   8  19
BRANCH   1  21
ATOM     21  C   UNL     1      -0.013   1.086   0.008  0.00  0.00    -0.042 C 
BRANCH  21  22
ATOM     22  C   UNL     1       0.201  -0.425  -0.106  0.00  0.00    +0.128 C 
BRANCH  22  26
ATOM     23  C   UNL     1       1.947  -1.895   3.509  0.00  0.00    -0.018 A 
ATOM     24  C   UNL     1       2.757  -1.563   2.425  0.00  0.00    +0.009 A 
ATOM     25  C   UNL     1       2.188  -1.089   1.260  0.00  0.00    +0.007 A 
ATOM     26  C   UNL     1       0.816  -0.943   1.168  0.00  0.00    -0.021 A 
ATOM     27  C   UNL     1       0.007  -1.266   2.242  0.00  0.00    +0.007 A 
ATOM     28  C   UNL     1       0.565  -1.746   3.410  0.00  0.00    +0.009 A 
BRANCH  23  32
ATOM     29  C   UNL     1       3.684  -3.356   7.104  0.00  0.00    +0.000 A 
ATOM     30  C   UNL     1       2.311  -3.210   7.012  0.00  0.00    +0.001 A 
ATOM     31  C   UNL     1       1.742  -2.736   5.847  0.00  0.00    +0.008 A 
ATOM     32  C   UNL     1       2.553  -2.405   4.763  0.00  0.00    -0.018 A 
ATOM     33  C   UNL     1       3.934  -2.558   4.861  0.00  0.00    +0.008 A 
ATOM     34  C   UNL     1       4.493  -3.028   6.032  0.00  0.00    +0.001 A 
ENDBRANCH  23  32
ENDBRANCH  22  26
BRANCH  22  35
ATOM     35  O   UNL     1      -1.057  -1.068  -0.324  0.00  0.00    -0.389 OA
ATOM     36  H   UNL     1      -1.657  -0.817  -1.211  0.00  0.00    +0.210 HD
ENDBRANCH  22  35
ENDBRANCH  21  22
ENDBRANCH   1  21
TORSDOF 7
