REMARK  Name = ZINC12347023
REMARK  3 active torsions:
REMARK  status: ('A' for Active; 'I' for Inactive)
REMARK    1  A    between atoms: C_3  and  C_6
REMARK    2  A    between atoms: C_6  and  N_7
REMARK    3  A    between atoms: C_13  and  C_19
REMARK                            x       y       z     vdW  Elec       q    Type
REMARK                         _______ _______ _______ _____ _____    ______ ____
ROOT
ATOM      1  N   UNL     1      -1.860   4.796   1.428  0.00  0.00    -0.285 N 
ATOM      2  C   UNL     1      -2.990   4.351   2.257  0.00  0.00    +0.159 C 
ATOM      3  C   UNL     1      -2.791   5.041   3.588  0.00  0.00    +0.039 C 
ATOM      4  C   UNL     1      -1.673   5.784   3.467  0.00  0.00    +0.058 C 
ATOM      5  C   UNL     1      -1.122   5.635   2.178  0.00  0.00    +0.247 C 
ATOM      6  O   UNL     1      -0.110   6.192   1.793  0.00  0.00    -0.270 OA
ATOM      7  C   UNL     1      -1.234   6.598   4.668  0.00  0.00    +0.142 C 
ATOM      8  N   UNL     1      -2.072   6.509   5.875  0.00  0.00    -0.288 N 
ATOM      9  C   UNL     1      -3.165   5.720   5.842  0.00  0.00    +0.304 C 
ATOM     10  O   UNL     1      -3.863   5.640   6.834  0.00  0.00    -0.252 OA
ATOM     11  N   UNL     1      -3.506   5.021   4.752  0.00  0.00    -0.271 N 
ATOM     12  H   UNL     1      -1.844   7.006   6.676  0.00  0.00    +0.151 HD
ATOM     13  H   UNL     1      -4.303   4.471   4.791  0.00  0.00    +0.156 HD
ENDROOT
BRANCH   7  14
ATOM     14  C   UNL     1       0.161   6.165   5.038  0.00  0.00    -0.021 A 
ATOM     15  C   UNL     1       1.247   6.925   4.645  0.00  0.00    +0.007 A 
ATOM     16  C   UNL     1       2.527   6.530   4.984  0.00  0.00    +0.022 A 
ATOM     17  C   UNL     1       2.722   5.373   5.717  0.00  0.00    +0.059 A 
ATOM     18  C   UNL     1       1.634   4.612   6.111  0.00  0.00    +0.060 A 
ATOM     19  C   UNL     1       0.353   5.013   5.775  0.00  0.00    +0.027 A 
ATOM     20 CL   UNL     1       1.877   3.160   7.031  0.00  0.00    -0.082 Cl
ATOM     21 CL   UNL     1       4.330   4.875   6.143  0.00  0.00    -0.082 Cl
ENDBRANCH   7  14
BRANCH   1  22
ATOM     22  C   UNL     1      -1.592   4.406   0.042  0.00  0.00    +0.182 C 
BRANCH  22  25
ATOM     23  C   UNL     1      -0.013   1.076   0.008  0.00  0.00    +0.041 A 
ATOM     24  C   UNL     1      -1.159   1.903   0.017  0.00  0.00    +0.046 A 
ATOM     25  C   UNL     1      -0.722   3.175   0.026  0.00  0.00    +0.122 A 
ATOM     26  O   UNL     1       0.621   3.162   0.013  0.00  0.00    -0.466 OA
ATOM     27  C   UNL     1       1.057   1.892   0.002  0.00  0.00    +0.195 A 
ENDBRANCH  22  25
ENDBRANCH   1  22
TORSDOF 3
