REMARK  Name = ZINC02541405
REMARK  1 active torsions:
REMARK  status: ('A' for Active; 'I' for Inactive)
REMARK    1  A    between atoms: C_6  and  C_7
REMARK                            x       y       z     vdW  Elec       q    Type
REMARK                         _______ _______ _______ _____ _____    ______ ____
ROOT
ATOM      1  C   UNL     1       1.086  -2.164  -0.020  0.00  0.00    +0.015 A 
ATOM      2  C   UNL     1      -0.160  -2.703  -0.011  0.00  0.00    +0.056 A 
ATOM      3  S   UNL     1      -1.230  -1.277   0.007  0.00  0.00    -0.091 S 
ATOM      4  C   UNL     1       0.002  -0.004   0.002  0.00  0.00    +0.075 A 
ATOM      5  C   UNL     1       1.223  -0.714  -0.013  0.00  0.00    +0.090 A 
ATOM      6  N   UNL     1       2.343   0.041  -0.020  0.00  0.00    -0.234 NA
ATOM      7  C   UNL     1       2.280   1.349  -0.012  0.00  0.00    +0.223 A 
ATOM      8  N   UNL     1       1.143   2.021   0.002  0.00  0.00    -0.223 NA
ATOM      9  C   UNL     1      -0.017   1.373   0.010  0.00  0.00    +0.147 A 
ATOM     10 CL   UNL     1      -1.520   2.242   0.021  0.00  0.00    -0.061 Cl
ENDROOT
BRANCH   1  16
ATOM     11  C   UNL     1       3.295  -2.818  -0.971  0.00  0.00    +0.009 A 
ATOM     12  C   UNL     1       4.412  -3.630  -0.978  0.00  0.00    +0.016 A 
ATOM     13  C   UNL     1       4.524  -4.664  -0.065  0.00  0.00    +0.018 A 
ATOM     14  C   UNL     1       3.522  -4.887   0.863  0.00  0.00    +0.016 A 
ATOM     15  C   UNL     1       2.404  -4.079   0.882  0.00  0.00    +0.009 A 
ATOM     16  C   UNL     1       2.285  -3.036  -0.035  0.00  0.00    -0.015 A 
ATOM     17 BR   UNL     1       6.054  -5.776  -0.085  0.00  0.00    -0.050 Br
ENDBRANCH   1  16
TORSDOF 1
