REMARK  Name = ZINC18142993
REMARK  9 active torsions:
REMARK  status: ('A' for Active; 'I' for Inactive)
REMARK    1  A    between atoms: C_1  and  C_2
REMARK    2  A    between atoms: C_2  and  C_31
REMARK    3  A    between atoms: C_6  and  C_16
REMARK    4  A    between atoms: C_18  and  O_26
REMARK    5  A    between atoms: C_19  and  O_24
REMARK    6  A    between atoms: C_21  and  O_22
REMARK    7  A    between atoms: O_22  and  C_23
REMARK    8  A    between atoms: O_24  and  C_25
REMARK    9  A    between atoms: O_26  and  C_27
REMARK                            x       y       z     vdW  Elec       q    Type
REMARK                         _______ _______ _______ _____ _____    ______ ____
ROOT
ATOM      1  C   UNL     1      -0.075   1.533  -0.056  0.00  0.00    +0.011 C 
ATOM      2  C   UNL     1      -0.038   0.003  -0.047  0.00  0.00    -0.023 C 
ATOM      3  C   UNL     1      -1.461  -0.549   0.022  0.00  0.00    +0.058 C 
ATOM      4  C   UNL     1      -1.425  -2.068   0.046  0.00  0.00    +0.017 C 
ATOM      5  C   UNL     1      -0.407  -2.716   0.637  0.00  0.00    +0.037 C 
ATOM      6  C   UNL     1      -0.249  -4.214   0.736  0.00  0.00    +0.140 C 
ATOM      7  N   UNL     1      -1.428  -4.969   0.366  0.00  0.00    -0.331 N 
ATOM      8  C   UNL     1      -1.918  -4.939  -0.939  0.00  0.00    +0.049 A 
ATOM      9  C   UNL     1      -1.925  -6.073  -1.736  0.00  0.00    +0.025 A 
ATOM     10  C   UNL     1      -2.378  -5.984  -3.041  0.00  0.00    +0.002 A 
ATOM     11  C   UNL     1      -2.817  -4.774  -3.548  0.00  0.00    +0.002 A 
ATOM     12  C   UNL     1      -2.828  -3.644  -2.749  0.00  0.00    +0.025 A 
ATOM     13  C   UNL     1      -2.395  -3.737  -1.438  0.00  0.00    +0.052 A 
ATOM     14  N   UNL     1      -2.484  -2.672  -0.550  0.00  0.00    -0.316 N 
ATOM     15  C   UNL     1       0.654  -1.988   1.226  0.00  0.00    +0.163 C 
ATOM     16  O   UNL     1       1.549  -2.599   1.776  0.00  0.00    -0.292 OA
ATOM     17  C   UNL     1       0.714  -0.490   1.195  0.00  0.00    +0.086 C 
ATOM     18  C   UNL     1       0.657  -0.506  -1.311  0.00  0.00    +0.011 C 
ATOM     19  H   UNL     1      -1.883  -5.503   1.036  0.00  0.00    +0.147 HD
ATOM     20  H   UNL     1      -3.369  -2.334  -0.342  0.00  0.00    +0.152 HD
ENDROOT
BRANCH   6  21
ATOM     21  C   UNL     1       0.885  -4.635  -0.162  0.00  0.00    +0.023 A 
ATOM     22  C   UNL     1       0.782  -4.465  -1.530  0.00  0.00    +0.058 A 
ATOM     23  C   UNL     1       1.824  -4.850  -2.357  0.00  0.00    +0.162 A 
ATOM     24  C   UNL     1       2.975  -5.410  -1.811  0.00  0.00    +0.165 A 
ATOM     25  C   UNL     1       3.076  -5.580  -0.440  0.00  0.00    +0.095 A 
ATOM     26  C   UNL     1       2.033  -5.188   0.385  0.00  0.00    +0.129 A 
BRANCH  26  27
ATOM     27  O   UNL     1       2.134  -5.350   1.732  0.00  0.00    -0.495 OA
ATOM     28  C   UNL     1       3.345  -5.926   2.227  0.00  0.00    +0.277 C 
ENDBRANCH  26  27
BRANCH  24  29
ATOM     29  O   UNL     1       3.998  -5.790  -2.622  0.00  0.00    -0.491 OA
ATOM     30  C   UNL     1       5.149  -6.357  -1.992  0.00  0.00    +0.277 C 
ENDBRANCH  24  29
BRANCH  23  31
ATOM     31  O   UNL     1       1.722  -4.682  -3.704  0.00  0.00    -0.491 OA
ATOM     32  C   UNL     1       0.566  -3.993  -4.186  0.00  0.00    +0.277 C 
ENDBRANCH  23  31
ENDBRANCH   6  21
TORSDOF 4
