REMARK  Name = ZINC39950058
REMARK  3 active torsions:
REMARK  status: ('A' for Active; 'I' for Inactive)
REMARK    1  A    between atoms: N_7  and  C_8
REMARK    2  A    between atoms: C_8  and  C_9
REMARK    3  A    between atoms: N_11  and  C_12
REMARK                            x       y       z     vdW  Elec       q    Type
REMARK                         _______ _______ _______ _____ _____    ______ ____
ROOT
ATOM      1  C   UNL     1       4.297   3.736   1.417  0.00  0.00    +0.237 C 
ATOM      2  O   UNL     1       4.120   2.980   2.349  0.00  0.00    -0.274 OA
ATOM      3  N   UNL     1       4.535   5.043   1.645  0.00  0.00    -0.284 N 
ATOM      4  H   UNL     1       4.748   5.633   0.905  0.00  0.00    +0.155 HD
ENDROOT
BRANCH   3   5
ATOM      5  C   UNL     1       4.475   5.544   2.937  0.00  0.00    +0.034 C 
ATOM      6  C   UNL     1       5.565   6.189   3.479  0.00  0.00    +0.029 C 
ATOM      7  C   UNL     1       5.412   6.601   4.808  0.00  0.00    -0.016 C 
ATOM      8  C   UNL     1       5.918   7.635   5.510  0.00  0.00    +0.025 C 
ATOM      9  C   UNL     1       5.223   7.756   6.729  0.00  0.00    +0.106 C 
ATOM     10  N   UNL     1       4.356   6.795   6.899  0.00  0.00    -0.279 NA
ATOM     11  C   UNL     1       4.494   5.876   5.779  0.00  0.00    +0.158 C 
ATOM     12  C   UNL     1       3.221   5.561   5.053  0.00  0.00    +0.006 C 
ATOM     13  C   UNL     1       3.250   5.393   3.728  0.00  0.00    +0.021 C 
ENDBRANCH   3   5
BRANCH   1  14
ATOM     14  C   UNL     1       4.249   3.214   0.004  0.00  0.00    +0.217 C 
BRANCH  14  21
ATOM     15  C   UNL     1       0.352   0.889   0.221  0.00  0.00    +0.017 A 
ATOM     16  C   UNL     1       1.438   1.734   0.160  0.00  0.00    +0.027 A 
ATOM     17  C   UNL     1       2.724   1.208   0.093  0.00  0.00    +0.050 A 
ATOM     18  C   UNL     1       2.900  -0.188   0.088  0.00  0.00    +0.001 A 
ATOM     19  C   UNL     1       4.346  -0.414   0.011  0.00  0.00    +0.027 A 
ATOM     20  C   UNL     1       4.930   0.794  -0.024  0.00  0.00    +0.087 A 
ATOM     21  N   UNL     1       3.977   1.775   0.024  0.00  0.00    -0.338 N 
ATOM     22  C   UNL     1       1.789  -1.031   0.150  0.00  0.00    +0.025 A 
ATOM     23  C   UNL     1       0.525  -0.489   0.216  0.00  0.00    +0.019 A 
ATOM     24 BR   UNL     1      -0.983  -1.626   0.301  0.00  0.00    -0.050 Br
ENDBRANCH  14  21
ENDBRANCH   1  14
TORSDOF 3
