REMARK  Name = ZINC00706419
REMARK  6 active torsions:
REMARK  status: ('A' for Active; 'I' for Inactive)
REMARK    1  A    between atoms: C_1  and  C_2
REMARK    2  A    between atoms: C_3  and  C_19
REMARK    3  A    between atoms: C_4  and  C_10
REMARK    4  A    between atoms: C_19  and  O_21
REMARK    5  A    between atoms: O_21  and  C_22
REMARK    6  A    between atoms: C_22  and  C_23
REMARK                            x       y       z     vdW  Elec       q    Type
REMARK                         _______ _______ _______ _____ _____    ______ ____
ROOT
ATOM      1  C   UNL     1      -0.018   1.503   0.010  0.00  0.00    +0.061 C 
ATOM      2  C   UNL     1       0.002  -0.004   0.002  0.00  0.00    +0.021 C 
ATOM      3  C   UNL     1      -1.165  -0.684   0.004  0.00  0.00    +0.078 C 
ATOM      4  C   UNL     1      -1.098  -2.198  -0.005  0.00  0.00    +0.144 C 
ATOM      5  N   UNL     1       0.242  -2.807  -0.014  0.00  0.00    -0.288 N 
ATOM      6  C   UNL     1       1.317  -1.993  -0.015  0.00  0.00    +0.304 C 
ATOM      7  O   UNL     1       2.428  -2.486  -0.023  0.00  0.00    -0.252 OA
ATOM      8  N   UNL     1       1.200  -0.659  -0.013  0.00  0.00    -0.273 N 
ATOM      9  H   UNL     1       0.350  -3.771  -0.020  0.00  0.00    +0.151 HD
ATOM     10  H   UNL     1       2.012  -0.129  -0.018  0.00  0.00    +0.156 HD
ENDROOT
BRANCH   4  11
ATOM     11  C   UNL     1      -1.840  -2.689  -1.222  0.00  0.00    -0.019 A 
ATOM     12  C   UNL     1      -1.221  -2.675  -2.458  0.00  0.00    +0.009 A 
ATOM     13  C   UNL     1      -1.897  -3.124  -3.577  0.00  0.00    +0.050 A 
ATOM     14  C   UNL     1      -3.197  -3.589  -3.462  0.00  0.00    +0.166 A 
ATOM     15  C   UNL     1      -3.820  -3.603  -2.216  0.00  0.00    +0.167 A 
ATOM     16  C   UNL     1      -3.135  -3.157  -1.098  0.00  0.00    +0.055 A 
ATOM     17  O   UNL     1      -5.082  -4.101  -2.365  0.00  0.00    -0.453 OA
ATOM     18  C   UNL     1      -5.368  -4.009  -3.774  0.00  0.00    +0.466 C 
ATOM     19  O   UNL     1      -4.069  -4.078  -4.391  0.00  0.00    -0.453 OA
ENDBRANCH   4  11
BRANCH   3  20
ATOM     20  C   UNL     1      -2.406  -0.006   0.014  0.00  0.00    +0.339 C 
ATOM     21  O   UNL     1      -2.435   1.210   0.021  0.00  0.00    -0.245 OA
BRANCH  20  22
ATOM     22  O   UNL     1      -3.558  -0.709   0.016  0.00  0.00    -0.452 OA
BRANCH  22  23
ATOM     23  C   UNL     1      -4.775   0.040   0.026  0.00  0.00    +0.345 C 
BRANCH  23  24
ATOM     24  C   UNL     1      -5.966  -0.921   0.027  0.00  0.00    +0.424 C 
ATOM     25  F   UNL     1      -5.909  -1.733   1.164  0.00  0.00    -0.167 F 
ATOM     26  F   UNL     1      -7.157  -0.187   0.037  0.00  0.00    -0.167 F 
ATOM     27  F   UNL     1      -5.920  -1.720  -1.120  0.00  0.00    -0.167 F 
ENDBRANCH  23  24
ENDBRANCH  22  23
ENDBRANCH  20  22
ENDBRANCH   3  20
TORSDOF 5
