REMARK  Name = ZINC65305733
REMARK  5 active torsions:
REMARK  status: ('A' for Active; 'I' for Inactive)
REMARK    1  A    between atoms: C_1  and  C_2
REMARK    2  A    between atoms: C_2  and  C_4
REMARK    3  A    between atoms: C_2  and  N_16
REMARK    4  A    between atoms: N_6  and  C_7
REMARK    5  A    between atoms: C_17  and  C_19
REMARK                            x       y       z     vdW  Elec       q    Type
REMARK                         _______ _______ _______ _____ _____    ______ ____
ROOT
ATOM      1  C   UNL     1       0.731  -0.503   1.223  0.00  0.00    +0.236 C 
ATOM      2  O   UNL     1       0.159  -1.213   2.023  0.00  0.00    -0.274 OA
ATOM      3  N   UNL     1       2.019  -0.161   1.426  0.00  0.00    -0.277 N 
ATOM      4  H   UNL     1       2.476   0.406   0.786  0.00  0.00    +0.152 HD
ENDROOT
BRANCH   3   5
ATOM      5  C   UNL     1       2.727  -0.647   2.613  0.00  0.00    +0.269 C 
ATOM      6  N   UNL     1       2.338   0.141   3.789  0.00  0.00    -0.348 N 
ATOM      7  C   UNL     1       3.413   0.713   4.250  0.00  0.00    +0.061 A 
ATOM      8  C   UNL     1       3.658   1.608   5.388  0.00  0.00    +0.027 A 
ATOM      9  C   UNL     1       4.908   2.054   5.627  0.00  0.00    +0.002 A 
ATOM     10  C   UNL     1       6.006   1.696   4.825  0.00  0.00    +0.002 A 
ATOM     11  C   UNL     1       5.891   0.881   3.757  0.00  0.00    +0.027 A 
ATOM     12  C   UNL     1       4.575   0.334   3.401  0.00  0.00    +0.061 A 
ATOM     13  N   UNL     1       4.174  -0.458   2.448  0.00  0.00    -0.348 N 
ATOM     14  H   UNL     1       1.443   0.221   4.156  0.00  0.00    +0.163 HD
ATOM     15  H   UNL     1       4.729  -0.851   1.757  0.00  0.00    +0.163 HD
ENDBRANCH   3   5
BRANCH   1  17
ATOM     16  C   UNL     1      -0.019   1.526   0.010  0.00  0.00    +0.038 C 
ATOM     17  C   UNL     1       0.002  -0.004   0.002  0.00  0.00    +0.156 C 
BRANCH  17  18
ATOM     18  N   UNL     1      -1.372  -0.511   0.012  0.00  0.00    -0.300 N 
ATOM     19  C   UNL     1      -2.051  -0.643  -1.145  0.00  0.00    +0.245 C 
ATOM     20  O   UNL     1      -1.522  -0.341  -2.197  0.00  0.00    -0.270 OA
ATOM     21  H   UNL     1      -1.794  -0.752   0.852  0.00  0.00    +0.150 HD
BRANCH  19  22
ATOM     22  C   UNL     1      -3.438  -1.155  -1.134  0.00  0.00    +0.042 A 
ATOM     23  C   UNL     1      -4.049  -1.497   0.073  0.00  0.00    +0.051 A 
ATOM     24  C   UNL     1      -5.346  -1.975   0.077  0.00  0.00    +0.127 A 
ATOM     25  C   UNL     1      -6.039  -2.114  -1.115  0.00  0.00    +0.076 A 
ATOM     26  C   UNL     1      -5.437  -1.776  -2.316  0.00  0.00    +0.127 A 
ATOM     27  C   UNL     1      -4.143  -1.292  -2.331  0.00  0.00    +0.051 A 
ATOM     28  F   UNL     1      -6.119  -1.915  -3.474  0.00  0.00    -0.205 F 
ATOM     29  F   UNL     1      -5.939  -2.307   1.245  0.00  0.00    -0.205 F 
ENDBRANCH  19  22
ENDBRANCH  17  18
ENDBRANCH   1  17
TORSDOF 4
