REMARK  Name = ZINC66701081
REMARK  9 active torsions:
REMARK  status: ('A' for Active; 'I' for Inactive)
REMARK    1  A    between atoms: C_1  and  C_2
REMARK    2  A    between atoms: C_7  and  C_9
REMARK    3  A    between atoms: C_7  and  N_26
REMARK    4  A    between atoms: C_9  and  N_10
REMARK    5  A    between atoms: N_13  and  C_14
REMARK    6  A    between atoms: C_14  and  C_15
REMARK    7  A    between atoms: C_19  and  C_21
REMARK    8  A    between atoms: N_26  and  C_27
REMARK    9  A    between atoms: N_26  and  C_28
REMARK                            x       y       z     vdW  Elec       q    Type
REMARK                         _______ _______ _______ _____ _____    ______ ____
ROOT
ATOM      1  N   UNL     1       2.822  -1.814  -0.209  0.00  0.00    -0.301 N 
ATOM      2  C   UNL     1       3.510  -1.956  -1.359  0.00  0.00    +0.300 C 
ATOM      3  O   UNL     1       2.942  -2.341  -2.363  0.00  0.00    -0.253 OA
ATOM      4  N   UNL     1       4.826  -1.672  -1.397  0.00  0.00    -0.292 N 
ATOM      5  H   UNL     1       3.275  -1.507   0.592  0.00  0.00    +0.150 HD
ATOM      6  H   UNL     1       5.279  -1.365  -0.596  0.00  0.00    +0.151 HD
ENDROOT
BRANCH   1   7
ATOM      7  C   UNL     1       1.391  -2.123  -0.168  0.00  0.00    +0.094 C 
BRANCH   7  13
ATOM      8  C   UNL     1       0.323   1.905   0.998  0.00  0.00    +0.007 C 
ATOM      9  C   UNL     1       0.188   0.426   0.631  0.00  0.00    -0.015 C 
ATOM     10  C   UNL     1      -1.285   0.017   0.696  0.00  0.00    +0.003 C 
ATOM     11  C   UNL     1      -1.420  -1.462   0.329  0.00  0.00    -0.001 C 
ATOM     12  C   UNL     1      -0.612  -2.308   1.315  0.00  0.00    -0.010 C 
ATOM     13  C   UNL     1       0.861  -1.899   1.250  0.00  0.00    -0.050 C 
ATOM     14  C   UNL     1       0.996  -0.420   1.617  0.00  0.00    -0.007 C 
BRANCH  13  15
ATOM     15  N   UNL     1       1.637  -2.711   2.197  0.00  0.00    +0.381 N 
ATOM     16  C   UNL     1       1.079  -2.556   3.547  0.00  0.00    -0.096 C 
ATOM     17  C   UNL     1       1.571  -4.124   1.799  0.00  0.00    -0.096 C 
ATOM     18  H   UNL     1       2.598  -2.405   2.193  0.00  0.00    -0.082 HD
ENDBRANCH  13  15
ENDBRANCH   7  13
ENDBRANCH   1   7
BRANCH   4  19
ATOM     19  C   UNL     1       5.574  -1.827  -2.648  0.00  0.00    +0.184 C 
BRANCH  19  20
ATOM     20  C   UNL     1       7.014  -1.447  -2.422  0.00  0.00    +0.168 A 
ATOM     21  N   UNL     1       7.510  -0.245  -2.564  0.00  0.00    -0.156 NA
ATOM     22  H   UNL     1       9.522   0.401  -2.272  0.00  0.00    +0.191 HD
ATOM     23  N   UNL     1       8.879  -0.325  -2.259  0.00  0.00    -0.258 N 
ATOM     24  C   UNL     1       9.121  -1.626  -1.942  0.00  0.00    +0.163 A 
ATOM     25  N   UNL     1       7.979  -2.281  -2.043  0.00  0.00    -0.209 NA
BRANCH  24  26
ATOM     26  C   UNL     1      10.419  -2.198  -1.551  0.00  0.00    +0.056 A 
ATOM     27  C   UNL     1      10.731  -3.494  -1.226  0.00  0.00    +0.019 A 
ATOM     28  C   UNL     1      12.029  -3.797  -0.889  0.00  0.00    +0.008 A 
ATOM     29  C   UNL     1      12.962  -2.808  -0.888  0.00  0.00    +0.046 A 
ATOM     30  S   UNL     1      12.002  -1.387  -1.384  0.00  0.00    -0.094 S 
ENDBRANCH  24  26
ENDBRANCH  19  20
ENDBRANCH   4  19
TORSDOF 6
