REMARK  Name = ZINC05944105
REMARK  3 active torsions:
REMARK  status: ('A' for Active; 'I' for Inactive)
REMARK    1  A    between atoms: C_3  and  C_10
REMARK    2  A    between atoms: N_11  and  N_12
REMARK    3  A    between atoms: C_13  and  C_15
REMARK                            x       y       z     vdW  Elec       q    Type
REMARK                         _______ _______ _______ _____ _____    ______ ____
ROOT
ATOM      1  C   UNL     1       1.258  -2.155  -0.022  0.00  0.00    +0.142 C 
ATOM      2  N   UNL     1       0.148  -2.828  -0.015  0.00  0.00    -0.187 NA
ENDROOT
BRANCH   1   5
ATOM      3  C   UNL     1       2.386   1.425  -0.014  0.00  0.00    +0.004 A 
ATOM      4  C   UNL     1       2.420   0.046  -0.022  0.00  0.00    +0.013 A 
ATOM      5  C   UNL     1       1.227  -0.681  -0.014  0.00  0.00    +0.040 A 
ATOM      6  C   UNL     1       0.002  -0.004   0.002  0.00  0.00    +0.175 A 
ATOM      7  C   UNL     1      -0.017   1.386   0.010  0.00  0.00    +0.167 A 
ATOM      8  C   UNL     1       1.175   2.094   0.002  0.00  0.00    +0.049 A 
ATOM      9  O   UNL     1      -1.316   1.805   0.030  0.00  0.00    -0.453 OA
ATOM     10  C   UNL     1      -2.092   0.663  -0.386  0.00  0.00    +0.466 C 
ATOM     11  O   UNL     1      -1.283  -0.460   0.012  0.00  0.00    -0.452 OA
ENDBRANCH   1   5
BRANCH   2  12
ATOM     12  N   UNL     1       0.178  -4.228  -0.024  0.00  0.00    -0.200 N 
ATOM     13  C   UNL     1      -0.975  -4.927  -0.017  0.00  0.00    +0.299 C 
ATOM     14  O   UNL     1      -2.042  -4.341  -0.003  0.00  0.00    -0.265 OA
ATOM     15  H   UNL     1       1.028  -4.695  -0.035  0.00  0.00    +0.178 HD
BRANCH  13  16
ATOM     16  C   UNL     1      -0.944  -6.391  -0.025  0.00  0.00    +0.192 A 
ATOM     17  C   UNL     1      -2.032  -7.218  -0.019  0.00  0.00    +0.056 A 
ATOM     18  C   UNL     1      -1.542  -8.532  -0.032  0.00  0.00    +0.058 A 
ATOM     19  C   UNL     1      -0.191  -8.453  -0.045  0.00  0.00    +0.171 A 
ATOM     20  O   UNL     1       0.165  -7.161  -0.046  0.00  0.00    -0.444 OA
ATOM     21 BR   UNL     1       0.999  -9.923  -0.066  0.00  0.00    -0.008 Br
ENDBRANCH  13  16
ENDBRANCH   2  12
TORSDOF 3
