REMARK  Name = ZINC14959824
REMARK  12 active torsions:
REMARK  status: ('A' for Active; 'I' for Inactive)
REMARK    1  A    between atoms: C_1  and  N_2
REMARK    2  A    between atoms: N_2  and  C_3
REMARK    3  A    between atoms: N_2  and  C_15
REMARK    4  A    between atoms: C_3  and  C_4
REMARK    5  A    between atoms: C_7  and  C_9
REMARK    6  A    between atoms: C_9  and  N_10
REMARK    7  A    between atoms: C_15  and  C_16
REMARK    8  A    between atoms: N_21  and  C_23
REMARK    9  A    between atoms: C_23  and  C_24
REMARK   10  A    between atoms: C_24  and  C_25
REMARK   11  A    between atoms: C_28  and  O_31
REMARK   12  A    between atoms: O_31  and  C_32
REMARK                            x       y       z     vdW  Elec       q    Type
REMARK                         _______ _______ _______ _____ _____    ______ ____
ROOT
ATOM      1  C   UNL     1      -2.946   0.486  -7.773  0.00  0.00    -0.014 C 
ATOM      2  C   UNL     1      -1.735   1.248  -8.319  0.00  0.00    +0.001 C 
ATOM      3  C   UNL     1      -1.049   0.397  -9.392  0.00  0.00    -0.018 C 
ATOM      4  C   UNL     1      -2.055   0.070 -10.498  0.00  0.00    -0.079 C 
ATOM      5  N   UNL     1      -3.194  -0.659  -9.925  0.00  0.00    +0.380 N 
ATOM      6  C   UNL     1      -3.897   0.156  -8.926  0.00  0.00    -0.074 C 
ATOM      7  H   UNL     1      -2.800  -1.549  -9.413  0.00  0.00    -0.082 HD
ENDROOT
BRANCH   1   8
ATOM      8  C   UNL     1      -3.673   1.354  -6.744  0.00  0.00    +0.086 C 
BRANCH   8  10
ATOM      9  C   UNL     1      -4.303  -0.456  -5.264  0.00  0.00    +0.105 C 
ATOM     10  N   UNL     1      -4.791   0.595  -6.166  0.00  0.00    -0.300 NA
BRANCH  10  11
ATOM     11  C   UNL     1      -5.731   1.487  -5.475  0.00  0.00    +0.126 C 
BRANCH  11  12
ATOM     12  C   UNL     1      -6.977   0.721  -5.111  0.00  0.00    +0.004 A 
ATOM     13  C   UNL     1      -7.251   0.024  -3.981  0.00  0.00    +0.013 A 
ATOM     14  C   UNL     1      -8.474  -0.609  -3.864  0.00  0.00    +0.009 A 
ATOM     15  C   UNL     1      -9.363  -0.514  -4.883  0.00  0.00    -0.026 A 
ATOM     16  S   UNL     1      -8.471   0.487  -6.060  0.00  0.00    -0.099 S 
BRANCH  15  17
ATOM     17  C   UNL     1     -10.744  -1.107  -4.995  0.00  0.00    -0.036 C 
BRANCH  17  18
ATOM     18  N   UNL     1     -11.729  -0.159  -4.458  0.00  0.00    +0.383 N 
ATOM     19  C   UNL     1     -11.579   1.178  -5.088  0.00  0.00    -0.078 C 
ATOM     20  C   UNL     1     -12.952   1.849  -4.828  0.00  0.00    -0.020 C 
ATOM     21  C   UNL     1     -13.946   0.676  -4.993  0.00  0.00    -0.020 C 
ATOM     22  C   UNL     1     -13.108  -0.596  -4.765  0.00  0.00    -0.078 C 
ATOM     23  H   UNL     1     -11.550  -0.123  -3.373  0.00  0.00    -0.081 HD
ENDBRANCH  17  18
ENDBRANCH  15  17
ENDBRANCH  11  12
ENDBRANCH  10  11
ENDBRANCH   8  10
ENDBRANCH   1   8
BRANCH   5  24
ATOM     24  C   UNL     1      -4.113  -1.110 -10.978  0.00  0.00    -0.074 C 
BRANCH  24  25
ATOM     25  C   UNL     1      -3.415  -2.155 -11.851  0.00  0.00    +0.016 C 
BRANCH  25  26
ATOM     26  C   UNL     1      -4.358  -2.618 -12.931  0.00  0.00    -0.049 A 
ATOM     27  C   UNL     1      -5.185  -3.704 -12.706  0.00  0.00    +0.007 A 
ATOM     28  C   UNL     1      -6.054  -4.127 -13.693  0.00  0.00    +0.046 A 
ATOM     29  C   UNL     1      -6.089  -3.469 -14.914  0.00  0.00    +0.120 A 
ATOM     30  C   UNL     1      -5.254  -2.384 -15.139  0.00  0.00    +0.046 A 
ATOM     31  C   UNL     1      -4.391  -1.961 -14.147  0.00  0.00    +0.007 A 
BRANCH  29  32
ATOM     32  O   UNL     1      -6.940  -3.887 -15.888  0.00  0.00    -0.495 OA
ATOM     33  C   UNL     1      -7.770  -5.010 -15.586  0.00  0.00    +0.277 C 
ENDBRANCH  29  32
ENDBRANCH  25  26
ENDBRANCH  24  25
ENDBRANCH   5  24
TORSDOF 10
