REMARK  Name = ZINC00663674
REMARK  8 active torsions:
REMARK  status: ('A' for Active; 'I' for Inactive)
REMARK    1  A    between atoms: C_1  and  O_2
REMARK    2  A    between atoms: O_2  and  C_3
REMARK    3  A    between atoms: C_6  and  C_11
REMARK    4  A    between atoms: C_8  and  O_9
REMARK    5  A    between atoms: O_9  and  C_10
REMARK    6  A    between atoms: C_11  and  C_13
REMARK    7  A    between atoms: C_14  and  N_31
REMARK    8  A    between atoms: C_16  and  C_25
REMARK                            x       y       z     vdW  Elec       q    Type
REMARK                         _______ _______ _______ _____ _____    ______ ____
ROOT
ATOM      1  C   UNL     1      -0.597  -2.278  -0.178  0.00  0.00    +0.083 A 
ATOM      2  C   UNL     1      -1.153  -1.014  -0.116  0.00  0.00    +0.053 A 
ATOM      3  C   UNL     1      -0.323   0.079   0.357  0.00  0.00    +0.037 A 
ATOM      4  C   UNL     1      -0.663   1.456   0.510  0.00  0.00    -0.000 A 
ATOM      5  C   UNL     1       0.298   2.340   0.987  0.00  0.00    -0.018 A 
ATOM      6  C   UNL     1       1.565   1.881   1.304  0.00  0.00    +0.046 A 
ATOM      7  N   UNL     1       1.868   0.602   1.157  0.00  0.00    -0.244 NA
ATOM      8  C   UNL     1       0.998  -0.276   0.712  0.00  0.00    +0.112 A 
ATOM      9  S   UNL     1       1.069  -2.023   0.402  0.00  0.00    -0.064 S 
ATOM     10  C   UNL     1       2.416   3.034   1.796  0.00  0.00    +0.056 C 
ATOM     11  C   UNL     1       1.415   4.150   2.159  0.00  0.00    +0.011 C 
ATOM     12  C   UNL     1       0.215   3.830   1.243  0.00  0.00    +0.038 C 
ENDROOT
BRANCH   4  13
ATOM     13  C   UNL     1      -2.020   1.938   0.161  0.00  0.00    +0.001 A 
ATOM     14  C   UNL     1      -2.433   1.994  -1.175  0.00  0.00    +0.011 A 
ATOM     15  C   UNL     1      -3.712   2.446  -1.448  0.00  0.00    +0.020 A 
ATOM     16  C   UNL     1      -4.529   2.837  -0.402  0.00  0.00    +0.111 A 
ATOM     17  N   UNL     1      -4.111   2.778   0.847  0.00  0.00    -0.263 NA
ATOM     18  C   UNL     1      -2.905   2.349   1.157  0.00  0.00    +0.119 A 
ENDBRANCH   4  13
BRANCH   2  19
ATOM     19  N   UNL     1      -2.469  -0.796  -0.494  0.00  0.00    -0.356 N 
ATOM     20  H   UNL     1      -2.935  -1.456  -1.030  0.00  0.00    +0.142 HD
ATOM     21  H   UNL     1      -2.924   0.017  -0.223  0.00  0.00    +0.142 HD
ENDBRANCH   2  19
BRANCH   1  22
ATOM     22  C   UNL     1      -1.204  -3.484  -0.601  0.00  0.00    +0.202 C 
ATOM     23  O   UNL     1      -2.393  -3.506  -0.871  0.00  0.00    -0.286 OA
BRANCH  22  27
ATOM     24  C   UNL     1       1.111  -7.035  -0.929  0.00  0.00    +0.162 A 
ATOM     25  C   UNL     1      -0.243  -7.114  -0.634  0.00  0.00    +0.050 A 
ATOM     26  C   UNL     1      -0.997  -5.965  -0.527  0.00  0.00    +0.015 A 
ATOM     27  C   UNL     1      -0.398  -4.717  -0.715  0.00  0.00    +0.027 A 
ATOM     28  C   UNL     1       0.964  -4.637  -1.017  0.00  0.00    +0.061 A 
ATOM     29  C   UNL     1       1.715  -5.792  -1.118  0.00  0.00    +0.162 A 
BRANCH  24  31
ATOM     30  C   UNL     1       1.167  -9.409  -0.829  0.00  0.00    +0.277 C 
ATOM     31  O   UNL     1       1.849  -8.170  -1.034  0.00  0.00    -0.491 OA
ENDBRANCH  24  31
BRANCH  29  32
ATOM     32  O   UNL     1       3.042  -5.718  -1.407  0.00  0.00    -0.491 OA
ATOM     33  C   UNL     1       3.594  -4.413  -1.588  0.00  0.00    +0.277 C 
ENDBRANCH  29  32
ENDBRANCH  22  27
ENDBRANCH   1  22
TORSDOF 6
