REMARK  Name = ZINC28059449
REMARK  8 active torsions:
REMARK  status: ('A' for Active; 'I' for Inactive)
REMARK    1  A    between atoms: C_1  and  O_2
REMARK    2  A    between atoms: O_2  and  C_3
REMARK    3  A    between atoms: C_8  and  C_9
REMARK    4  A    between atoms: C_26  and  C_28
REMARK    5  A    between atoms: C_31  and  O_36
REMARK    6  A    between atoms: C_32  and  O_34
REMARK    7  A    between atoms: O_34  and  C_35
REMARK    8  A    between atoms: O_36  and  C_37
REMARK                            x       y       z     vdW  Elec       q    Type
REMARK                         _______ _______ _______ _____ _____    ______ ____
ROOT
ATOM      1  C   UNL     1       4.914  -2.634  -3.424  0.00  0.00    +0.238 C 
ATOM      2  C   UNL     1       3.878  -2.129  -4.403  0.00  0.00    +0.026 C 
ATOM      3  C   UNL     1       4.256  -1.301  -5.379  0.00  0.00    +0.050 C 
ATOM      4  C   UNL     1       5.678  -0.886  -5.442  0.00  0.00    +0.038 A 
ATOM      5  C   UNL     1       6.218  -0.313  -6.586  0.00  0.00    +0.013 A 
ATOM      6  C   UNL     1       7.549   0.059  -6.598  0.00  0.00    +0.001 A 
ATOM      7  C   UNL     1       8.339  -0.136  -5.479  0.00  0.00    +0.004 A 
ATOM      8  C   UNL     1       7.809  -0.706  -4.335  0.00  0.00    +0.046 A 
ATOM      9  C   UNL     1       6.480  -1.083  -4.310  0.00  0.00    +0.131 A 
ATOM     10  O   UNL     1       5.923  -1.648  -3.208  0.00  0.00    -0.479 OA
ATOM     11  N   UNL     1       3.360  -0.822  -6.342  0.00  0.00    -0.282 N 
ATOM     12  C   UNL     1       2.118  -1.431  -6.414  0.00  0.00    +0.240 A 
ATOM     13  N   UNL     1       1.181  -1.366  -7.316  0.00  0.00    -0.092 NA
ATOM     14  N   UNL     1       0.184  -2.111  -6.978  0.00  0.00    -0.021 NA
ATOM     15  N   UNL     1       0.419  -2.693  -5.846  0.00  0.00    -0.042 NA
ATOM     16  N   UNL     1       1.683  -2.269  -5.437  0.00  0.00    -0.201 N 
ATOM     17  C   UNL     1       2.451  -2.592  -4.244  0.00  0.00    +0.174 C 
ATOM     18  H   UNL     1       3.653   0.007  -7.003  0.00  0.00    +0.155 HD
ENDROOT
BRANCH   1  24
ATOM     19  C   UNL     1       4.953  -5.118  -3.761  0.00  0.00    +0.127 A 
ATOM     20  C   UNL     1       5.541  -6.268  -4.270  0.00  0.00    +0.046 A 
ATOM     21  C   UNL     1       6.719  -6.180  -4.987  0.00  0.00    +0.004 A 
ATOM     22  C   UNL     1       7.311  -4.949  -5.198  0.00  0.00    +0.001 A 
ATOM     23  C   UNL     1       6.725  -3.802  -4.697  0.00  0.00    +0.011 A 
ATOM     24  C   UNL     1       5.550  -3.884  -3.974  0.00  0.00    +0.039 A 
BRANCH  19  26
ATOM     25  C   UNL     1       3.237  -6.505  -2.875  0.00  0.00    +0.277 C 
ATOM     26  O   UNL     1       3.795  -5.202  -3.055  0.00  0.00    -0.495 OA
ENDBRANCH  19  26
ENDBRANCH   1  24
BRANCH  17  27
ATOM     27  C   UNL     1       1.834  -1.908  -3.051  0.00  0.00    -0.015 A 
ATOM     28  C   UNL     1       1.746  -0.529  -3.017  0.00  0.00    +0.010 A 
ATOM     29  C   UNL     1       1.175   0.104  -1.928  0.00  0.00    +0.050 A 
ATOM     30  C   UNL     1       0.701  -0.645  -0.863  0.00  0.00    +0.162 A 
ATOM     31  C   UNL     1       0.790  -2.033  -0.897  0.00  0.00    +0.162 A 
ATOM     32  C   UNL     1       1.358  -2.661  -1.994  0.00  0.00    +0.055 A 
BRANCH  31  33
ATOM     33  O   UNL     1       0.320  -2.772   0.143  0.00  0.00    -0.491 OA
ATOM     34  C   UNL     1       0.445  -4.192   0.039  0.00  0.00    +0.277 C 
ENDBRANCH  31  33
BRANCH  30  35
ATOM     35  O   UNL     1       0.144  -0.024   0.212  0.00  0.00    -0.491 OA
ATOM     36  C   UNL     1       0.087   1.403   0.179  0.00  0.00    +0.277 C 
ENDBRANCH  30  35
ENDBRANCH  17  27
TORSDOF 5
