REMARK  Name = ZINC66784070
REMARK  5 active torsions:
REMARK  status: ('A' for Active; 'I' for Inactive)
REMARK    1  A    between atoms: C_1  and  C_2
REMARK    2  A    between atoms: C_6  and  C_8
REMARK    3  A    between atoms: N_10  and  N_11
REMARK    4  A    between atoms: C_12  and  C_14
REMARK    5  A    between atoms: C_15  and  C_16
REMARK                            x       y       z     vdW  Elec       q    Type
REMARK                         _______ _______ _______ _____ _____    ______ ____
ROOT
ATOM      1  N   UNL     1       0.085  -4.905   3.652  0.00  0.00    -0.231 N 
ATOM      2  C   UNL     1       0.102  -6.252   3.639  0.00  0.00    +0.253 C 
ATOM      3  O   UNL     1       0.106  -6.851   2.579  0.00  0.00    -0.269 OA
ATOM      4  H   UNL     1       0.082  -4.428   4.496  0.00  0.00    +0.173 HD
ENDROOT
BRANCH   1   7
ATOM      5  C   UNL     1       0.052  -2.845   2.458  0.00  0.00    +0.260 C 
ATOM      6  O   UNL     1       0.049  -2.248   3.516  0.00  0.00    -0.269 OA
ATOM      7  N   UNL     1       0.070  -4.193   2.445  0.00  0.00    -0.230 N 
ATOM      8  H   UNL     1       0.072  -4.670   1.601  0.00  0.00    +0.173 HD
BRANCH   5  14
ATOM      9  C   UNL     1      -0.018   1.503   0.010  0.00  0.00    +0.044 C 
ATOM     10  C   UNL     1       0.002  -0.004   0.002  0.00  0.00    -0.050 A 
ATOM     11  C   UNL     1       0.006  -0.688  -1.201  0.00  0.00    +0.003 A 
ATOM     12  C   UNL     1       0.025  -2.071  -1.218  0.00  0.00    +0.001 A 
ATOM     13  C   UNL     1       0.040  -2.778  -0.033  0.00  0.00    +0.013 A 
ATOM     14  C   UNL     1       0.036  -2.095   1.184  0.00  0.00    +0.038 A 
ATOM     15  C   UNL     1       0.023  -0.699   1.194  0.00  0.00    +0.016 A 
ENDBRANCH   5  14
ENDBRANCH   1   7
BRANCH   2  16
ATOM     16  C   UNL     1       0.118  -6.995   4.899  0.00  0.00    +0.069 C 
ATOM     17  C   UNL     1       0.136  -8.345   4.886  0.00  0.00    +0.013 C 
BRANCH  17  18
ATOM     18  C   UNL     1       0.151  -9.091   6.152  0.00  0.00    -0.020 A 
ATOM     19  C   UNL     1       0.175 -10.491   6.142  0.00  0.00    +0.057 A 
ATOM     20  C   UNL     1       0.190 -11.188   7.333  0.00  0.00    +0.168 A 
ATOM     21  C   UNL     1       0.181 -10.498   8.547  0.00  0.00    +0.184 A 
ATOM     22  C   UNL     1       0.158  -9.109   8.557  0.00  0.00    +0.087 A 
ATOM     23  C   UNL     1       0.147  -8.405   7.372  0.00  0.00    +0.031 A 
ATOM     24 CL   UNL     1       0.147  -8.256  10.069  0.00  0.00    -0.080 Cl
ATOM     25  O   UNL     1       0.199 -11.407   9.564  0.00  0.00    -0.451 OA
ATOM     26  C   UNL     1      -0.195 -12.658   8.970  0.00  0.00    +0.466 C 
ATOM     27  O   UNL     1       0.214 -12.528   7.595  0.00  0.00    -0.453 OA
ENDBRANCH  17  18
ENDBRANCH   2  16
TORSDOF 4
