REMARK  Name = ZINC60162056
REMARK  8 active torsions:
REMARK  status: ('A' for Active; 'I' for Inactive)
REMARK    1  A    between atoms: C_1  and  C_2
REMARK    2  A    between atoms: N_5  and  C_8
REMARK    3  A    between atoms: C_8  and  C_10
REMARK    4  A    between atoms: C_8  and  C_11
REMARK    5  A    between atoms: C_11  and  N_12
REMARK    6  A    between atoms: C_13  and  C_15
REMARK    7  A    between atoms: C_15  and  N_16
REMARK    8  A    between atoms: C_17  and  C_19
REMARK                            x       y       z     vdW  Elec       q    Type
REMARK                         _______ _______ _______ _____ _____    ______ ____
ROOT
ATOM      1  N   UNL     1       1.401  -3.769   2.567  0.00  0.00    -0.316 N 
ATOM      2  C   UNL     1       2.344  -4.097   3.472  0.00  0.00    +0.230 C 
ATOM      3  O   UNL     1       2.100  -4.917   4.332  0.00  0.00    -0.274 OA
ATOM      4  H   UNL     1       1.597  -3.113   1.879  0.00  0.00    +0.149 HD
ENDROOT
BRANCH   1   5
ATOM      5  C   UNL     1       0.082  -4.402   2.621  0.00  0.00    +0.089 C 
BRANCH   5   6
ATOM      6  C   UNL     1      -0.753  -3.945   1.423  0.00  0.00    -0.054 C 
ATOM      7  C   UNL     1      -2.159  -4.540   1.525  0.00  0.00    -0.012 C 
BRANCH   6  12
ATOM      8  C   UNL     1      -2.251   1.558   1.371  0.00  0.00    +0.007 C 
ATOM      9  C   UNL     1      -2.293   0.028   1.371  0.00  0.00    -0.018 C 
ATOM     10  C   UNL     1      -1.621  -0.503   2.641  0.00  0.00    -0.016 C 
ATOM     11  C   UNL     1      -1.596  -2.032   2.597  0.00  0.00    -0.078 C 
ATOM     12  N   UNL     1      -0.842  -2.478   1.419  0.00  0.00    +0.382 N 
ATOM     13  C   UNL     1      -1.519  -2.034   0.196  0.00  0.00    -0.078 C 
ATOM     14  C   UNL     1      -1.541  -0.504   0.147  0.00  0.00    -0.016 C 
ATOM     15  H   UNL     1       0.088  -2.088   1.449  0.00  0.00    -0.081 HD
ENDBRANCH   6  12
ENDBRANCH   5   6
ENDBRANCH   1   5
BRANCH   2  16
ATOM     16  C   UNL     1       3.702  -3.445   3.417  0.00  0.00    +0.200 C 
BRANCH  16  17
ATOM     17  N   UNL     1       4.539  -3.967   4.500  0.00  0.00    -0.300 N 
ATOM     18  C   UNL     1       5.803  -3.524   4.647  0.00  0.00    +0.280 C 
ATOM     19  O   UNL     1       6.250  -2.691   3.880  0.00  0.00    -0.267 OA
ATOM     20  H   UNL     1       4.183  -4.631   5.111  0.00  0.00    +0.150 HD
BRANCH  18  21
ATOM     21  C   UNL     1       6.641  -4.046   5.730  0.00  0.00    +0.191 A 
ATOM     22  C   UNL     1       7.931  -3.682   5.994  0.00  0.00    +0.056 A 
ATOM     23  C   UNL     1       8.340  -4.426   7.111  0.00  0.00    +0.058 A 
ATOM     24  C   UNL     1       7.295  -5.203   7.476  0.00  0.00    +0.171 A 
ATOM     25  O   UNL     1       6.271  -4.967   6.645  0.00  0.00    -0.444 OA
ATOM     26 BR   UNL     1       7.279  -6.417   8.926  0.00  0.00    -0.008 Br
ENDBRANCH  18  21
ENDBRANCH  16  17
ENDBRANCH   2  16
TORSDOF 6
