REMARK  Name = ZINC45026145
REMARK  5 active torsions:
REMARK  status: ('A' for Active; 'I' for Inactive)
REMARK    1  A    between atoms: C_4  and  N_7
REMARK    2  A    between atoms: C_8  and  C_21
REMARK    3  A    between atoms: C_11  and  S_12
REMARK    4  A    between atoms: S_12  and  C_13
REMARK    5  A    between atoms: C_21  and  N_22
REMARK                            x       y       z     vdW  Elec       q    Type
REMARK                         _______ _______ _______ _____ _____    ______ ____
ROOT
ATOM      1  N   UNL     1       3.624  -0.652  -0.037  0.00  0.00    -0.275 N 
ATOM      2  C   UNL     1       4.114  -1.448  -1.038  0.00  0.00    +0.122 A 
ATOM      3  N   UNL     1       5.279  -1.886  -0.649  0.00  0.00    -0.135 NA
ATOM      4  N   UNL     1       5.557  -1.426   0.518  0.00  0.00    -0.122 NA
ATOM      5  C   UNL     1       4.580  -0.658   0.941  0.00  0.00    +0.202 A 
ENDROOT
BRANCH   1   9
ATOM      6  C   UNL     1      -0.017   1.379   0.010  0.00  0.00    +0.000 A 
ATOM      7  C   UNL     1       1.170   2.089   0.002  0.00  0.00    +0.002 A 
ATOM      8  C   UNL     1       2.377   1.419  -0.013  0.00  0.00    +0.026 A 
ATOM      9  C   UNL     1       2.399   0.031  -0.021  0.00  0.00    +0.050 A 
ATOM     10  C   UNL     1       1.207  -0.680  -0.013  0.00  0.00    +0.026 A 
ATOM     11  C   UNL     1       0.002  -0.004   0.002  0.00  0.00    +0.002 A 
ENDBRANCH   1   9
BRANCH   5  12
ATOM     12  S   UNL     1       4.512   0.201   2.478  0.00  0.00    -0.030 S 
BRANCH  12  13
ATOM     13  C   UNL     1       6.032  -0.216   3.266  0.00  0.00    +0.111 A 
ATOM     14  C   UNL     1       6.333   0.287   4.533  0.00  0.00    +0.075 A 
ATOM     15  C   UNL     1       7.537  -0.067   5.114  0.00  0.00    +0.135 A 
ATOM     16  N   UNL     1       8.364  -0.868   4.455  0.00  0.00    -0.203 NA
ATOM     17  C   UNL     1       8.051  -1.330   3.253  0.00  0.00    +0.215 A 
ATOM     18  N   UNL     1       6.906  -1.019   2.666  0.00  0.00    -0.208 NA
ATOM     19  N   UNL     1       8.941  -2.164   2.598  0.00  0.00    -0.327 N 
ATOM     20 CL   UNL     1       7.962   0.530   6.688  0.00  0.00    -0.062 Cl
ATOM     21  H   UNL     1       9.781  -2.402   3.019  0.00  0.00    +0.145 HD
ATOM     22  H   UNL     1       8.723  -2.509   1.718  0.00  0.00    +0.145 HD
ENDBRANCH  12  13
ENDBRANCH   5  12
BRANCH   2  23
ATOM     23  C   UNL     1       3.433  -1.761  -2.345  0.00  0.00    -0.001 C 
BRANCH  23  24
ATOM     24  N   UNL     1       3.818  -0.761  -3.349  0.00  0.00    +0.384 N 
ATOM     25  C   UNL     1       5.252  -0.917  -3.704  0.00  0.00    -0.078 C 
ATOM     26  C   UNL     1       5.349  -0.239  -5.093  0.00  0.00    -0.020 C 
ATOM     27  C   UNL     1       4.015  -0.636  -5.766  0.00  0.00    -0.020 C 
ATOM     28  C   UNL     1       3.066  -0.982  -4.604  0.00  0.00    -0.078 C 
ATOM     29  H   UNL     1       3.644   0.170  -2.999  0.00  0.00    -0.081 HD
ENDBRANCH  23  24
ENDBRANCH   2  23
TORSDOF 5
