REMARK  Name = ZINC00912504
REMARK  8 active torsions:
REMARK  status: ('A' for Active; 'I' for Inactive)
REMARK    1  A    between atoms: C_1  and  O_2
REMARK    2  A    between atoms: O_2  and  C_3
REMARK    3  A    between atoms: C_7  and  C_17
REMARK    4  A    between atoms: C_14  and  O_15
REMARK    5  A    between atoms: O_15  and  C_16
REMARK    6  A    between atoms: C_17  and  C_19
REMARK    7  A    between atoms: C_17  and  N_30
REMARK    8  A    between atoms: N_23  and  C_24
REMARK                            x       y       z     vdW  Elec       q    Type
REMARK                         _______ _______ _______ _____ _____    ______ ____
ROOT
ATOM      1  C   UNL     1      -2.491   0.995   0.019  0.00  0.00    +0.179 C 
ENDROOT
BRANCH   1   6
ATOM      2  C   UNL     1       3.405   2.822  -0.536  0.00  0.00    +0.162 A 
ATOM      3  C   UNL     1       2.377   1.915  -0.405  0.00  0.00    +0.059 A 
ATOM      4  C   UNL     1       1.055   2.372  -0.326  0.00  0.00    +0.003 A 
ATOM      5  C   UNL     1      -0.059   1.436  -0.186  0.00  0.00    +0.021 A 
ATOM      6  C   UNL     1      -1.321   1.934  -0.118  0.00  0.00    +0.045 A 
ATOM      7  C   UNL     1      -1.539   3.325  -0.171  0.00  0.00    +0.255 A 
ATOM      8  O   UNL     1      -2.679   3.751  -0.104  0.00  0.00    -0.268 OA
ATOM      9  N   UNL     1      -0.521   4.195  -0.299  0.00  0.00    -0.322 N 
ATOM     10  H   UNL     1      -0.708   5.146  -0.336  0.00  0.00    +0.169 HD
ATOM     11  C   UNL     1       0.784   3.754  -0.379  0.00  0.00    +0.053 A 
ATOM     12  C   UNL     1       1.833   4.655  -0.511  0.00  0.00    +0.075 A 
ATOM     13  C   UNL     1       3.134   4.193  -0.589  0.00  0.00    +0.163 A 
BRANCH   2  15
ATOM     14  C   UNL     1       4.897   0.970  -0.554  0.00  0.00    +0.277 C 
ATOM     15  O   UNL     1       4.690   2.383  -0.614  0.00  0.00    -0.491 OA
ENDBRANCH   2  15
BRANCH  13  16
ATOM     16  O   UNL     1       4.156   5.078  -0.717  0.00  0.00    -0.491 OA
ATOM     17  C   UNL     1       3.813   6.464  -0.764  0.00  0.00    +0.277 C 
ENDBRANCH  13  16
ENDBRANCH   1   6
BRANCH   1  18
ATOM     18  N   UNL     1      -3.257   1.341   1.224  0.00  0.00    -0.316 N 
ATOM     19  C   UNL     1      -2.370   1.794   2.297  0.00  0.00    +0.106 C 
ATOM     20  C   UNL     1      -3.220   2.113   3.534  0.00  0.00    +0.024 C 
ATOM     21  C   UNL     1      -3.786   0.795   4.068  0.00  0.00    +0.038 C 
ATOM     22  C   UNL     1      -4.370  -0.004   2.930  0.00  0.00    -0.026 A 
ATOM     23  C   UNL     1      -4.088   0.289   1.607  0.00  0.00    +0.034 A 
ATOM     24  C   UNL     1      -4.652  -0.492   0.597  0.00  0.00    +0.023 A 
ATOM     25  C   UNL     1      -5.486  -1.544   0.912  0.00  0.00    +0.002 A 
ATOM     26  C   UNL     1      -5.768  -1.829   2.235  0.00  0.00    +0.000 A 
ATOM     27  C   UNL     1      -5.211  -1.061   3.239  0.00  0.00    +0.005 A 
ENDBRANCH   1  18
BRANCH   1  28
ATOM     28  C   UNL     1      -3.379   1.118  -1.193  0.00  0.00    +0.177 A 
ATOM     29  N   UNL     1      -4.203   2.101  -1.462  0.00  0.00    -0.111 NA
ATOM     30  N   UNL     1      -4.779   1.840  -2.585  0.00  0.00    -0.023 NA
ATOM     31  N   UNL     1      -4.343   0.717  -3.039  0.00  0.00    -0.044 NA
ATOM     32  N   UNL     1      -3.474   0.243  -2.211  0.00  0.00    -0.224 N 
BRANCH  32  33
ATOM     33  C   UNL     1      -2.733  -1.013  -2.351  0.00  0.00    +0.111 C 
ATOM     34  C   UNL     1      -1.898  -0.972  -3.632  0.00  0.00    +0.027 C 
ATOM     35  C   UNL     1      -1.124  -2.284  -3.779  0.00  0.00    +0.002 C 
ATOM     36  C   UNL     1      -2.110  -3.452  -3.850  0.00  0.00    +0.000 C 
ATOM     37  C   UNL     1      -2.945  -3.493  -2.569  0.00  0.00    +0.002 C 
ATOM     38  C   UNL     1      -3.719  -2.181  -2.422  0.00  0.00    +0.027 C 
ENDBRANCH  32  33
ENDBRANCH   1  28
TORSDOF 6
