REMARK  Name = ZINC49590313
REMARK  9 active torsions:
REMARK  status: ('A' for Active; 'I' for Inactive)
REMARK    1  A    between atoms: C_1  and  C_2
REMARK    2  A    between atoms: C_2  and  C_3
REMARK    3  A    between atoms: C_2  and  C_4
REMARK    4  A    between atoms: C_7  and  C_10
REMARK    5  A    between atoms: C_13  and  N_15
REMARK    6  A    between atoms: C_16  and  C_18
REMARK    7  A    between atoms: C_18  and  N_19
REMARK    8  A    between atoms: C_22  and  C_26
REMARK    9  A    between atoms: C_22  and  C_27
REMARK                            x       y       z     vdW  Elec       q    Type
REMARK                         _______ _______ _______ _____ _____    ______ ____
ROOT
ATOM      1  C   UNL     1      -5.396  -1.996   0.043  0.00  0.00    +0.134 A 
ATOM      2  N   UNL     1      -6.367  -1.810   0.930  0.00  0.00    -0.139 NA
ATOM      3  N   UNL     1      -7.509  -2.326   0.787  0.00  0.00    -0.121 NA
ATOM      4  C   UNL     1      -7.807  -3.088  -0.264  0.00  0.00    +0.218 A 
ATOM      5  S   UNL     1      -6.246  -3.037  -1.140  0.00  0.00    -0.026 S 
ENDROOT
BRANCH   1   9
ATOM      6  C   UNL     1      -1.412  -0.526   0.013  0.00  0.00    -0.045 A 
ATOM      7  C   UNL     1      -2.257  -0.202   1.059  0.00  0.00    +0.004 A 
ATOM      8  C   UNL     1      -3.553  -0.676   1.075  0.00  0.00    +0.011 A 
ATOM      9  C   UNL     1      -4.010  -1.484   0.032  0.00  0.00    +0.009 A 
ATOM     10  C   UNL     1      -3.151  -1.807  -1.020  0.00  0.00    +0.011 A 
ATOM     11  C   UNL     1      -1.860  -1.321  -1.027  0.00  0.00    +0.004 A 
BRANCH   6  13
ATOM     12  C   UNL     1      -0.019   1.526   0.010  0.00  0.00    +0.012 C 
ATOM     13  C   UNL     1       0.002  -0.004   0.002  0.00  0.00    +0.013 C 
ATOM     14  C   UNL     1       0.742  -0.511   1.242  0.00  0.00    +0.012 C 
ENDBRANCH   6  13
ENDBRANCH   1   9
BRANCH   4  15
ATOM     15  N   UNL     1      -8.970  -3.722  -0.584  0.00  0.00    -0.184 NA
ATOM     16  C   UNL     1     -10.004  -3.623   0.202  0.00  0.00    +0.267 C 
ATOM     17  O   UNL     1      -9.923  -2.892   1.331  0.00  0.00    -0.269 OA
BRANCH  16  18
ATOM     18  C   UNL     1     -11.290  -4.324  -0.152  0.00  0.00    +0.218 C 
BRANCH  18  19
ATOM     19  N   UNL     1     -11.121  -5.044  -1.417  0.00  0.00    -0.215 N 
ATOM     20  C   UNL     1     -11.367  -4.512  -2.630  0.00  0.00    +0.246 C 
ATOM     21  O   UNL     1     -11.755  -3.389  -2.872  0.00  0.00    -0.273 OA
ATOM     22  C   UNL     1     -11.057  -5.608  -3.630  0.00  0.00    +0.107 C 
ATOM     23  N   UNL     1     -10.633  -6.737  -2.784  0.00  0.00    -0.285 N 
ATOM     24  C   UNL     1     -10.698  -6.310  -1.510  0.00  0.00    +0.310 C 
ATOM     25  O   UNL     1     -10.409  -6.998  -0.551  0.00  0.00    -0.252 OA
ATOM     26  C   UNL     1      -9.924  -5.180  -4.565  0.00  0.00    +0.041 C 
ATOM     27  C   UNL     1     -12.308  -5.976  -4.430  0.00  0.00    +0.041 C 
ATOM     28  H   UNL     1     -10.357  -7.617  -3.087  0.00  0.00    +0.151 HD
ENDBRANCH  18  19
ENDBRANCH  16  18
ENDBRANCH   4  15
TORSDOF 5
