REMARK  Name = ZINC12879533
REMARK  10 active torsions:
REMARK  status: ('A' for Active; 'I' for Inactive)
REMARK    1  A    between atoms: C_1  and  C_2
REMARK    2  A    between atoms: C_2  and  C_3
REMARK    3  A    between atoms: C_2  and  O_4
REMARK    4  A    between atoms: O_4  and  C_5
REMARK    5  A    between atoms: C_8  and  C_13
REMARK    6  A    between atoms: C_10  and  O_11
REMARK    7  A    between atoms: O_11  and  C_12
REMARK    8  A    between atoms: N_20  and  C_35
REMARK    9  A    between atoms: C_23  and  C_34
REMARK   10  A    between atoms: C_35  and  C_36
REMARK                            x       y       z     vdW  Elec       q    Type
REMARK                         _______ _______ _______ _____ _____    ______ ____
ROOT
ATOM      1  C   UNL     1      -0.775  -6.322   1.060  0.00  0.00    +0.069 C 
ATOM      2  C   UNL     1      -0.768  -6.457  -0.468  0.00  0.00    +0.122 C 
ATOM      3  N   UNL     1      -0.733  -5.108  -1.063  0.00  0.00    -0.280 N 
ATOM      4  C   UNL     1       0.337  -4.737  -1.772  0.00  0.00    +0.234 C 
ATOM      5  O   UNL     1       1.167  -5.582  -2.032  0.00  0.00    -0.274 OA
ATOM      6  C   UNL     1       0.574  -3.347  -2.271  0.00  0.00    +0.203 C 
ATOM      7  N   UNL     1      -0.468  -2.427  -1.843  0.00  0.00    -0.288 N 
ATOM      8  C   UNL     1      -1.571  -2.808  -1.199  0.00  0.00    +0.245 C 
ATOM      9  O   UNL     1      -2.375  -1.954  -0.891  0.00  0.00    -0.273 OA
ATOM     10  C   UNL     1      -1.874  -4.223  -0.835  0.00  0.00    +0.151 C 
ATOM     11  C   UNL     1      -2.265  -4.323   0.620  0.00  0.00    +0.054 A 
ATOM     12  C   UNL     1      -1.771  -5.263   1.456  0.00  0.00    -0.008 A 
ATOM     13  C   UNL     1      -2.379  -5.039   2.752  0.00  0.00    +0.004 A 
ATOM     14  C   UNL     1      -2.251  -5.688   3.984  0.00  0.00    +0.010 A 
ATOM     15  C   UNL     1      -2.997  -5.194   5.026  0.00  0.00    +0.001 A 
ATOM     16  C   UNL     1      -3.839  -4.105   4.876  0.00  0.00    +0.002 A 
ATOM     17  C   UNL     1      -3.984  -3.443   3.669  0.00  0.00    +0.026 A 
ATOM     18  C   UNL     1      -3.239  -3.922   2.594  0.00  0.00    +0.047 A 
ATOM     19  N   UNL     1      -3.143  -3.516   1.293  0.00  0.00    -0.356 N 
ATOM     20  H   UNL     1      -3.624  -2.769   0.905  0.00  0.00    +0.166 HD
ATOM     21  C   UNL     1      -3.053  -4.710  -1.680  0.00  0.00    +0.048 C 
ENDROOT
BRANCH   1  25
ATOM     22  C   UNL     1       3.124  -5.199   2.411  0.00  0.00    +0.162 A 
ATOM     23  C   UNL     1       2.428  -4.380   1.536  0.00  0.00    +0.050 A 
ATOM     24  C   UNL     1       1.171  -4.749   1.096  0.00  0.00    +0.008 A 
ATOM     25  C   UNL     1       0.599  -5.928   1.537  0.00  0.00    -0.035 A 
ATOM     26  C   UNL     1       1.288  -6.749   2.411  0.00  0.00    +0.053 A 
ATOM     27  C   UNL     1       2.551  -6.388   2.850  0.00  0.00    +0.162 A 
BRANCH  27  28
ATOM     28  O   UNL     1       3.230  -7.194   3.710  0.00  0.00    -0.491 OA
ATOM     29  C   UNL     1       2.580  -8.400   4.119  0.00  0.00    +0.277 C 
ENDBRANCH  27  28
BRANCH  22  30
ATOM     30  O   UNL     1       4.364  -4.840   2.840  0.00  0.00    -0.486 OA
BRANCH  30  32
ATOM     31  C   UNL     1       5.881  -3.062   3.452  0.00  0.00    +0.051 C 
ATOM     32  C   UNL     1       4.840  -3.552   2.444  0.00  0.00    +0.167 C 
ATOM     33  C   UNL     1       5.477  -3.647   1.057  0.00  0.00    +0.051 C 
ENDBRANCH  30  32
ENDBRANCH  22  30
ENDBRANCH   1  25
BRANCH   7  34
ATOM     34  C   UNL     1      -0.298  -1.003  -2.142  0.00  0.00    +0.140 C 
BRANCH  34  35
ATOM     35  C   UNL     1       0.435  -0.323  -0.984  0.00  0.00    +0.136 C 
ATOM     36  C   UNL     1       0.508   1.196  -1.231  0.00  0.00    +0.035 C 
ATOM     37  C   UNL     1       2.024   1.508  -1.229  0.00  0.00    +0.031 C 
ATOM     38  C   UNL     1       2.605   0.293  -0.462  0.00  0.00    +0.160 C 
ATOM     39  O   UNL     1       1.785  -0.809  -0.906  0.00  0.00    -0.375 OA
ENDBRANCH  34  35
ENDBRANCH   7  34
TORSDOF 6
