REMARK  Name = ZINC05164614
REMARK  6 active torsions:
REMARK  status: ('A' for Active; 'I' for Inactive)
REMARK    1  A    between atoms: C_1  and  O_2
REMARK    2  A    between atoms: O_2  and  C_3
REMARK    3  A    between atoms: C_3  and  C_5
REMARK    4  A    between atoms: C_9  and  N_10
REMARK    5  A    between atoms: C_11  and  C_13
REMARK    6  A    between atoms: N_15  and  N_16
REMARK                            x       y       z     vdW  Elec       q    Type
REMARK                         _______ _______ _______ _____ _____    ______ ____
ROOT
ATOM      1  N   UNL     1      -1.178   1.837  -0.352  0.00  0.00    -0.271 N 
ATOM      2  C   UNL     1      -0.009   1.197  -0.152  0.00  0.00    +0.305 C 
ATOM      3  O   UNL     1       0.001  -0.000   0.051  0.00  0.00    -0.265 OA
ATOM      4  H   UNL     1      -1.186   2.793  -0.514  0.00  0.00    +0.156 HD
ENDROOT
BRANCH   1   9
ATOM      5  C   UNL     1      -3.660   1.607  -0.504  0.00  0.00    +0.091 A 
ATOM      6  C   UNL     1      -4.746   0.645  -0.433  0.00  0.00    -0.021 A 
ATOM      7  C   UNL     1      -4.371  -0.629  -0.188  0.00  0.00    -0.004 A 
ATOM      8  S   UNL     1      -2.606  -0.566  -0.060  0.00  0.00    -0.077 S 
ATOM      9  C   UNL     1      -2.367   1.129  -0.327  0.00  0.00    +0.087 A 
ATOM     10  C   UNL     1      -5.264  -1.824  -0.055  0.00  0.00    +0.043 C 
ATOM     11  C   UNL     1      -6.706  -1.331   0.134  0.00  0.00    +0.005 C 
ATOM     12  C   UNL     1      -7.004  -0.262  -0.922  0.00  0.00    +0.005 C 
ATOM     13  C   UNL     1      -6.215   1.010  -0.610  0.00  0.00    +0.037 C 
BRANCH   5  14
ATOM     14  C   UNL     1      -3.917   3.027  -0.757  0.00  0.00    +0.342 C 
ATOM     15  O   UNL     1      -3.946   3.446  -1.898  0.00  0.00    -0.245 OA
BRANCH  14  17
ATOM     16  C   UNL     1      -4.373   5.262  -0.049  0.00  0.00    +0.280 C 
ATOM     17  O   UNL     1      -4.123   3.869   0.276  0.00  0.00    -0.464 OA
ENDBRANCH  14  17
ENDBRANCH   5  14
ENDBRANCH   1   9
BRANCH   2  18
ATOM     18  C   UNL     1       1.273   1.958  -0.185  0.00  0.00    +0.318 C 
ATOM     19  O   UNL     1       1.263   3.155  -0.388  0.00  0.00    -0.263 OA
ATOM     20  N   UNL     1       2.442   1.317   0.009  0.00  0.00    -0.199 N 
ATOM     21  H   UNL     1       2.450   0.360   0.171  0.00  0.00    +0.178 HD
BRANCH  20  22
ATOM     22  N   UNL     1       3.647   2.032  -0.022  0.00  0.00    -0.189 NA
ATOM     23  C   UNL     1       4.763   1.410   0.061  0.00  0.00    +0.037 C 
ATOM     24  C   UNL     1       4.796  -0.115   0.059  0.00  0.00    +0.052 C 
ATOM     25  C   UNL     1       5.963  -0.627  -0.749  0.00  0.00    +0.006 C 
ATOM     26  C   UNL     1       7.195  -0.774   0.154  0.00  0.00    +0.000 C 
ATOM     27  C   UNL     1       7.887   0.498   0.378  0.00  0.00    +0.000 C 
ATOM     28  C   UNL     1       7.020   1.520   1.126  0.00  0.00    +0.006 C 
ATOM     29  C   UNL     1       6.071   2.187   0.168  0.00  0.00    +0.052 C 
ENDBRANCH  20  22
ENDBRANCH   2  18
TORSDOF 5
