REMARK  Name = ZINC37153260
REMARK  3 active torsions:
REMARK  status: ('A' for Active; 'I' for Inactive)
REMARK    1  A    between atoms: C_3  and  O_8
REMARK    2  A    between atoms: O_8  and  C_9
REMARK    3  A    between atoms: C_15  and  C_17
REMARK                            x       y       z     vdW  Elec       q    Type
REMARK                         _______ _______ _______ _____ _____    ______ ____
ROOT
ATOM      1  O   UNL     1       3.548   2.104  -0.021  0.00  0.00    -0.488 OA
ENDROOT
BRANCH   1   4
ATOM      2  C   UNL     1       1.200  -0.665   0.212  0.00  0.00    +0.005 A 
ATOM      3  C   UNL     1       2.389   0.039   0.202  0.00  0.00    +0.046 A 
ATOM      4  C   UNL     1       2.380   1.410  -0.011  0.00  0.00    +0.122 A 
ATOM      5  C   UNL     1       1.177   2.071  -0.214  0.00  0.00    +0.060 A 
ATOM      6  C   UNL     1      -0.009   1.362  -0.203  0.00  0.00    +0.017 A 
ATOM      7  C   UNL     1       0.003  -0.005   0.010  0.00  0.00    +0.014 A 
ATOM      8  I   UNL     1      -1.826   2.358  -0.508  0.00  0.00    -0.044 I 
ENDBRANCH   1   4
BRANCH   1   9
ATOM      9  C   UNL     1       4.755   1.345   0.074  0.00  0.00    +0.190 C 
ATOM     10  C   UNL     1       5.069   1.069   1.546  0.00  0.00    +0.046 C 
ATOM     11  C   UNL     1       6.361   0.256   1.649  0.00  0.00    +0.004 C 
ATOM     12  C   UNL     1       7.512   1.047   1.022  0.00  0.00    +0.001 C 
ATOM     13  C   UNL     1       7.198   1.323  -0.450  0.00  0.00    +0.022 C 
ATOM     14  C   UNL     1       5.906   2.136  -0.552  0.00  0.00    +0.132 C 
BRANCH  14  15
ATOM     15  C   UNL     1       5.604   2.402  -1.968  0.00  0.00    +0.070 C 
ATOM     16  N   UNL     1       5.371   2.607  -3.061  0.00  0.00    -0.196 NA
ENDBRANCH  14  15
ENDBRANCH   1   9
TORSDOF 3
