REMARK  Name = ZINC14267046
REMARK  5 active torsions:
REMARK  status: ('A' for Active; 'I' for Inactive)
REMARK    1  A    between atoms: C_1  and  C_2
REMARK    2  A    between atoms: C_2  and  C_4
REMARK    3  A    between atoms: C_2  and  N_11
REMARK    4  A    between atoms: C_12  and  C_14
REMARK    5  A    between atoms: C_14  and  N_15
REMARK                            x       y       z     vdW  Elec       q    Type
REMARK                         _______ _______ _______ _____ _____    ______ ____
ROOT
ATOM      1  N   UNL     1      -2.901  -1.058   3.294  0.00  0.00    -0.215 N 
ATOM      2  C   UNL     1      -1.905  -0.646   2.481  0.00  0.00    +0.247 C 
ATOM      3  O   UNL     1      -0.713  -0.718   2.685  0.00  0.00    -0.273 OA
ATOM      4  C   UNL     1      -2.593  -0.075   1.263  0.00  0.00    +0.113 C 
ATOM      5  C   UNL     1      -2.241   1.402   1.097  0.00  0.00    +0.035 C 
ATOM      6  C   UNL     1      -0.729   1.579   1.267  0.00  0.00    +0.003 C 
ATOM      7  C   UNL     1      -0.013   1.086   0.008  0.00  0.00    +0.000 C 
ATOM      8  C   UNL     1      -0.753   1.593  -1.232  0.00  0.00    +0.000 C 
ATOM      9  C   UNL     1      -1.371   0.407  -1.978  0.00  0.00    +0.000 C 
ATOM     10  C   UNL     1      -2.618  -0.070  -1.233  0.00  0.00    +0.003 C 
ATOM     11  C   UNL     1      -2.195  -0.854   0.011  0.00  0.00    +0.035 C 
ATOM     12  N   UNL     1      -4.022  -0.240   1.545  0.00  0.00    -0.285 N 
ATOM     13  C   UNL     1      -4.105  -0.825   2.756  0.00  0.00    +0.310 C 
ATOM     14  O   UNL     1      -5.154  -1.109   3.300  0.00  0.00    -0.252 OA
ATOM     15  H   UNL     1      -4.762   0.021   0.974  0.00  0.00    +0.151 HD
ENDROOT
BRANCH   1  16
ATOM     16  C   UNL     1      -2.690  -1.682   4.602  0.00  0.00    +0.213 C 
BRANCH  16  18
ATOM     17  N   UNL     1      -2.396  -3.963   5.513  0.00  0.00    -0.307 N 
ATOM     18  C   UNL     1      -2.591  -3.176   4.436  0.00  0.00    +0.231 C 
ATOM     19  O   UNL     1      -2.686  -3.671   3.333  0.00  0.00    -0.274 OA
ATOM     20  H   UNL     1      -2.319  -3.567   6.395  0.00  0.00    +0.149 HD
BRANCH  17  22
ATOM     21  C   UNL     1      -0.860  -5.795   4.997  0.00  0.00    +0.033 C 
ATOM     22  C   UNL     1      -2.299  -5.415   5.351  0.00  0.00    +0.100 C 
BRANCH  22  23
ATOM     23  C   UNL     1      -2.694  -6.092   6.639  0.00  0.00    -0.027 A 
ATOM     24  C   UNL     1      -2.287  -5.563   7.850  0.00  0.00    +0.006 A 
ATOM     25  C   UNL     1      -2.653  -6.180   9.031  0.00  0.00    +0.015 A 
ATOM     26  C   UNL     1      -3.417  -7.333   9.001  0.00  0.00    +0.018 A 
ATOM     27  C   UNL     1      -3.820  -7.864   7.789  0.00  0.00    +0.015 A 
ATOM     28  C   UNL     1      -3.458  -7.243   6.609  0.00  0.00    +0.006 A 
ATOM     29 BR   UNL     1      -3.912  -8.182  10.617  0.00  0.00    -0.050 Br
ENDBRANCH  22  23
ENDBRANCH  17  22
ENDBRANCH  16  18
ENDBRANCH   1  16
TORSDOF 4
