REMARK  Name = ZINC39710548
REMARK  13 active torsions:
REMARK  status: ('A' for Active; 'I' for Inactive)
REMARK    1  A    between atoms: C_1  and  C_2
REMARK    2  A    between atoms: C_2  and  C_3
REMARK    3  A    between atoms: C_10  and  C_15
REMARK    4  A    between atoms: C_15  and  C_17
REMARK    5  A    between atoms: C_15  and  N_27
REMARK    6  A    between atoms: N_22  and  C_23
REMARK    7  A    between atoms: C_23  and  C_24
REMARK    8  A    between atoms: C_23  and  C_25
REMARK    9  A    between atoms: C_23  and  C_26
REMARK   10  A    between atoms: N_27  and  C_28
REMARK   11  A    between atoms: N_27  and  C_35
REMARK   12  A    between atoms: C_28  and  C_29
REMARK   13  A    between atoms: C_35  and  C_36
REMARK                            x       y       z     vdW  Elec       q    Type
REMARK                         _______ _______ _______ _____ _____    ______ ____
ROOT
ATOM      1  C   UNL     1       6.190  -0.832  -4.727  0.00  0.00    -0.009 C 
ENDROOT
BRANCH   1   9
ATOM      2  C   UNL     1       1.808   0.668  -1.177  0.00  0.00    -0.047 A 
ATOM      3  C   UNL     1       0.861   0.465  -2.181  0.00  0.00    +0.005 A 
ATOM      4  C   UNL     1       1.154  -0.166  -3.348  0.00  0.00    +0.024 A 
ATOM      5  C   UNL     1       2.453  -0.649  -3.592  0.00  0.00    +0.040 A 
ATOM      6  N   UNL     1       2.729  -1.266  -4.741  0.00  0.00    -0.285 N 
ATOM      7  C   UNL     1       3.926  -1.744  -5.034  0.00  0.00    +0.223 C 
ATOM      8  O   UNL     1       4.119  -2.299  -6.100  0.00  0.00    -0.275 OA
ATOM      9  C   UNL     1       5.057  -1.598  -4.040  0.00  0.00    +0.088 C 
ATOM     10  C   UNL     1       4.748  -0.896  -2.732  0.00  0.00    -0.006 C 
ATOM     11  C   UNL     1       3.473  -0.448  -2.549  0.00  0.00    -0.007 A 
ATOM     12  C   UNL     1       3.091   0.245  -1.318  0.00  0.00    +0.013 A 
ATOM     13  H   UNL     1       2.018  -1.370  -5.392  0.00  0.00    +0.155 HD
BRANCH   2  15
ATOM     14  C   UNL     1       1.615   2.884  -0.081  0.00  0.00    +0.009 C 
ATOM     15  C   UNL     1       1.401   1.379   0.088  0.00  0.00    +0.032 C 
ENDBRANCH   2  15
ENDBRANCH   1   9
BRANCH   1  16
ATOM     16  C   UNL     1       7.426  -0.834  -3.825  0.00  0.00    +0.205 C 
ATOM     17  N   UNL     1       7.544  -2.117  -3.119  0.00  0.00    -0.152 NA
ATOM     18  N   UNL     1       7.482  -1.911  -1.905  0.00  0.00    -0.070 NA
ATOM     19  N   UNL     1       7.323  -0.561  -1.591  0.00  0.00    -0.179 N 
ATOM     20  N   UNL     1       7.282   0.172  -2.751  0.00  0.00    -0.183 NA
ATOM     21  H   UNL     1       7.254  -0.198  -0.695  0.00  0.00    +0.191 HD
BRANCH  20  22
ATOM     22  C   UNL     1       8.376   1.151  -2.797  0.00  0.00    +0.035 C 
ATOM     23  C   UNL     1       8.392   1.833  -4.167  0.00  0.00    +0.029 C 
ATOM     24  C   UNL     1       8.164   2.203  -1.706  0.00  0.00    +0.029 C 
ATOM     25  C   UNL     1       9.709   0.438  -2.566  0.00  0.00    +0.029 C 
ENDBRANCH  20  22
ENDBRANCH   1  16
BRANCH   1  26
ATOM     26  N   UNL     1       6.515  -1.481  -6.004  0.00  0.00    +0.390 N 
ATOM     27  H   UNL     1       5.671  -1.603  -6.544  0.00  0.00    -0.080 HD
BRANCH  26  28
ATOM     28  C   UNL     1       7.125  -2.792  -5.747  0.00  0.00    -0.042 C 
BRANCH  28  29
ATOM     29  C   UNL     1       6.048  -3.843  -5.679  0.00  0.00    -0.064 A 
ATOM     30  C   UNL     1       5.641  -4.338  -4.454  0.00  0.00    +0.002 A 
ATOM     31  C   UNL     1       4.652  -5.302  -4.391  0.00  0.00    +0.000 A 
ATOM     32  C   UNL     1       4.071  -5.772  -5.554  0.00  0.00    +0.000 A 
ATOM     33  C   UNL     1       4.477  -5.277  -6.779  0.00  0.00    +0.000 A 
ATOM     34  C   UNL     1       5.463  -4.309  -6.841  0.00  0.00    +0.002 A 
ENDBRANCH  28  29
ENDBRANCH  26  28
BRANCH  26  35
ATOM     35  C   UNL     1       7.458  -0.640  -6.754  0.00  0.00    -0.042 C 
BRANCH  35  36
ATOM     36  C   UNL     1       7.689  -1.239  -8.118  0.00  0.00    -0.064 A 
ATOM     37  C   UNL     1       8.707  -2.155  -8.306  0.00  0.00    +0.004 A 
ATOM     38  C   UNL     1       8.920  -2.705  -9.556  0.00  0.00    +0.038 A 
ATOM     39  C   UNL     1       8.113  -2.337 -10.620  0.00  0.00    +0.123 A 
ATOM     40  C   UNL     1       7.095  -1.419 -10.430  0.00  0.00    +0.038 A 
ATOM     41  C   UNL     1       6.880  -0.874  -9.178  0.00  0.00    +0.004 A 
ATOM     42  F   UNL     1       8.321  -2.873 -11.843  0.00  0.00    -0.205 F 
ENDBRANCH  35  36
ENDBRANCH  26  35
ENDBRANCH   1  26
TORSDOF 9
