REMARK  Name = ZINC00997474
REMARK  10 active torsions:
REMARK  status: ('A' for Active; 'I' for Inactive)
REMARK    1  A    between atoms: C_1  and  C_2
REMARK    2  A    between atoms: C_2  and  O_3
REMARK    3  A    between atoms: O_3  and  C_4
REMARK    4  A    between atoms: C_6  and  C_12
REMARK    5  A    between atoms: C_9  and  O_10
REMARK    6  A    between atoms: C_14  and  C_21
REMARK    7  A    between atoms: C_15  and  C_20
REMARK    8  A    between atoms: C_21  and  O_23
REMARK    9  A    between atoms: O_23  and  C_24
REMARK   10  A    between atoms: C_24  and  C_25
REMARK                            x       y       z     vdW  Elec       q    Type
REMARK                         _______ _______ _______ _____ _____    ______ ____
ROOT
ATOM      1  C   UNL     1       2.205   1.526  -0.328  0.00  0.00    +0.144 C 
ATOM      2  C   UNL     1       0.800   2.046  -0.552  0.00  0.00    +0.078 C 
ATOM      3  C   UNL     1      -0.216   1.158  -0.494  0.00  0.00    +0.021 C 
ATOM      4  N   UNL     1       0.017  -0.164  -0.242  0.00  0.00    -0.273 N 
ATOM      5  C   UNL     1       1.237  -0.677  -0.037  0.00  0.00    +0.304 C 
ATOM      6  O   UNL     1       1.345  -1.868   0.180  0.00  0.00    -0.252 OA
ATOM      7  N   UNL     1       2.349   0.084  -0.064  0.00  0.00    -0.288 N 
ATOM      8  C   UNL     1      -1.629   1.632  -0.717  0.00  0.00    +0.061 C 
ATOM      9  H   UNL     1      -0.743  -0.765  -0.210  0.00  0.00    +0.156 HD
ATOM     10  H   UNL     1       3.223  -0.308   0.087  0.00  0.00    +0.151 HD
ENDROOT
BRANCH   1  13
ATOM     11  C   UNL     1       3.676   1.374  -3.805  0.00  0.00    +0.163 A 
ATOM     12  C   UNL     1       2.928   1.067  -2.679  0.00  0.00    +0.055 A 
ATOM     13  C   UNL     1       3.023   1.858  -1.550  0.00  0.00    -0.018 A 
ATOM     14  C   UNL     1       3.872   2.949  -1.535  0.00  0.00    +0.025 A 
ATOM     15  C   UNL     1       4.625   3.258  -2.654  0.00  0.00    +0.063 A 
ATOM     16  C   UNL     1       4.530   2.472  -3.792  0.00  0.00    +0.173 A 
ATOM     17 BR   UNL     1       5.785   4.752  -2.630  0.00  0.00    -0.046 Br
BRANCH  16  18
ATOM     18  O   UNL     1       5.270   2.774  -4.892  0.00  0.00    -0.503 OA
ATOM     19  H   UNL     1       6.138   2.349  -4.911  0.00  0.00    +0.292 HD
ENDBRANCH  16  18
BRANCH  11  20
ATOM     20  O   UNL     1       3.579   0.600  -4.919  0.00  0.00    -0.489 OA
BRANCH  20  22
ATOM     21  C   UNL     1       2.627  -1.188  -6.238  0.00  0.00    +0.048 C 
ATOM     22  C   UNL     1       2.597  -0.438  -4.905  0.00  0.00    +0.226 C 
ENDBRANCH  20  22
ENDBRANCH  11  20
ENDBRANCH   1  13
BRANCH   2  23
ATOM     23  C   UNL     1       0.560   3.415  -0.813  0.00  0.00    +0.339 C 
ATOM     24  O   UNL     1      -0.565   3.796  -1.077  0.00  0.00    -0.245 OA
BRANCH  23  25
ATOM     25  O   UNL     1       1.579   4.299  -0.769  0.00  0.00    -0.462 OA
BRANCH  25  26
ATOM     26  C   UNL     1       1.251   5.677  -0.962  0.00  0.00    +0.229 C 
ATOM     27  C   UNL     1       2.534   6.510  -0.965  0.00  0.00    +0.048 C 
ENDBRANCH  25  26
ENDBRANCH  23  25
ENDBRANCH   2  23
TORSDOF 7
