REMARK  Name = ZINC22016446
REMARK  5 active torsions:
REMARK  status: ('A' for Active; 'I' for Inactive)
REMARK    1  A    between atoms: C_1  and  C_2
REMARK    2  A    between atoms: C_5  and  C_7
REMARK    3  A    between atoms: C_7  and  C_9
REMARK    4  A    between atoms: C_10  and  C_11
REMARK    5  A    between atoms: C_13  and  N_18
REMARK                            x       y       z     vdW  Elec       q    Type
REMARK                         _______ _______ _______ _____ _____    ______ ____
ROOT
ATOM      1  C   UNL     1      -1.082   3.667   0.027  0.00  0.00    +0.055 C 
ATOM      2  C   UNL     1      -2.185   4.445   0.037  0.00  0.00    +0.013 C 
ENDROOT
BRANCH   2   3
ATOM      3  C   UNL     1      -2.051   5.910   0.044  0.00  0.00    -0.004 A 
ATOM      4  C   UNL     1      -0.783   6.500   0.041  0.00  0.00    +0.042 A 
ATOM      5  C   UNL     1      -0.666   7.874   0.048  0.00  0.00    +0.127 A 
ATOM      6  C   UNL     1      -1.799   8.669   0.057  0.00  0.00    +0.034 A 
ATOM      7  C   UNL     1      -3.057   8.095   0.060  0.00  0.00    +0.023 A 
ATOM      8  C   UNL     1      -3.192   6.721   0.049  0.00  0.00    +0.048 A 
ATOM      9 CL   UNL     1      -4.772   6.001   0.045  0.00  0.00    -0.083 Cl
BRANCH   5  10
ATOM     10  N   UNL     1       0.675   8.500   0.044  0.00  0.00    +0.056 N 
ATOM     11  O   UNL     1       1.673   7.802   0.036  0.00  0.00    -0.126 OA
ATOM     12  O   UNL     1       0.781   9.713   0.050  0.00  0.00    -0.126 OA
ENDBRANCH   5  10
ENDBRANCH   2   3
BRANCH   1  13
ATOM     13  C   UNL     1      -1.215   2.209   0.020  0.00  0.00    +0.221 C 
ATOM     14  O   UNL     1      -2.322   1.698   0.023  0.00  0.00    -0.284 OA
BRANCH  13  19
ATOM     15  C   UNL     1       3.594   0.812  -0.027  0.00  0.00    +0.086 C 
ATOM     16  C   UNL     1       2.088   0.744  -0.014  0.00  0.00    +0.103 A 
ATOM     17  C   UNL     1       1.351  -0.389  -0.013  0.00  0.00    +0.045 A 
ATOM     18  C   UNL     1       0.002  -0.004   0.002  0.00  0.00    +0.053 A 
ATOM     19  C   UNL     1      -0.017   1.363   0.009  0.00  0.00    +0.174 A 
ATOM     20  O   UNL     1       1.260   1.797  -0.000  0.00  0.00    -0.457 OA
ENDBRANCH  13  19
ENDBRANCH   1  13
TORSDOF 4
