REMARK  Name = ZINC39663164
REMARK  6 active torsions:
REMARK  status: ('A' for Active; 'I' for Inactive)
REMARK    1  A    between atoms: C_1  and  S_2
REMARK    2  A    between atoms: S_2  and  C_3
REMARK    3  A    between atoms: C_3  and  C_4
REMARK    4  A    between atoms: C_4  and  C_5
REMARK    5  A    between atoms: C_9  and  C_18
REMARK    6  A    between atoms: N_20  and  C_21
REMARK                            x       y       z     vdW  Elec       q    Type
REMARK                         _______ _______ _______ _____ _____    ______ ____
ROOT
ATOM      1  C   UNL     1       1.638  -2.372  -2.576  0.00  0.00    +0.216 C 
ATOM      2  O   UNL     1       2.032  -1.413  -3.206  0.00  0.00    -0.276 OA
ATOM      3  N   UNL     1       1.858  -3.619  -3.039  0.00  0.00    -0.300 N 
ATOM      4  C   UNL     1       1.450  -4.902  -2.420  0.00  0.00    +0.121 C 
ATOM      5  C   UNL     1       1.009  -5.786  -3.608  0.00  0.00    +0.100 C 
ATOM      6  C   UNL     1       1.742  -5.200  -4.827  0.00  0.00    -0.004 C 
ATOM      7  C   UNL     1       2.556  -4.015  -4.286  0.00  0.00    +0.115 C 
ATOM      8  C   UNL     1       2.671  -6.245  -5.437  0.00  0.00    -0.010 C 
ATOM      9  C   UNL     1       3.345  -5.659  -6.680  0.00  0.00    -0.082 C 
ATOM     10  N   UNL     1       2.320  -5.259  -7.652  0.00  0.00    +0.379 N 
ATOM     11  C   UNL     1       1.489  -4.188  -7.091  0.00  0.00    -0.082 C 
ATOM     12  C   UNL     1       0.736  -4.712  -5.865  0.00  0.00    -0.010 C 
ATOM     13  H   UNL     1       2.768  -4.930  -8.495  0.00  0.00    -0.086 HD
ATOM     14  H   UNL     1       1.739  -6.054  -7.872  0.00  0.00    -0.086 HD
ENDROOT
BRANCH   5  15
ATOM     15  C   UNL     1      -0.484  -5.699  -3.800  0.00  0.00    +0.218 C 
ATOM     16  O   UNL     1      -1.073  -4.677  -3.519  0.00  0.00    -0.275 OA
ATOM     17  N   UNL     1      -1.163  -6.758  -4.284  0.00  0.00    -0.314 N 
ATOM     18  H   UNL     1      -0.692  -7.575  -4.509  0.00  0.00    +0.149 HD
BRANCH  17  19
ATOM     19  C   UNL     1      -2.614  -6.674  -4.471  0.00  0.00    +0.059 C 
ATOM     20  C   UNL     1      -2.921  -6.049  -5.833  0.00  0.00    -0.056 C 
ATOM     21  N   UNL     1      -3.690  -6.987  -6.654  0.00  0.00    +0.381 N 
ATOM     22  C   UNL     1      -2.923  -8.211  -6.895  0.00  0.00    -0.078 C 
ATOM     23  C   UNL     1      -2.616  -8.908  -5.567  0.00  0.00    -0.014 C 
ATOM     24  C   UNL     1      -3.221  -8.082  -4.421  0.00  0.00    +0.004 C 
ATOM     25  C   UNL     1      -4.733  -7.966  -4.655  0.00  0.00    -0.014 C 
ATOM     26  C   UNL     1      -4.971  -7.299  -6.015  0.00  0.00    -0.078 C 
ATOM     27  H   UNL     1      -3.875  -6.554  -7.546  0.00  0.00    -0.082 HD
ENDBRANCH  17  19
ENDBRANCH   5  15
BRANCH   1  28
ATOM     28  C   UNL     1       0.902  -2.169  -1.277  0.00  0.00    +0.106 C 
BRANCH  28  29
ATOM     29  C   UNL     1       0.788  -0.672  -0.984  0.00  0.00    +0.078 C 
BRANCH  29  31
ATOM     30  C   UNL     1      -0.146   1.374   0.781  0.00  0.00    +0.084 C 
ATOM     31  S   UNL     1      -0.097  -0.428   0.581  0.00  0.00    -0.164 S 
ENDBRANCH  29  31
ENDBRANCH  28  29
ENDBRANCH   1  28
TORSDOF 5
