REMARK  Name = ZINC40568258
REMARK  9 active torsions:
REMARK  status: ('A' for Active; 'I' for Inactive)
REMARK    1  A    between atoms: C_1  and  C_2
REMARK    2  A    between atoms: C_2  and  O_3
REMARK    3  A    between atoms: O_3  and  C_4
REMARK    4  A    between atoms: C_4  and  C_6
REMARK    5  A    between atoms: C_7  and  N_27
REMARK    6  A    between atoms: C_11  and  C_26
REMARK    7  A    between atoms: C_16  and  C_18
REMARK    8  A    between atoms: C_21  and  O_24
REMARK    9  A    between atoms: O_24  and  C_25
REMARK                            x       y       z     vdW  Elec       q    Type
REMARK                         _______ _______ _______ _____ _____    ______ ____
ROOT
ATOM      1  C   UNL     1       1.425  -2.323  -2.465  0.00  0.00    +0.105 C 
ATOM      2  C   UNL     1       1.605  -3.664  -2.570  0.00  0.00    +0.195 C 
ATOM      3  O   UNL     1       2.211  -4.218  -3.633  0.00  0.00    -0.441 OA
ATOM      4  C   UNL     1       2.983  -3.460  -4.437  0.00  0.00    +0.144 A 
ATOM      5  C   UNL     1       3.922  -4.066  -5.303  0.00  0.00    +0.088 A 
ATOM      6  C   UNL     1       4.686  -3.295  -6.099  0.00  0.00    +0.110 A 
ATOM      7  O   UNL     1       4.586  -1.961  -6.099  0.00  0.00    -0.427 OA
ATOM      8  C   UNL     1       3.707  -1.345  -5.294  0.00  0.00    +0.345 A 
ATOM      9  O   UNL     1       3.627  -0.128  -5.307  0.00  0.00    -0.245 OA
ATOM     10  C   UNL     1       2.881  -2.085  -4.440  0.00  0.00    +0.091 A 
ATOM     11  C   UNL     1       1.894  -1.386  -3.543  0.00  0.00    +0.101 C 
ATOM     12  C   UNL     1       5.684  -3.954  -7.017  0.00  0.00    +0.086 C 
ENDROOT
BRANCH  11  13
ATOM     13  C   UNL     1       0.711  -0.929  -4.357  0.00  0.00    -0.035 A 
ATOM     14  C   UNL     1      -0.067  -1.856  -5.025  0.00  0.00    +0.008 A 
ATOM     15  C   UNL     1      -1.152  -1.440  -5.772  0.00  0.00    +0.046 A 
ATOM     16  C   UNL     1      -1.461  -0.089  -5.851  0.00  0.00    +0.120 A 
ATOM     17  C   UNL     1      -0.679   0.839  -5.179  0.00  0.00    +0.046 A 
ATOM     18  C   UNL     1       0.402   0.417  -4.430  0.00  0.00    +0.008 A 
BRANCH  16  19
ATOM     19  O   UNL     1      -2.527   0.323  -6.585  0.00  0.00    -0.495 OA
ATOM     20  C   UNL     1      -2.786   1.728  -6.622  0.00  0.00    +0.277 C 
ENDBRANCH  16  19
ENDBRANCH  11  13
BRANCH   2  21
ATOM     21  N   UNL     1       1.155  -4.476  -1.563  0.00  0.00    -0.329 N 
ATOM     22  H   UNL     1       0.649  -4.099  -0.826  0.00  0.00    +0.145 HD
ATOM     23  H   UNL     1       1.343  -5.427  -1.587  0.00  0.00    +0.145 HD
ENDBRANCH   2  21
BRANCH   1  24
ATOM     24  C   UNL     1       0.785  -1.801  -1.330  0.00  0.00    +0.341 C 
ATOM     25  O   UNL     1       1.444  -1.299  -0.436  0.00  0.00    -0.245 OA
BRANCH  24  26
ATOM     26  O   UNL     1      -0.560  -1.855  -1.229  0.00  0.00    -0.462 OA
BRANCH  26  28
ATOM     27  C   UNL     1      -2.666  -1.456  -0.113  0.00  0.00    +0.048 C 
ATOM     28  C   UNL     1      -1.145  -1.305  -0.047  0.00  0.00    +0.229 C 
ENDBRANCH  26  28
ENDBRANCH  24  26
ENDBRANCH   1  24
TORSDOF 6
