REMARK  Name = ZINC44416030
REMARK  9 active torsions:
REMARK  status: ('A' for Active; 'I' for Inactive)
REMARK    1  A    between atoms: C_1  and  C_2
REMARK    2  A    between atoms: C_2  and  C_4
REMARK    3  A    between atoms: C_2  and  N_8
REMARK    4  A    between atoms: C_4  and  C_5
REMARK    5  A    between atoms: C_4  and  C_6
REMARK    6  A    between atoms: C_4  and  C_7
REMARK    7  A    between atoms: N_8  and  C_9
REMARK    8  A    between atoms: C_10  and  C_12
REMARK    9  A    between atoms: C_17  and  N_18
REMARK                            x       y       z     vdW  Elec       q    Type
REMARK                         _______ _______ _______ _____ _____    ______ ____
ROOT
ATOM      1  N   UNL     1      -0.908  -0.094  -0.153  0.00  0.00    -0.297 N 
ATOM      2  C   UNL     1      -1.687   0.040  -1.387  0.00  0.00    +0.132 C 
ATOM      3  C   UNL     1      -1.456  -0.680   0.930  0.00  0.00    +0.251 C 
ATOM      4  O   UNL     1      -0.847  -0.703   1.983  0.00  0.00    -0.270 OA
ENDROOT
BRANCH   3   5
ATOM      5  C   UNL     1      -2.788  -1.290   0.839  0.00  0.00    +0.095 A 
ATOM      6  C   UNL     1      -3.340  -1.943  -0.288  0.00  0.00    +0.149 A 
ATOM      7  N   UNL     1      -4.538  -2.349   0.022  0.00  0.00    -0.180 NA
ATOM      8  N   UNL     1      -4.819  -1.985   1.344  0.00  0.00    -0.264 N 
ATOM      9  H   UNL     1      -5.645  -2.169   1.819  0.00  0.00    +0.190 HD
ATOM     10  C   UNL     1      -3.747  -1.341   1.848  0.00  0.00    +0.124 A 
BRANCH  10  11
ATOM     11  N   UNL     1      -3.624  -0.827   3.123  0.00  0.00    -0.343 N 
ATOM     12  H   UNL     1      -2.807  -0.377   3.387  0.00  0.00    +0.144 HD
ATOM     13  H   UNL     1      -4.355  -0.916   3.754  0.00  0.00    +0.144 HD
ENDBRANCH  10  11
ENDBRANCH   3   5
BRANCH   1  15
ATOM     14  C   UNL     1       0.494   1.872  -0.545  0.00  0.00    +0.028 C 
ATOM     15  C   UNL     1       0.467   0.409  -0.097  0.00  0.00    +0.078 C 
BRANCH  15  16
ATOM     16  C   UNL     1       1.353  -0.425  -1.024  0.00  0.00    -0.019 C 
ATOM     17  C   UNL     1       2.814  -0.006  -0.845  0.00  0.00    +0.012 C 
ATOM     18  C   UNL     1       1.202  -1.907  -0.677  0.00  0.00    +0.012 C 
ATOM     19  C   UNL     1       0.931  -0.196  -2.476  0.00  0.00    +0.012 C 
ENDBRANCH  15  16
ENDBRANCH   1  15
TORSDOF 4
