REMARK  Name = ZINC19959212
REMARK  5 active torsions:
REMARK  status: ('A' for Active; 'I' for Inactive)
REMARK    1  A    between atoms: C_1  and  C_2
REMARK    2  A    between atoms: C_7  and  N_12
REMARK    3  A    between atoms: C_9  and  C_11
REMARK    4  A    between atoms: N_18  and  S_19
REMARK    5  A    between atoms: S_19  and  C_22
REMARK                            x       y       z     vdW  Elec       q    Type
REMARK                         _______ _______ _______ _____ _____    ______ ____
ROOT
ATOM      1  N   UNL     1      -1.256  -0.072  -0.133  0.00  0.00    -0.268 NA
ATOM      2  C   UNL     1      -1.501  -1.525  -0.194  0.00  0.00    +0.193 C 
ATOM      3  N   UNL     1      -2.959  -1.725  -0.229  0.00  0.00    -0.303 N 
ATOM      4  C   UNL     1      -3.712  -0.887  -1.020  0.00  0.00    +0.202 C 
ATOM      5  N   UNL     1      -3.203   0.191  -1.528  0.00  0.00    -0.303 N 
ATOM      6  C   UNL     1      -1.814   0.587  -1.321  0.00  0.00    +0.193 C 
ATOM      7  N   UNL     1      -5.026  -1.200  -1.276  0.00  0.00    -0.097 NA
ATOM      8  H   UNL     1      -3.418  -2.528   0.368  0.00  0.00    +0.150 HD
ATOM      9  H   UNL     1      -3.869   0.818  -2.139  0.00  0.00    +0.150 HD
ENDROOT
BRANCH   1  15
ATOM     10  C   UNL     1       2.394   1.528   1.398  0.00  0.00    +0.008 C 
ATOM     11  C   UNL     1       2.163   0.019   1.508  0.00  0.00    -0.010 C 
ATOM     12  C   UNL     1       2.934  -0.697   0.397  0.00  0.00    +0.003 C 
ATOM     13  C   UNL     1       2.443  -0.203  -0.965  0.00  0.00    +0.002 C 
ATOM     14  C   UNL     1       0.949  -0.502  -1.107  0.00  0.00    +0.019 C 
ATOM     15  C   UNL     1       0.178   0.214   0.003  0.00  0.00    +0.063 C 
ATOM     16  C   UNL     1       0.669  -0.279   1.365  0.00  0.00    +0.006 C 
ATOM     17  C   UNL     1      -0.102   0.437   2.476  0.00  0.00    +0.009 C 
ENDBRANCH   1  15
BRANCH   7  18
ATOM     18  S   UNL     1      -5.945  -0.202  -2.227  0.00  0.00    +0.102 S 
ATOM     19  O   UNL     1      -7.229  -0.803  -2.324  0.00  0.00    -0.146 OA
ATOM     20  O   UNL     1      -5.755   1.117  -1.733  0.00  0.00    -0.146 OA
BRANCH  18  21
ATOM     21  C   UNL     1      -5.249  -0.239  -3.845  0.00  0.00    +0.113 A 
ATOM     22  C   UNL     1      -4.271   0.673  -4.198  0.00  0.00    +0.029 A 
ATOM     23  C   UNL     1      -3.722   0.641  -5.466  0.00  0.00    +0.002 A 
ATOM     24  C   UNL     1      -4.157  -0.296  -6.385  0.00  0.00    +0.000 A 
ATOM     25  C   UNL     1      -5.138  -1.204  -6.034  0.00  0.00    +0.002 A 
ATOM     26  C   UNL     1      -5.684  -1.176  -4.764  0.00  0.00    +0.029 A 
ENDBRANCH  18  21
ENDBRANCH   7  18
TORSDOF 3
