REMARK  Name = ZINC11176870
REMARK  4 active torsions:
REMARK  status: ('A' for Active; 'I' for Inactive)
REMARK    1  A    between atoms: C_1  and  C_2
REMARK    2  A    between atoms: C_5  and  C_8
REMARK    3  A    between atoms: N_10  and  N_11
REMARK    4  A    between atoms: C_12  and  C_21
REMARK                            x       y       z     vdW  Elec       q    Type
REMARK                         _______ _______ _______ _____ _____    ______ ____
ROOT
ATOM      1  C   UNL     1       2.784   0.640  -1.149  0.00  0.00    +0.262 C 
ATOM      2  O   UNL     1       2.111   0.706  -2.159  0.00  0.00    -0.268 OA
ATOM      3  N   UNL     1       2.357   1.227  -0.014  0.00  0.00    -0.215 N 
ATOM      4  H   UNL     1       2.894   1.174   0.791  0.00  0.00    +0.176 HD
ENDROOT
BRANCH   3   5
ATOM      5  N   UNL     1       1.136   1.914   0.002  0.00  0.00    -0.209 N 
ATOM      6  C   UNL     1       1.137   3.272   0.009  0.00  0.00    +0.129 A 
ATOM      7  N   UNL     1       0.019   3.949   0.023  0.00  0.00    -0.225 NA
ATOM      8  C   UNL     1      -1.157   3.329   0.031  0.00  0.00    +0.115 A 
ATOM      9  C   UNL     1      -1.259   1.926   0.018  0.00  0.00    +0.074 A 
ATOM     10  C   UNL     1      -0.015   1.215   0.009  0.00  0.00    +0.279 A 
ATOM     11  O   UNL     1       0.002  -0.004   0.002  0.00  0.00    -0.265 OA
ATOM     12  C   UNL     1      -2.614   1.409   0.021  0.00  0.00    +0.023 A 
ATOM     13  C   UNL     1      -3.644   2.270   0.031  0.00  0.00    +0.048 A 
ATOM     14  S   UNL     1      -2.848   3.865   0.049  0.00  0.00    -0.077 S 
ATOM     15  C   UNL     1       2.450   4.011   0.001  0.00  0.00    +0.088 C 
ENDBRANCH   3   5
BRANCH   1  20
ATOM     16  C   UNL     1       7.801  -2.180  -1.215  0.00  0.00    +0.044 C 
ATOM     17  C   UNL     1       6.487  -1.442  -1.198  0.00  0.00    -0.050 A 
ATOM     18  C   UNL     1       5.723  -1.369  -2.349  0.00  0.00    +0.004 A 
ATOM     19  C   UNL     1       4.519  -0.694  -2.340  0.00  0.00    +0.013 A 
ATOM     20  C   UNL     1       4.073  -0.085  -1.166  0.00  0.00    +0.038 A 
ATOM     21  C   UNL     1       4.851  -0.158  -0.010  0.00  0.00    +0.013 A 
ATOM     22  C   UNL     1       6.050  -0.841  -0.031  0.00  0.00    +0.004 A 
ENDBRANCH   1  20
TORSDOF 2
