REMARK  Name = ZINC39470192
REMARK  7 active torsions:
REMARK  status: ('A' for Active; 'I' for Inactive)
REMARK    1  A    between atoms: C_1  and  N_2
REMARK    2  A    between atoms: C_6  and  C_11
REMARK    3  A    between atoms: C_8  and  S_9
REMARK    4  A    between atoms: S_9  and  C_10
REMARK    5  A    between atoms: C_16  and  O_17
REMARK    6  A    between atoms: C_19  and  O_28
REMARK    7  A    between atoms: O_28  and  C_29
REMARK                            x       y       z     vdW  Elec       q    Type
REMARK                         _______ _______ _______ _____ _____    ______ ____
ROOT
ATOM      1  C   UNL     1      -1.712   1.653   0.955  0.00  0.00    +0.137 C 
ATOM      2  N   UNL     1      -1.766   0.200   0.779  0.00  0.00    -0.285 N 
ATOM      3  C   UNL     1      -2.501  -0.459   1.738  0.00  0.00    +0.052 A 
ATOM      4  C   UNL     1      -2.546   0.125   2.988  0.00  0.00    -0.016 A 
ATOM      5  C   UNL     1      -3.539  -0.021   3.883  0.00  0.00    +0.014 A 
ATOM      6  C   UNL     1      -4.430  -1.088   3.640  0.00  0.00    -0.013 A 
ATOM      7  C   UNL     1      -4.238  -1.896   2.518  0.00  0.00    +0.025 A 
ATOM      8  C   UNL     1      -3.283  -1.596   1.555  0.00  0.00    +0.030 A 
ATOM      9  C   UNL     1      -1.093   0.490   3.436  0.00  0.00    +0.132 C 
ATOM     10  C   UNL     1      -0.352  -0.037   2.211  0.00  0.00    +0.194 C 
ATOM     11  N   UNL     1       0.247   0.659   1.301  0.00  0.00    -0.211 NA
ATOM     12  C   UNL     1       0.313   0.058   0.080  0.00  0.00    +0.144 A 
ATOM     13  C   UNL     1      -1.081  -0.260  -0.313  0.00  0.00    +0.156 A 
ATOM     14  N   UNL     1      -1.298  -0.824  -1.438  0.00  0.00    -0.218 NA
ATOM     15  C   UNL     1      -0.290  -1.129  -2.249  0.00  0.00    +0.225 A 
ATOM     16  N   UNL     1       0.966  -0.870  -1.942  0.00  0.00    -0.222 NA
ATOM     17  C   UNL     1       1.302  -0.280  -0.779  0.00  0.00    +0.160 A 
ATOM     18 CL   UNL     1       2.962   0.050  -0.393  0.00  0.00    -0.060 Cl
ENDROOT
BRANCH   6  19
ATOM     19  C   UNL     1      -5.557  -1.349   4.568  0.00  0.00    +0.024 A 
ATOM     20  C   UNL     1      -5.329  -1.430   5.940  0.00  0.00    +0.012 A 
ATOM     21  C   UNL     1      -6.382  -1.673   6.800  0.00  0.00    +0.001 A 
ATOM     22  C   UNL     1      -7.663  -1.837   6.303  0.00  0.00    +0.004 A 
ATOM     23  C   UNL     1      -7.900  -1.758   4.944  0.00  0.00    +0.046 A 
ATOM     24  C   UNL     1      -6.854  -1.510   4.070  0.00  0.00    +0.125 A 
BRANCH  24  25
ATOM     25  O   UNL     1      -7.086  -1.427   2.734  0.00  0.00    -0.506 OA
ATOM     26  H   UNL     1      -7.016  -2.272   2.270  0.00  0.00    +0.292 HD
ENDBRANCH  24  25
ENDBRANCH   6  19
BRANCH   8  27
ATOM     27  S   UNL     1      -3.068  -2.626   0.141  0.00  0.00    -0.127 S 
ATOM     28  C   UNL     1      -4.296  -3.942   0.366  0.00  0.00    +0.090 C 
ENDBRANCH   8  27
BRANCH  10  29
ATOM     29  O   UNL     1      -0.318  -1.377   2.062  0.00  0.00    -0.482 OA
ATOM     30  C   UNL     1       0.969  -1.982   1.917  0.00  0.00    +0.278 C 
ENDBRANCH  10  29
TORSDOF 4
