REMARK  Name = ZINC22062964
REMARK  7 active torsions:
REMARK  status: ('A' for Active; 'I' for Inactive)
REMARK    1  A    between atoms: C_1  and  C_2
REMARK    2  A    between atoms: C_2  and  C_4
REMARK    3  A    between atoms: C_2  and  S_16
REMARK    4  A    between atoms: N_9  and  C_10
REMARK    5  A    between atoms: S_16  and  C_17
REMARK    6  A    between atoms: C_20  and  C_25
REMARK    7  A    between atoms: N_21  and  C_22
REMARK                            x       y       z     vdW  Elec       q    Type
REMARK                         _______ _______ _______ _____ _____    ______ ____
ROOT
ATOM      1  C   UNL     1      -5.454   0.711  -0.751  0.00  0.00    +0.029 C 
ATOM      2  C   UNL     1      -5.938   1.546   0.436  0.00  0.00    +0.137 C 
ENDROOT
BRANCH   2   3
ATOM      3  C   UNL     1      -5.069   2.768   0.578  0.00  0.00    +0.234 C 
ATOM      4  O   UNL     1      -5.452   3.837   0.153  0.00  0.00    -0.274 OA
ATOM      5  N   UNL     1      -3.866   2.674   1.179  0.00  0.00    -0.239 N 
ATOM      6  C   UNL     1      -3.089   3.768   1.306  0.00  0.00    +0.310 C 
ATOM      7  O   UNL     1      -3.473   4.840   0.879  0.00  0.00    -0.252 OA
ATOM      8  N   UNL     1      -1.886   3.674   1.906  0.00  0.00    -0.269 N 
ATOM      9  H   UNL     1      -3.519   1.705   1.565  0.00  0.00    +0.159 HD
ATOM     10  H   UNL     1      -1.500   2.691   2.213  0.00  0.00    +0.156 HD
BRANCH   8  11
ATOM     11  C   UNL     1      -1.129   4.827   2.140  0.00  0.00    +0.035 A 
ATOM     12  C   UNL     1       0.250   4.799   1.976  0.00  0.00    +0.023 A 
ATOM     13  C   UNL     1       0.995   5.939   2.202  0.00  0.00    +0.002 A 
ATOM     14  C   UNL     1       0.370   7.107   2.602  0.00  0.00    +0.000 A 
ATOM     15  C   UNL     1      -1.002   7.137   2.771  0.00  0.00    +0.002 A 
ATOM     16  C   UNL     1      -1.753   6.001   2.541  0.00  0.00    +0.023 A 
ENDBRANCH   8  11
ENDBRANCH   2   3
BRANCH   2  17
ATOM     17  S   UNL     1      -7.653   2.053   0.157  0.00  0.00    -0.073 S 
BRANCH  17  18
ATOM     18  C   UNL     1      -8.445   0.479   0.180  0.00  0.00    +0.193 A 
ATOM     19  N   UNL     1      -7.862  -0.685   0.358  0.00  0.00    -0.122 NA
ATOM     20  N   UNL     1      -8.735  -1.627   0.318  0.00  0.00    -0.128 NA
ATOM     21  C   UNL     1      -9.929  -1.123   0.111  0.00  0.00    +0.168 A 
ATOM     22  N   UNL     1      -9.781   0.242   0.021  0.00  0.00    -0.299 N 
BRANCH  21  23
ATOM     23  C   UNL     1     -11.195  -1.878   0.001  0.00  0.00    +0.054 A 
ATOM     24  C   UNL     1     -12.303  -1.505   0.764  0.00  0.00    +0.014 A 
ATOM     25  C   UNL     1     -13.481  -2.214   0.657  0.00  0.00    +0.001 A 
ATOM     26  C   UNL     1     -13.568  -3.294  -0.204  0.00  0.00    +0.003 A 
ATOM     27  C   UNL     1     -12.475  -3.671  -0.963  0.00  0.00    +0.039 A 
ATOM     28  C   UNL     1     -11.290  -2.966  -0.871  0.00  0.00    +0.134 A 
ATOM     29  F   UNL     1     -10.224  -3.332  -1.617  0.00  0.00    -0.205 F 
ENDBRANCH  21  23
BRANCH  22  30
ATOM     30  C   UNL     1     -10.836   1.234  -0.201  0.00  0.00    +0.091 C 
ATOM     31  C   UNL     1     -10.408   2.633  -0.650  0.00  0.00    +0.027 C 
ATOM     32  C   UNL     1     -10.917   2.409   0.776  0.00  0.00    +0.027 C 
ENDBRANCH  22  30
ENDBRANCH  17  18
ENDBRANCH   2  17
TORSDOF 6
