REMARK  Name = ZINC67571292
REMARK  5 active torsions:
REMARK  status: ('A' for Active; 'I' for Inactive)
REMARK    1  A    between atoms: C_4  and  N_7
REMARK    2  A    between atoms: C_10  and  C_12
REMARK    3  A    between atoms: N_14  and  N_15
REMARK    4  A    between atoms: C_16  and  C_18
REMARK    5  A    between atoms: C_21  and  C_23
REMARK                            x       y       z     vdW  Elec       q    Type
REMARK                         _______ _______ _______ _____ _____    ______ ____
ROOT
ATOM      1  C   UNL     1       7.184  -0.757  -0.066  0.00  0.00    +0.284 C 
ATOM      2  O   UNL     1       7.960  -1.692  -0.080  0.00  0.00    -0.267 OA
ATOM      3  N   UNL     1       7.652   0.507  -0.058  0.00  0.00    -0.229 N 
ATOM      4  H   UNL     1       7.032   1.254  -0.046  0.00  0.00    +0.173 HD
ENDROOT
BRANCH   1   8
ATOM      5  N   UNL     1       3.623  -0.651  -0.037  0.00  0.00    -0.235 N 
ATOM      6  C   UNL     1       3.760  -2.006  -0.051  0.00  0.00    +0.166 A 
ATOM      7  C   UNL     1       5.091  -2.271  -0.064  0.00  0.00    +0.229 A 
ATOM      8  C   UNL     1       5.730  -1.005  -0.057  0.00  0.00    +0.195 A 
ATOM      9  N   UNL     1       4.778  -0.090  -0.047  0.00  0.00    -0.158 NA
ATOM     10  O   UNL     1       5.687  -3.494  -0.080  0.00  0.00    -0.284 OA
BRANCH   5  14
ATOM     11  C   UNL     1      -0.017   1.379   0.010  0.00  0.00    +0.000 A 
ATOM     12  C   UNL     1       1.170   2.089   0.002  0.00  0.00    +0.002 A 
ATOM     13  C   UNL     1       2.377   1.419  -0.013  0.00  0.00    +0.028 A 
ATOM     14  C   UNL     1       2.400   0.031  -0.021  0.00  0.00    +0.065 A 
ATOM     15  C   UNL     1       1.206  -0.680  -0.013  0.00  0.00    +0.028 A 
ATOM     16  C   UNL     1       0.002  -0.004   0.002  0.00  0.00    +0.002 A 
ENDBRANCH   5  14
ENDBRANCH   1   8
BRANCH   3  17
ATOM     17  N   UNL     1       9.033   0.743  -0.066  0.00  0.00    -0.234 N 
ATOM     18  C   UNL     1       9.500   2.007  -0.057  0.00  0.00    +0.233 C 
ATOM     19  O   UNL     1       8.726   2.940  -0.043  0.00  0.00    -0.274 OA
ATOM     20  H   UNL     1       9.652  -0.003  -0.077  0.00  0.00    +0.173 HD
BRANCH  18  21
ATOM     21  C   UNL     1      10.986   2.261  -0.066  0.00  0.00    +0.084 C 
ATOM     22  C   UNL     1      11.609   2.853   1.200  0.00  0.00    +0.022 C 
ATOM     23  C   UNL     1      11.454   3.717  -0.054  0.00  0.00    +0.032 C 
BRANCH  23  24
ATOM     24  C   UNL     1      10.394   4.788  -0.034  0.00  0.00    -0.041 A 
ATOM     25  C   UNL     1       9.494   4.851   1.014  0.00  0.00    +0.004 A 
ATOM     26  C   UNL     1       8.521   5.833   1.033  0.00  0.00    +0.003 A 
ATOM     27  C   UNL     1       8.448   6.753   0.004  0.00  0.00    +0.038 A 
ATOM     28  C   UNL     1       9.348   6.692  -1.045  0.00  0.00    +0.124 A 
ATOM     29  C   UNL     1      10.326   5.711  -1.060  0.00  0.00    +0.042 A 
ATOM     30  F   UNL     1       9.277   7.591  -2.051  0.00  0.00    -0.205 F 
ENDBRANCH  23  24
ENDBRANCH  18  21
ENDBRANCH   3  17
TORSDOF 5
