REMARK  Name = ZINC05196035
REMARK  5 active torsions:
REMARK  status: ('A' for Active; 'I' for Inactive)
REMARK    1  A    between atoms: C_1  and  C_2
REMARK    2  A    between atoms: C_2  and  C_3
REMARK    3  A    between atoms: C_6  and  N_9
REMARK    4  A    between atoms: N_12  and  C_13
REMARK    5  A    between atoms: N_18  and  C_20
REMARK                            x       y       z     vdW  Elec       q    Type
REMARK                         _______ _______ _______ _____ _____    ______ ____
ROOT
ATOM      1  N   UNL     1       3.262   8.999   0.663  0.00  0.00    -0.269 N 
ATOM      2  C   UNL     1       2.638   8.039  -0.048  0.00  0.00    +0.304 C 
ATOM      3  O   UNL     1       2.132   8.309  -1.120  0.00  0.00    -0.253 OA
ATOM      4  N   UNL     1       2.574   6.780   0.430  0.00  0.00    -0.294 N 
ATOM      5  H   UNL     1       3.734   8.769   1.479  0.00  0.00    +0.156 HD
ATOM      6  H   UNL     1       2.978   6.565   1.286  0.00  0.00    +0.151 HD
ENDROOT
BRANCH   1  10
ATOM      7  C   UNL     1       3.166  12.954  -0.642  0.00  0.00    -0.048 A 
ATOM      8  C   UNL     1       2.071  12.134  -0.845  0.00  0.00    +0.005 A 
ATOM      9  C   UNL     1       2.100  10.822  -0.414  0.00  0.00    +0.023 A 
ATOM     10  C   UNL     1       3.230  10.327   0.225  0.00  0.00    +0.035 A 
ATOM     11  C   UNL     1       4.325  11.156   0.432  0.00  0.00    +0.023 A 
ATOM     12  C   UNL     1       4.292  12.465  -0.006  0.00  0.00    +0.005 A 
BRANCH   7  14
ATOM     13  C   UNL     1       2.577  15.276  -0.001  0.00  0.00    +0.009 C 
ATOM     14  C   UNL     1       3.131  14.385  -1.115  0.00  0.00    +0.032 C 
ENDBRANCH   7  14
ENDBRANCH   1  10
BRANCH   4  15
ATOM     15  C   UNL     1       1.896   5.737  -0.343  0.00  0.00    +0.101 C 
ATOM     16  C   UNL     1       0.381   5.717  -0.034  0.00  0.00    +0.120 C 
ATOM     17  C   UNL     1       0.017   4.249  -0.056  0.00  0.00    +0.222 C 
ATOM     18  O   UNL     1      -1.112   3.814  -0.138  0.00  0.00    -0.275 OA
ATOM     19  N   UNL     1       1.127   3.496   0.030  0.00  0.00    -0.270 N 
ATOM     20  C   UNL     1       2.330   4.331   0.132  0.00  0.00    +0.136 C 
BRANCH  19  21
ATOM     21  C   UNL     1       1.135   2.097   0.028  0.00  0.00    +0.036 A 
ATOM     22  C   UNL     1      -0.063   1.395   0.046  0.00  0.00    +0.025 A 
ATOM     23  C   UNL     1      -0.053   0.014   0.044  0.00  0.00    +0.022 A 
ATOM     24  C   UNL     1       1.150  -0.671   0.024  0.00  0.00    +0.041 A 
ATOM     25  C   UNL     1       2.345   0.027   0.005  0.00  0.00    +0.022 A 
ATOM     26  C   UNL     1       2.341   1.408   0.008  0.00  0.00    +0.025 A 
ATOM     27 CL   UNL     1       1.159  -2.407   0.021  0.00  0.00    -0.084 Cl
ENDBRANCH  19  21
ENDBRANCH   4  15
TORSDOF 4
