REMARK  Name = ZINC39441001
REMARK  8 active torsions:
REMARK  status: ('A' for Active; 'I' for Inactive)
REMARK    1  A    between atoms: C_1  and  C_2
REMARK    2  A    between atoms: C_2  and  C_4
REMARK    3  A    between atoms: C_2  and  O_13
REMARK    4  A    between atoms: N_9  and  C_10
REMARK    5  A    between atoms: C_10  and  C_11
REMARK    6  A    between atoms: C_10  and  C_12
REMARK    7  A    between atoms: O_13  and  C_14
REMARK    8  A    between atoms: C_14  and  C_16
REMARK                            x       y       z     vdW  Elec       q    Type
REMARK                         _______ _______ _______ _____ _____    ______ ____
ROOT
ATOM      1  C   UNL     1      -1.924  -0.704  -1.184  0.00  0.00    +0.340 C 
ATOM      2  O   UNL     1      -1.313  -0.469  -2.208  0.00  0.00    -0.245 OA
ENDROOT
BRANCH   1   3
ATOM      3  C   UNL     1      -3.305  -1.213  -1.251  0.00  0.00    +0.060 A 
ATOM      4  C   UNL     1      -4.028  -1.484  -0.013  0.00  0.00    +0.017 A 
ATOM      5  C   UNL     1      -5.292  -1.955  -0.032  0.00  0.00    +0.027 A 
ATOM      6  C   UNL     1      -5.959  -2.201  -1.314  0.00  0.00    +0.043 A 
ATOM      7  N   UNL     1      -7.170  -2.630  -1.588  0.00  0.00    -0.378 N 
ATOM      8  C   UNL     1      -7.298  -2.772  -3.035  0.00  0.00    +0.106 C 
ATOM      9  C   UNL     1      -8.466  -1.959  -3.598  0.00  0.00    +0.029 C 
ATOM     10  C   UNL     1      -8.350  -1.935  -5.126  0.00  0.00    +0.003 C 
ATOM     11  C   UNL     1      -7.098  -1.182  -5.572  0.00  0.00    +0.004 C 
ATOM     12  C   UNL     1      -5.839  -1.921  -5.086  0.00  0.00    +0.033 C 
ATOM     13  C   UNL     1      -6.018  -2.194  -3.611  0.00  0.00    -0.038 C 
ATOM     14  C   UNL     1      -5.218  -1.913  -2.566  0.00  0.00    -0.000 A 
ATOM     15  C   UNL     1      -3.890  -1.418  -2.479  0.00  0.00    +0.025 A 
ATOM     16  H   UNL     1      -7.864  -2.821  -0.937  0.00  0.00    +0.160 HD
ENDBRANCH   1   3
BRANCH   1  17
ATOM     17  O   UNL     1      -1.339  -0.499   0.012  0.00  0.00    -0.449 OA
BRANCH  17  19
ATOM     18  C   UNL     1      -0.019   1.526   0.010  0.00  0.00    +0.062 C 
ATOM     19  C   UNL     1       0.002  -0.004   0.002  0.00  0.00    +0.259 C 
BRANCH  19  20
ATOM     20  C   UNL     1       0.731  -0.503   1.223  0.00  0.00    +0.261 C 
ATOM     21  O   UNL     1       0.135  -1.137   2.068  0.00  0.00    -0.271 OA
ATOM     22  N   UNL     1       2.045  -0.246   1.375  0.00  0.00    -0.237 N 
ATOM     23  C   UNL     1       2.697  -0.692   2.467  0.00  0.00    +0.306 C 
ATOM     24  O   UNL     1       2.100  -1.327   3.314  0.00  0.00    -0.252 OA
ATOM     25  N   UNL     1       4.011  -0.435   2.620  0.00  0.00    -0.297 N 
ATOM     26  H   UNL     1       2.522   0.261   0.699  0.00  0.00    +0.159 HD
ATOM     27  H   UNL     1       4.488   0.072   1.944  0.00  0.00    +0.151 HD
BRANCH  25  28
ATOM     28  C   UNL     1       4.720  -0.920   3.807  0.00  0.00    +0.068 C 
ATOM     29  C   UNL     1       6.208  -1.068   3.487  0.00  0.00    +0.027 C 
ATOM     30  C   UNL     1       4.541   0.079   4.952  0.00  0.00    +0.027 C 
ENDBRANCH  25  28
ENDBRANCH  19  20
ENDBRANCH  17  19
ENDBRANCH   1  17
TORSDOF 5
