REMARK  Name = ZINC66486310
REMARK  9 active torsions:
REMARK  status: ('A' for Active; 'I' for Inactive)
REMARK    1  A    between atoms: C_1  and  C_2
REMARK    2  A    between atoms: C_2  and  C_3
REMARK    3  A    between atoms: C_2  and  C_4
REMARK    4  A    between atoms: C_7  and  C_10
REMARK    5  A    between atoms: C_10  and  S_11
REMARK    6  A    between atoms: S_11  and  C_14
REMARK    7  A    between atoms: C_14  and  C_15
REMARK    8  A    between atoms: C_15  and  C_17
REMARK    9  A    between atoms: C_15  and  O_28
REMARK                            x       y       z     vdW  Elec       q    Type
REMARK                         _______ _______ _______ _____ _____    ______ ____
ROOT
ATOM      1  C   UNL     1      -8.132  -1.621  -0.682  0.00  0.00    +0.202 C 
ENDROOT
BRANCH   1   2
ATOM      2  S   UNL     1      -6.507  -0.824  -0.801  0.00  0.00    -0.024 S 
ATOM      3  O   UNL     1      -6.539   0.378  -0.043  0.00  0.00    -0.174 OA
ATOM      4  O   UNL     1      -6.133  -0.768  -2.171  0.00  0.00    -0.174 OA
BRANCH   2   5
ATOM      5  C   UNL     1      -5.419  -2.005   0.043  0.00  0.00    +0.201 C 
BRANCH   5   9
ATOM      6  C   UNL     1      -1.412  -0.526   0.013  0.00  0.00    -0.045 A 
ATOM      7  C   UNL     1      -2.259  -0.204   1.056  0.00  0.00    +0.004 A 
ATOM      8  C   UNL     1      -3.556  -0.683   1.066  0.00  0.00    +0.005 A 
ATOM      9  C   UNL     1      -4.006  -1.482   0.032  0.00  0.00    -0.027 A 
ATOM     10  C   UNL     1      -3.159  -1.803  -1.012  0.00  0.00    +0.005 A 
ATOM     11  C   UNL     1      -1.863  -1.321  -1.024  0.00  0.00    +0.004 A 
BRANCH   6  13
ATOM     12  C   UNL     1      -0.019   1.526   0.010  0.00  0.00    +0.012 C 
ATOM     13  C   UNL     1       0.002  -0.004   0.002  0.00  0.00    +0.013 C 
ATOM     14  C   UNL     1       0.742  -0.511   1.242  0.00  0.00    +0.012 C 
ENDBRANCH   6  13
ENDBRANCH   5   9
ENDBRANCH   2   5
ENDBRANCH   1   2
BRANCH   1  15
ATOM     15  C   UNL     1      -9.183  -0.738  -1.359  0.00  0.00    +0.166 C 
BRANCH  15  16
ATOM     16  C   UNL     1     -10.550  -1.339  -1.154  0.00  0.00    -0.014 A 
ATOM     17  C   UNL     1     -10.966  -2.393  -1.946  0.00  0.00    +0.010 A 
ATOM     18  C   UNL     1     -12.219  -2.949  -1.764  0.00  0.00    +0.050 A 
ATOM     19  C   UNL     1     -13.057  -2.447  -0.783  0.00  0.00    +0.162 A 
ATOM     20  C   UNL     1     -12.640  -1.389   0.013  0.00  0.00    +0.162 A 
ATOM     21  C   UNL     1     -11.383  -0.837  -0.170  0.00  0.00    +0.055 A 
ATOM     22  O   UNL     1     -13.473  -0.902   0.978  0.00  0.00    -0.488 OA
ATOM     23  C   UNL     1     -14.643  -0.227   0.510  0.00  0.00    +0.232 C 
ATOM     24  C   UNL     1     -15.754  -1.219   0.209  0.00  0.00    +0.082 C 
ATOM     25  C   UNL     1     -15.402  -2.152  -0.939  0.00  0.00    +0.232 C 
ATOM     26  O   UNL     1     -14.295  -2.987  -0.592  0.00  0.00    -0.488 OA
ENDBRANCH  15  16
BRANCH  15  27
ATOM     27  O   UNL     1      -8.905  -0.653  -2.758  0.00  0.00    -0.386 OA
ATOM     28  H   UNL     1      -8.913  -1.506  -3.213  0.00  0.00    +0.210 HD
ENDBRANCH  15  27
ENDBRANCH   1  15
TORSDOF 7
