REMARK  Name = ZINC40661955
REMARK  8 active torsions:
REMARK  status: ('A' for Active; 'I' for Inactive)
REMARK    1  A    between atoms: C_1  and  C_2
REMARK    2  A    between atoms: C_2  and  N_3
REMARK    3  A    between atoms: N_3  and  C_4
REMARK    4  A    between atoms: C_8  and  C_10
REMARK    5  A    between atoms: C_12  and  N_33
REMARK    6  A    between atoms: C_13  and  N_17
REMARK    7  A    between atoms: N_20  and  C_23
REMARK    8  A    between atoms: C_23  and  C_24
REMARK                            x       y       z     vdW  Elec       q    Type
REMARK                         _______ _______ _______ _____ _____    ______ ____
ROOT
ATOM      1  N   UNL     1       0.674  -0.463  -1.193  0.00  0.00    -0.285 N 
ATOM      2  C   UNL     1      -0.125  -0.667  -2.312  0.00  0.00    +0.129 A 
ATOM      3  C   UNL     1      -1.488  -0.366  -2.275  0.00  0.00    +0.104 A 
ATOM      4  C   UNL     1      -2.245  -0.590  -3.426  0.00  0.00    +0.147 A 
ATOM      5  N   UNL     1      -1.643  -1.079  -4.508  0.00  0.00    -0.221 NA
ATOM      6  C   UNL     1      -0.354  -1.350  -4.502  0.00  0.00    +0.200 A 
ATOM      7  N   UNL     1       0.398  -1.148  -3.438  0.00  0.00    -0.332 N 
ATOM      8  H   UNL     1       1.344  -1.356  -3.475  0.00  0.00    +0.168 HD
ENDROOT
BRANCH   1   9
ATOM      9  C   UNL     1       0.924  -1.518  -0.311  0.00  0.00    +0.035 A 
ATOM     10  C   UNL     1       0.466  -2.796  -0.607  0.00  0.00    +0.023 A 
ATOM     11  C   UNL     1       0.716  -3.837   0.266  0.00  0.00    +0.002 A 
ATOM     12  C   UNL     1       1.420  -3.607   1.434  0.00  0.00    +0.003 A 
ATOM     13  C   UNL     1       1.878  -2.337   1.731  0.00  0.00    -0.049 A 
ATOM     14  C   UNL     1       1.637  -1.293   0.859  0.00  0.00    +0.026 A 
ATOM     15  C   UNL     1       2.645  -2.092   3.005  0.00  0.00    +0.044 C 
ENDBRANCH   1   9
BRANCH   4  16
ATOM     16  N   UNL     1      -3.606  -0.307  -3.442  0.00  0.00    -0.317 N 
ATOM     17  C   UNL     1      -4.587  -1.288  -2.953  0.00  0.00    +0.088 C 
ATOM     18  C   UNL     1      -5.676  -1.457  -4.017  0.00  0.00    -0.059 C 
ATOM     19  N   UNL     1      -6.244  -0.144  -4.348  0.00  0.00    +0.384 N 
ATOM     20  C   UNL     1      -5.217   0.704  -4.966  0.00  0.00    -0.059 C 
ATOM     21  C   UNL     1      -4.104   0.983  -3.943  0.00  0.00    +0.088 C 
ATOM     22  H   UNL     1      -6.581   0.298  -3.506  0.00  0.00    -0.081 HD
BRANCH  19  23
ATOM     23  C   UNL     1      -7.362  -0.318  -5.286  0.00  0.00    -0.043 C 
BRANCH  23  24
ATOM     24  C   UNL     1      -8.023   1.014  -5.532  0.00  0.00    -0.060 A 
ATOM     25  C   UNL     1      -9.063   1.427  -4.721  0.00  0.00    +0.005 A 
ATOM     26  C   UNL     1      -9.673   2.648  -4.942  0.00  0.00    +0.050 A 
ATOM     27  C   UNL     1      -9.243   3.460  -5.978  0.00  0.00    +0.166 A 
ATOM     28  C   UNL     1      -8.195   3.044  -6.795  0.00  0.00    +0.166 A 
ATOM     29  C   UNL     1      -7.585   1.822  -6.564  0.00  0.00    +0.051 A 
ATOM     30  O   UNL     1      -7.962   4.010  -7.731  0.00  0.00    -0.453 OA
ATOM     31  C   UNL     1      -9.141   4.835  -7.735  0.00  0.00    +0.466 C 
ATOM     32  O   UNL     1      -9.666   4.687  -6.402  0.00  0.00    -0.453 OA
ENDBRANCH  23  24
ENDBRANCH  19  23
ENDBRANCH   4  16
BRANCH   3  33
ATOM     33  N   UNL     1      -2.081   0.148  -1.110  0.00  0.00    -0.353 N 
ATOM     34  H   UNL     1      -1.560   0.229  -0.296  0.00  0.00    +0.143 HD
ATOM     35  H   UNL     1      -3.012   0.421  -1.120  0.00  0.00    +0.143 HD
ENDBRANCH   3  33
BRANCH   1  37
ATOM     36  C   UNL     1       2.677   0.906  -1.498  0.00  0.00    +0.025 C 
ATOM     37  C   UNL     1       1.254   0.858  -0.938  0.00  0.00    +0.109 C 
ENDBRANCH   1  37
TORSDOF 6
