REMARK  Name = ZINC03188735
REMARK  4 active torsions:
REMARK  status: ('A' for Active; 'I' for Inactive)
REMARK    1  A    between atoms: C_4  and  C_7
REMARK    2  A    between atoms: C_9  and  N_19
REMARK    3  A    between atoms: C_11  and  C_12
REMARK    4  A    between atoms: N_19  and  N_20
REMARK                            x       y       z     vdW  Elec       q    Type
REMARK                         _______ _______ _______ _____ _____    ______ ____
ROOT
ATOM      1  C   UNL     1       3.692  -0.681  -0.037  0.00  0.00    +0.004 C 
ATOM      2  C   UNL     1       4.621  -0.681   0.934  0.00  0.00    +0.032 C 
ATOM      3  C   UNL     1       5.763  -1.512   0.548  0.00  0.00    +0.047 C 
ATOM      4  C   UNL     1       5.570  -2.042  -0.665  0.00  0.00    +0.045 C 
ATOM      5  C   UNL     1       4.220  -1.561  -1.148  0.00  0.00    +0.175 C 
ATOM      6  O   UNL     1       3.344  -2.670  -1.361  0.00  0.00    -0.213 OA
ENDROOT
BRANCH   1  10
ATOM      7  C   UNL     1      -0.017   1.380   0.010  0.00  0.00    +0.000 A 
ATOM      8  C   UNL     1       1.168   2.095   0.002  0.00  0.00    +0.001 A 
ATOM      9  C   UNL     1       2.377   1.432  -0.013  0.00  0.00    +0.008 A 
ATOM     10  C   UNL     1       2.404   0.035  -0.021  0.00  0.00    -0.018 A 
ATOM     11  C   UNL     1       1.204  -0.681  -0.013  0.00  0.00    +0.008 A 
ATOM     12  C   UNL     1       0.002  -0.004   0.002  0.00  0.00    +0.001 A 
ENDBRANCH   1  10
BRANCH   5  13
ATOM     13  C   UNL     1       4.376  -0.765  -2.417  0.00  0.00    -0.004 A 
ATOM     14  C   UNL     1       4.667   0.585  -2.355  0.00  0.00    +0.007 A 
ATOM     15  C   UNL     1       4.809   1.316  -3.520  0.00  0.00    +0.000 A 
ATOM     16  C   UNL     1       4.661   0.697  -4.747  0.00  0.00    +0.000 A 
ATOM     17  C   UNL     1       4.371  -0.653  -4.809  0.00  0.00    +0.000 A 
ATOM     18  C   UNL     1       4.232  -1.385  -3.644  0.00  0.00    +0.007 A 
ENDBRANCH   5  13
BRANCH   3  19
ATOM     19  N   UNL     1       6.897  -1.720   1.336  0.00  0.00    -0.250 N 
ATOM     20  H   UNL     1       6.966  -1.300   2.208  0.00  0.00    +0.173 HD
BRANCH  19  21
ATOM     21  N   UNL     1       7.936  -2.536   0.868  0.00  0.00    -0.215 N 
ATOM     22  C   UNL     1       7.770  -3.884   0.860  0.00  0.00    +0.223 A 
ATOM     23  N   UNL     1       8.714  -4.678   0.432  0.00  0.00    -0.228 NA
ATOM     24  C   UNL     1       9.870  -4.190  -0.011  0.00  0.00    +0.116 A 
ATOM     25  C   UNL     1      10.133  -2.812  -0.042  0.00  0.00    +0.077 A 
ATOM     26  C   UNL     1       9.074  -1.968   0.430  0.00  0.00    +0.279 A 
ATOM     27  O   UNL     1       9.205  -0.756   0.438  0.00  0.00    -0.265 OA
ATOM     28  C   UNL     1      11.446  -2.421  -0.554  0.00  0.00    -0.023 A 
ATOM     29  C   UNL     1      12.271  -3.416  -0.945  0.00  0.00    -0.004 A 
ATOM     30  S   UNL     1      11.359  -4.908  -0.657  0.00  0.00    -0.073 S 
ATOM     31  C   UNL     1      13.655  -3.280  -1.500  0.00  0.00    +0.043 C 
ATOM     32  C   UNL     1      13.872  -1.817  -1.910  0.00  0.00    +0.005 C 
ATOM     33  C   UNL     1      13.408  -0.912  -0.765  0.00  0.00    +0.005 C 
ATOM     34  C   UNL     1      11.883  -0.962  -0.649  0.00  0.00    +0.037 C 
ENDBRANCH  19  21
ENDBRANCH   3  19
TORSDOF 4
