REMARK  Name = ZINC63571497
REMARK  6 active torsions:
REMARK  status: ('A' for Active; 'I' for Inactive)
REMARK    1  A    between atoms: C_1  and  C_2
REMARK    2  A    between atoms: C_2  and  O_3
REMARK    3  A    between atoms: O_3  and  C_4
REMARK    4  A    between atoms: C_7  and  N_10
REMARK    5  A    between atoms: C_26  and  C_28
REMARK    6  A    between atoms: C_31  and  C_34
REMARK                            x       y       z     vdW  Elec       q    Type
REMARK                         _______ _______ _______ _____ _____    ______ ____
ROOT
ATOM      1  N   UNL     1       1.116  -5.504   2.380  0.00  0.00    -0.269 N 
ATOM      2  C   UNL     1       1.924  -6.226   3.181  0.00  0.00    +0.307 C 
ATOM      3  O   UNL     1       2.616  -5.668   4.010  0.00  0.00    -0.252 OA
ATOM      4  N   UNL     1       1.964  -7.568   3.063  0.00  0.00    -0.276 N 
ATOM      5  C   UNL     1       1.238  -8.223   1.970  0.00  0.00    +0.114 C 
ATOM      6  C   UNL     1       2.223  -9.052   1.125  0.00  0.00    +0.052 C 
ATOM      7  C   UNL     1       3.089  -9.816   2.095  0.00  0.00    -0.035 C 
ATOM      8  C   UNL     1       3.386 -11.107   2.177  0.00  0.00    -0.001 A 
ATOM      9  C   UNL     1       3.072 -12.243   1.295  0.00  0.00    +0.010 A 
ATOM     10  C   UNL     1       3.525 -13.459   1.699  0.00  0.00    +0.001 A 
ATOM     11  C   UNL     1       4.249 -13.657   2.879  0.00  0.00    +0.002 A 
ATOM     12  C   UNL     1       4.590 -12.669   3.745  0.00  0.00    +0.026 A 
ATOM     13  C   UNL     1       4.177 -11.344   3.423  0.00  0.00    +0.043 A 
ATOM     14  N   UNL     1       4.382 -10.223   4.051  0.00  0.00    -0.375 N 
ATOM     15  C   UNL     1       3.805  -9.138   3.256  0.00  0.00    +0.131 C 
ATOM     16  C   UNL     1       2.741  -8.361   4.029  0.00  0.00    +0.134 C 
ATOM     17  H   UNL     1       0.508  -5.953   1.771  0.00  0.00    +0.156 HD
ATOM     18  H   UNL     1       4.839 -10.124   4.900  0.00  0.00    +0.160 HD
ENDROOT
BRANCH  16  19
ATOM     19  C   UNL     1       1.832  -9.324   4.748  0.00  0.00    -0.025 A 
ATOM     20  C   UNL     1       1.563  -9.147   6.093  0.00  0.00    +0.006 A 
ATOM     21  C   UNL     1       0.729 -10.031   6.752  0.00  0.00    +0.004 A 
ATOM     22  C   UNL     1       0.164 -11.090   6.067  0.00  0.00    -0.050 A 
ATOM     23  C   UNL     1       0.433 -11.266   4.723  0.00  0.00    +0.004 A 
ATOM     24  C   UNL     1       1.263 -10.380   4.062  0.00  0.00    +0.006 A 
ATOM     25  C   UNL     1      -0.744 -12.054   6.786  0.00  0.00    +0.044 C 
ENDBRANCH  16  19
BRANCH   1  29
ATOM     26  C   UNL     1       1.229  -1.337   2.515  0.00  0.00    +0.121 A 
ATOM     27  C   UNL     1       0.957  -1.985   1.319  0.00  0.00    +0.047 A 
ATOM     28  C   UNL     1       0.920  -3.365   1.273  0.00  0.00    +0.027 A 
ATOM     29  C   UNL     1       1.154  -4.104   2.425  0.00  0.00    +0.035 A 
ATOM     30  C   UNL     1       1.426  -3.455   3.622  0.00  0.00    +0.027 A 
ATOM     31  C   UNL     1       1.468  -2.075   3.665  0.00  0.00    +0.047 A 
BRANCH  26  32
ATOM     32  O   UNL     1       1.265   0.021   2.559  0.00  0.00    -0.492 OA
BRANCH  32  34
ATOM     33  C   UNL     1       1.093   2.225   1.583  0.00  0.00    +0.048 C 
ATOM     34  C   UNL     1       1.009   0.717   1.338  0.00  0.00    +0.225 C 
ENDBRANCH  32  34
ENDBRANCH  26  32
ENDBRANCH   1  29
TORSDOF 4
