REMARK  Name = ZINC17112399
REMARK  5 active torsions:
REMARK  status: ('A' for Active; 'I' for Inactive)
REMARK    1  A    between atoms: C_1  and  N_53
REMARK    2  A    between atoms: C_3  and  C_26
REMARK    3  A    between atoms: C_5  and  C_17
REMARK    4  A    between atoms: C_17  and  C_19
REMARK    5  A    between atoms: C_29  and  N_32
REMARK                            x       y       z     vdW  Elec       q    Type
REMARK                         _______ _______ _______ _____ _____    ______ ____
ROOT
ATOM      1  C   UNL     1       0.021   1.115   0.041  0.00  0.00    -0.094 C 
ATOM      2  C   UNL     1      -0.004   1.074   2.477  0.00  0.00    -0.068 C 
ATOM      3  C   UNL     1      -1.115   1.161   3.555  0.00  0.00    +0.012 C 
ATOM      4  C   UNL     1      -2.390   0.767   2.771  0.00  0.00    +0.068 C 
ATOM      5  C   UNL     1      -2.047   1.038   1.302  0.00  0.00    +0.050 C 
ATOM      6  C   UNL     1      -2.173  -0.214   0.476  0.00  0.00    -0.027 A 
ATOM      7  C   UNL     1      -1.556  -1.444   0.526  0.00  0.00    +0.004 A 
ATOM      8  C   UNL     1      -1.889  -2.422  -0.394  0.00  0.00    +0.000 A 
ATOM      9  C   UNL     1      -2.841  -2.161  -1.363  0.00  0.00    +0.002 A 
ATOM     10  C   UNL     1      -3.461  -0.930  -1.416  0.00  0.00    +0.023 A 
ATOM     11  C   UNL     1      -3.133   0.060  -0.493  0.00  0.00    +0.036 A 
ATOM     12  N   UNL     1      -3.612   1.363  -0.342  0.00  0.00    -0.286 N 
ATOM     13  C   UNL     1      -3.029   2.003   0.688  0.00  0.00    +0.212 C 
ATOM     14  O   UNL     1      -3.251   3.139   1.053  0.00  0.00    -0.277 OA
ATOM     15  H   UNL     1      -4.288   1.760  -0.913  0.00  0.00    +0.155 HD
ATOM     16  N   UNL     1      -0.688   1.569   1.276  0.00  0.00    +0.391 N 
ATOM     17  H   UNL     1      -0.715   2.595   1.292  0.00  0.00    -0.080 HD
ENDROOT
BRANCH   3  18
ATOM     18  C   UNL     1      -0.852   0.183   4.671  0.00  0.00    -0.045 A 
ATOM     19  C   UNL     1      -0.755  -1.169   4.398  0.00  0.00    +0.006 A 
ATOM     20  C   UNL     1      -0.509  -2.065   5.421  0.00  0.00    +0.033 A 
ATOM     21  C   UNL     1      -0.370  -1.610   6.720  0.00  0.00    +0.126 A 
ATOM     22  C   UNL     1      -0.472  -0.259   6.993  0.00  0.00    +0.033 A 
ATOM     23  C   UNL     1      -0.713   0.637   5.969  0.00  0.00    +0.006 A 
BRANCH  21  24
ATOM     24  N   UNL     1      -0.112  -2.570   7.816  0.00  0.00    +0.056 N 
ATOM     25  O   UNL     1       0.011  -2.170   8.960  0.00  0.00    -0.126 OA
ATOM     26  O   UNL     1      -0.022  -3.761   7.575  0.00  0.00    -0.126 OA
ENDBRANCH  21  24
ENDBRANCH   3  18
BRANCH   4  27
ATOM     27  C   UNL     1      -3.556   1.616   3.206  0.00  0.00    +0.166 C 
ATOM     28  O   UNL     1      -3.363   2.723   3.664  0.00  0.00    -0.292 OA
BRANCH  27  29
ATOM     29  C   UNL     1      -4.928   1.104   3.075  0.00  0.00    +0.018 A 
ATOM     30  C   UNL     1      -5.155  -0.169   2.542  0.00  0.00    +0.014 A 
ATOM     31  C   UNL     1      -6.442  -0.645   2.427  0.00  0.00    +0.039 A 
ATOM     32  C   UNL     1      -7.513   0.140   2.828  0.00  0.00    +0.123 A 
ATOM     33  C   UNL     1      -7.296   1.405   3.352  0.00  0.00    +0.039 A 
ATOM     34  C   UNL     1      -6.013   1.891   3.478  0.00  0.00    +0.014 A 
ATOM     35  F   UNL     1      -8.774  -0.331   2.708  0.00  0.00    -0.205 F 
ENDBRANCH  27  29
ENDBRANCH   4  27
TORSDOF 4
