REMARK  Name = ZINC23178384
REMARK  12 active torsions:
REMARK  status: ('A' for Active; 'I' for Inactive)
REMARK    1  A    between atoms: C_1  and  C_2
REMARK    2  A    between atoms: C_5  and  C_8
REMARK    3  A    between atoms: C_11  and  C_13
REMARK    4  A    between atoms: C_18  and  C_19
REMARK    5  A    between atoms: N_21  and  C_22
REMARK    6  A    between atoms: C_22  and  C_23
REMARK    7  A    between atoms: C_23  and  C_25
REMARK    8  A    between atoms: C_23  and  N_33
REMARK    9  A    between atoms: C_30  and  O_31
REMARK   10  A    between atoms: O_31  and  C_32
REMARK   11  A    between atoms: N_33  and  C_34
REMARK   12  A    between atoms: N_33  and  C_35
REMARK                            x       y       z     vdW  Elec       q    Type
REMARK                         _______ _______ _______ _____ _____    ______ ____
ROOT
ATOM      1  C   UNL     1      -0.608  -7.536  -1.043  0.00  0.00    +0.047 A 
ATOM      2  C   UNL     1       0.196  -8.604  -0.645  0.00  0.00    +0.014 A 
ATOM      3  C   UNL     1       0.191  -9.779  -1.369  0.00  0.00    +0.001 A 
ATOM      4  C   UNL     1      -0.608  -9.907  -2.494  0.00  0.00    +0.001 A 
ATOM      5  C   UNL     1      -1.410  -8.862  -2.905  0.00  0.00    +0.014 A 
ATOM      6  C   UNL     1      -1.425  -7.669  -2.183  0.00  0.00    +0.049 A 
ENDROOT
BRANCH   1  10
ATOM      7  C   UNL     1      -0.513  -4.165   0.236  0.00  0.00    +0.153 A 
ATOM      8  C   UNL     1      -0.699  -4.890   1.374  0.00  0.00    +0.132 A 
ATOM      9  N   UNL     1      -0.753  -6.180   1.030  0.00  0.00    -0.328 N 
ATOM     10  C   UNL     1      -0.607  -6.279  -0.272  0.00  0.00    +0.207 A 
ATOM     11  O   UNL     1      -0.462  -5.045  -0.788  0.00  0.00    -0.437 OA
ATOM     12  H   UNL     1      -0.878  -6.922   1.642  0.00  0.00    +0.168 HD
BRANCH   7  17
ATOM     13  C   UNL     1      -0.054   1.558  -0.140  0.00  0.00    +0.044 C 
ATOM     14  C   UNL     1      -0.174   0.059  -0.041  0.00  0.00    -0.050 A 
ATOM     15  C   UNL     1      -0.101  -0.715  -1.186  0.00  0.00    +0.004 A 
ATOM     16  C   UNL     1      -0.210  -2.087  -1.103  0.00  0.00    +0.012 A 
ATOM     17  C   UNL     1      -0.395  -2.696   0.140  0.00  0.00    +0.019 A 
ATOM     18  C   UNL     1      -0.467  -1.909   1.291  0.00  0.00    +0.012 A 
ATOM     19  C   UNL     1      -0.351  -0.538   1.194  0.00  0.00    +0.004 A 
ENDBRANCH   7  17
ENDBRANCH   1  10
BRANCH   6  20
ATOM     20  C   UNL     1      -2.286  -6.550  -2.615  0.00  0.00    +0.245 C 
ATOM     21  O   UNL     1      -2.291  -5.510  -1.985  0.00  0.00    -0.270 OA
ATOM     22  N   UNL     1      -3.065  -6.682  -3.706  0.00  0.00    -0.313 N 
ATOM     23  H   UNL     1      -3.061  -7.512  -4.208  0.00  0.00    +0.149 HD
BRANCH  22  24
ATOM     24  C   UNL     1      -3.920  -5.572  -4.134  0.00  0.00    +0.094 C 
BRANCH  24  25
ATOM     25  C   UNL     1      -4.598  -5.931  -5.458  0.00  0.00    -0.017 C 
BRANCH  25  26
ATOM     26  C   UNL     1      -5.545  -7.083  -5.241  0.00  0.00    -0.018 A 
ATOM     27  C   UNL     1      -5.124  -8.378  -5.479  0.00  0.00    +0.005 A 
ATOM     28  C   UNL     1      -5.992  -9.435  -5.280  0.00  0.00    +0.000 A 
ATOM     29  C   UNL     1      -7.283  -9.200  -4.843  0.00  0.00    +0.004 A 
ATOM     30  C   UNL     1      -7.708  -7.908  -4.603  0.00  0.00    +0.046 A 
ATOM     31  C   UNL     1      -6.837  -6.846  -4.797  0.00  0.00    +0.122 A 
BRANCH  31  32
ATOM     32  O   UNL     1      -7.251  -5.574  -4.556  0.00  0.00    -0.495 OA
ATOM     33  C   UNL     1      -8.595  -5.404  -4.101  0.00  0.00    +0.277 C 
ENDBRANCH  31  32
ENDBRANCH  25  26
BRANCH  25  34
ATOM     34  N   UNL     1      -3.577  -6.314  -6.442  0.00  0.00    +0.382 N 
ATOM     35  C   UNL     1      -4.225  -6.617  -7.726  0.00  0.00    -0.096 C 
ATOM     36  C   UNL     1      -2.629  -5.207  -6.622  0.00  0.00    -0.096 C 
ATOM     37  H   UNL     1      -3.083  -7.130  -6.114  0.00  0.00    -0.082 HD
ENDBRANCH  25  34
ENDBRANCH  24  25
ENDBRANCH  22  24
ENDBRANCH   6  20
TORSDOF 8
