REMARK  Name = ZINC63182474
REMARK  8 active torsions:
REMARK  status: ('A' for Active; 'I' for Inactive)
REMARK    1  A    between atoms: C_1  and  C_2
REMARK    2  A    between atoms: C_4  and  C_31
REMARK    3  A    between atoms: C_6  and  N_8
REMARK    4  A    between atoms: C_9  and  C_11
REMARK    5  A    between atoms: C_11  and  C_13
REMARK    6  A    between atoms: C_11  and  N_23
REMARK    7  A    between atoms: C_13  and  C_14
REMARK    8  A    between atoms: C_24  and  C_26
REMARK                            x       y       z     vdW  Elec       q    Type
REMARK                         _______ _______ _______ _____ _____    ______ ____
ROOT
ATOM      1  C   UNL     1       0.280  -2.900   4.854  0.00  0.00    +0.163 C 
ENDROOT
BRANCH   1   3
ATOM      2  N   UNL     1       0.052  -2.797   2.393  0.00  0.00    -0.284 N 
ATOM      3  C   UNL     1       0.150  -2.134   3.562  0.00  0.00    +0.238 C 
ATOM      4  O   UNL     1       0.134  -0.922   3.575  0.00  0.00    -0.273 OA
ATOM      5  H   UNL     1      -0.003  -3.766   2.387  0.00  0.00    +0.155 HD
BRANCH   2  11
ATOM      6  C   UNL     1       1.264  -2.495  -2.362  0.00  0.00    +0.044 C 
ATOM      7  C   UNL     1       0.609  -1.918  -1.134  0.00  0.00    -0.048 A 
ATOM      8  C   UNL     1      -0.016  -0.686  -1.198  0.00  0.00    +0.006 A 
ATOM      9  C   UNL     1      -0.619  -0.154  -0.073  0.00  0.00    -0.048 A 
ATOM     10  C   UNL     1      -0.598  -0.851   1.119  0.00  0.00    +0.026 A 
ATOM     11  C   UNL     1       0.029  -2.088   1.187  0.00  0.00    +0.034 A 
ATOM     12  C   UNL     1       0.629  -2.623   0.054  0.00  0.00    +0.026 A 
ATOM     13  C   UNL     1      -1.298   1.189  -0.148  0.00  0.00    +0.044 C 
ENDBRANCH   2  11
ENDBRANCH   1   3
BRANCH   1  14
ATOM     14  N   UNL     1      -0.104  -2.037   5.974  0.00  0.00    -0.299 N 
ATOM     15  C   UNL     1       0.570  -0.893   6.204  0.00  0.00    +0.251 C 
ATOM     16  O   UNL     1       1.497  -0.577   5.482  0.00  0.00    -0.270 OA
ATOM     17  H   UNL     1      -0.843  -2.289   6.549  0.00  0.00    +0.150 HD
BRANCH  15  18
ATOM     18  C   UNL     1       0.186  -0.029   7.325  0.00  0.00    +0.074 A 
ATOM     19  C   UNL     1       0.738   1.177   7.727  0.00  0.00    +0.021 A 
ATOM     20  C   UNL     1       0.158   1.761   8.828  0.00  0.00    +0.008 A 
ATOM     21  C   UNL     1      -0.885   1.139   9.431  0.00  0.00    +0.046 A 
ATOM     22  S   UNL     1      -1.117  -0.253   8.521  0.00  0.00    -0.092 S 
ENDBRANCH  15  18
ENDBRANCH   1  14
BRANCH   1  23
ATOM     23  C   UNL     1       1.730  -3.355   5.034  0.00  0.00    +0.065 C 
BRANCH  23  24
ATOM     24  C   UNL     1       1.835  -4.223   6.260  0.00  0.00    -0.039 C 
ATOM     25  C   UNL     1       1.791  -5.574   6.306  0.00  0.00    -0.001 A 
ATOM     26  C   UNL     1       1.637  -6.600   5.268  0.00  0.00    +0.010 A 
ATOM     27  C   UNL     1       1.629  -7.903   5.630  0.00  0.00    +0.001 A 
ATOM     28  C   UNL     1       1.764  -8.298   6.968  0.00  0.00    +0.002 A 
ATOM     29  C   UNL     1       1.911  -7.414   7.977  0.00  0.00    +0.026 A 
ATOM     30  C   UNL     1       1.933  -6.017   7.712  0.00  0.00    +0.043 A 
ATOM     31  N   UNL     1       2.060  -4.980   8.504  0.00  0.00    -0.380 N 
ATOM     32  C   UNL     1       2.019  -3.761   7.689  0.00  0.00    +0.144 C 
ATOM     33  H   UNL     1       2.167  -5.013   9.467  0.00  0.00    +0.160 HD
ENDBRANCH  23  24
ENDBRANCH   1  23
TORSDOF 6
