REMARK  Name = ZINC39946480
REMARK  7 active torsions:
REMARK  status: ('A' for Active; 'I' for Inactive)
REMARK    1  A    between atoms: C_1  and  C_2
REMARK    2  A    between atoms: C_5  and  C_8
REMARK    3  A    between atoms: N_13  and  C_14
REMARK    4  A    between atoms: C_14  and  C_15
REMARK    5  A    between atoms: C_15  and  C_17
REMARK    6  A    between atoms: N_18  and  N_19
REMARK    7  A    between atoms: C_20  and  C_21
REMARK                            x       y       z     vdW  Elec       q    Type
REMARK                         _______ _______ _______ _____ _____    ______ ____
ROOT
ATOM      1  C   UNL     1       0.008  -4.218  -0.006  0.00  0.00    +0.140 C 
ATOM      2  C   UNL     1       1.471  -4.679   0.192  0.00  0.00    +0.106 C 
ATOM      3  S   UNL     1       1.218  -6.038   1.410  0.00  0.00    -0.089 S 
ATOM      4  C   UNL     1      -0.384  -5.530   2.018  0.00  0.00    +0.151 C 
ATOM      5  N   UNL     1      -0.945  -5.836   3.154  0.00  0.00    -0.363 N 
ATOM      6  N   UNL     1      -0.889  -4.738   1.008  0.00  0.00    -0.195 N 
ATOM      7  H   UNL     1      -1.793  -5.435   3.400  0.00  0.00    +0.162 HD
ENDROOT
BRANCH   1  12
ATOM      8  C   UNL     1      -0.163   1.556   0.143  0.00  0.00    +0.044 C 
ATOM      9  C   UNL     1      -0.118   0.050   0.104  0.00  0.00    -0.050 A 
ATOM     10  C   UNL     1      -0.113  -0.610  -1.111  0.00  0.00    +0.004 A 
ATOM     11  C   UNL     1      -0.072  -1.992  -1.146  0.00  0.00    +0.006 A 
ATOM     12  C   UNL     1      -0.036  -2.713   0.033  0.00  0.00    -0.024 A 
ATOM     13  C   UNL     1      -0.040  -2.052   1.247  0.00  0.00    +0.006 A 
ATOM     14  C   UNL     1      -0.076  -0.671   1.283  0.00  0.00    +0.004 A 
ENDBRANCH   1  12
BRANCH   6  15
ATOM     15  N   UNL     1      -2.258  -4.441   0.964  0.00  0.00    -0.185 NA
ATOM     16  C   UNL     1      -2.752  -3.782  -0.056  0.00  0.00    +0.136 C 
BRANCH  16  17
ATOM     17  C   UNL     1      -4.094  -3.382  -0.047  0.00  0.00    +0.000 C 
ATOM     18  C   UNL     1      -4.772  -2.684  -1.046  0.00  0.00    +0.005 A 
ATOM     19  C   UNL     1      -4.369  -2.185  -2.303  0.00  0.00    +0.025 A 
ATOM     20  C   UNL     1      -5.263  -1.529  -3.086  0.00  0.00    +0.019 A 
ATOM     21  C   UNL     1      -6.586  -1.331  -2.678  0.00  0.00    +0.017 A 
ATOM     22  C   UNL     1      -7.042  -1.782  -1.484  0.00  0.00    +0.027 A 
ATOM     23  C   UNL     1      -6.165  -2.479  -0.612  0.00  0.00    +0.043 A 
ATOM     24  N   UNL     1      -6.359  -3.008   0.579  0.00  0.00    -0.380 N 
ATOM     25  C   UNL     1      -5.112  -3.622   1.046  0.00  0.00    +0.150 C 
ATOM     26 BR   UNL     1      -4.707  -0.866  -4.767  0.00  0.00    -0.050 Br
ATOM     27  H   UNL     1      -7.196  -2.996   1.069  0.00  0.00    +0.160 HD
ENDBRANCH  16  17
ENDBRANCH   6  15
BRANCH   5  28
ATOM     28  C   UNL     1      -0.293  -6.786   4.060  0.00  0.00    +0.144 C 
BRANCH  28  29
ATOM     29  C   UNL     1      -1.140  -6.965   5.293  0.00  0.00    -0.061 C 
ATOM     30  C   UNL     1      -1.990  -7.959   5.365  0.00  0.00    +0.009 C 
ATOM     31  C   UNL     1      -1.010  -6.000   6.444  0.00  0.00    +0.040 C 
ENDBRANCH  28  29
ENDBRANCH   5  28
TORSDOF 5
