REMARK  Name = ZINC49522487
REMARK  9 active torsions:
REMARK  status: ('A' for Active; 'I' for Inactive)
REMARK    1  A    between atoms: C_1  and  C_2
REMARK    2  A    between atoms: C_2  and  C_3
REMARK    3  A    between atoms: C_2  and  C_4
REMARK    4  A    between atoms: C_13  and  N_16
REMARK    5  A    between atoms: C_17  and  C_19
REMARK    6  A    between atoms: N_21  and  C_22
REMARK    7  A    between atoms: C_22  and  C_23
REMARK    8  A    between atoms: N_26  and  C_29
REMARK    9  A    between atoms: C_29  and  C_30
REMARK                            x       y       z     vdW  Elec       q    Type
REMARK                         _______ _______ _______ _____ _____    ______ ____
ROOT
ATOM      1  N   UNL     1      -6.431  -1.269   0.995  0.00  0.00    -0.278 N 
ATOM      2  C   UNL     1      -7.654  -1.801   1.190  0.00  0.00    +0.303 C 
ATOM      3  O   UNL     1      -7.813  -3.002   1.115  0.00  0.00    -0.265 OA
ATOM      4  H   UNL     1      -6.287  -0.320   1.131  0.00  0.00    +0.155 HD
ENDROOT
BRANCH   1  14
ATOM      5  C   UNL     1      -1.465  -1.182   1.704  0.00  0.00    +0.222 C 
ATOM      6  O   UNL     1      -2.308  -0.310   1.739  0.00  0.00    -0.275 OA
ATOM      7  N   UNL     1      -1.739  -2.361   1.110  0.00  0.00    -0.271 N 
ATOM      8  C   UNL     1      -0.689  -3.374   0.944  0.00  0.00    +0.114 C 
ATOM      9  C   UNL     1      -0.794  -3.927  -0.484  0.00  0.00    +0.024 C 
ATOM     10  C   UNL     1      -2.145  -4.622  -0.646  0.00  0.00    +0.038 C 
ATOM     11  C   UNL     1      -3.263  -3.714  -0.204  0.00  0.00    -0.026 A 
ATOM     12  C   UNL     1      -3.032  -2.642   0.647  0.00  0.00    +0.041 A 
ATOM     13  C   UNL     1      -4.083  -1.827   1.045  0.00  0.00    +0.047 A 
ATOM     14  C   UNL     1      -5.370  -2.086   0.595  0.00  0.00    +0.036 A 
ATOM     15  C   UNL     1      -5.600  -3.162  -0.254  0.00  0.00    +0.024 A 
ATOM     16  C   UNL     1      -4.548  -3.965  -0.657  0.00  0.00    +0.007 A 
BRANCH   5  18
ATOM     17  C   UNL     1      -0.064   0.459   2.926  0.00  0.00    +0.017 C 
ATOM     18  C   UNL     1      -0.112  -0.947   2.325  0.00  0.00    +0.069 C 
ATOM     19  C   UNL     1       0.130  -1.981   3.427  0.00  0.00    +0.017 C 
ENDBRANCH   5  18
ENDBRANCH   1  14
BRANCH   2  20
ATOM     20  C   UNL     1      -8.814  -0.911   1.499  0.00  0.00    +0.299 C 
ATOM     21  O   UNL     1      -8.654   0.289   1.574  0.00  0.00    -0.265 OA
ATOM     22  N   UNL     1     -10.037  -1.442   1.695  0.00  0.00    -0.307 N 
ATOM     23  H   UNL     1     -10.164  -2.402   1.635  0.00  0.00    +0.149 HD
BRANCH  22  24
ATOM     24  C   UNL     1     -11.174  -0.570   1.998  0.00  0.00    +0.108 C 
BRANCH  24  25
ATOM     25  C   UNL     1     -12.435  -1.419   2.173  0.00  0.00    +0.003 C 
ATOM     26  C   UNL     1     -12.792  -2.087   0.842  0.00  0.00    -0.014 C 
ATOM     27  C   UNL     1     -14.097  -2.869   1.003  0.00  0.00    -0.078 C 
ATOM     28  N   UNL     1     -15.175  -1.954   1.398  0.00  0.00    +0.382 N 
ATOM     29  C   UNL     1     -14.873  -1.364   2.708  0.00  0.00    -0.078 C 
ATOM     30  C   UNL     1     -13.598  -0.524   2.612  0.00  0.00    -0.014 C 
ATOM     31  H   UNL     1     -15.259  -1.220   0.711  0.00  0.00    -0.081 HD
BRANCH  28  32
ATOM     32  C   UNL     1     -16.440  -2.695   1.476  0.00  0.00    -0.042 C 
BRANCH  32  33
ATOM     33  C   UNL     1     -17.568  -1.736   1.760  0.00  0.00    -0.057 A 
ATOM     34  C   UNL     1     -17.926  -1.441   3.062  0.00  0.00    +0.009 A 
ATOM     35  C   UNL     1     -18.944  -0.574   3.283  0.00  0.00    +0.045 A 
ATOM     36  S   UNL     1     -19.432  -0.145   1.620  0.00  0.00    -0.105 S 
ATOM     37  C   UNL     1     -18.242  -1.146   0.743  0.00  0.00    +0.047 A 
ENDBRANCH  32  33
ENDBRANCH  28  32
ENDBRANCH  24  25
ENDBRANCH  22  24
ENDBRANCH   2  20
TORSDOF 7
