REMARK  Name = ZINC58759285
REMARK  11 active torsions:
REMARK  status: ('A' for Active; 'I' for Inactive)
REMARK    1  A    between atoms: C_1  and  C_2
REMARK    2  A    between atoms: C_4  and  O_31
REMARK    3  A    between atoms: C_5  and  C_11
REMARK    4  A    between atoms: C_7  and  C_8
REMARK    5  A    between atoms: C_8  and  C_9
REMARK    6  A    between atoms: C_8  and  C_10
REMARK    7  A    between atoms: C_11  and  N_12
REMARK    8  A    between atoms: N_15  and  S_18
REMARK    9  A    between atoms: S_18  and  N_21
REMARK   10  A    between atoms: C_23  and  C_30
REMARK   11  A    between atoms: C_26  and  C_29
REMARK                            x       y       z     vdW  Elec       q    Type
REMARK                         _______ _______ _______ _____ _____    ______ ____
ROOT
ATOM      1  N   UNL     1      -0.745  -4.955  -0.197  0.00  0.00    -0.296 NA
ATOM      2  C   UNL     1      -1.569  -4.771   1.005  0.00  0.00    +0.102 C 
ATOM      3  C   UNL     1      -2.954  -5.383   0.770  0.00  0.00    +0.126 C 
ATOM      4  N   UNL     1      -2.781  -6.779   0.342  0.00  0.00    -0.164 NA
ATOM      5  C   UNL     1      -1.861  -7.057  -0.772  0.00  0.00    +0.126 C 
ATOM      6  C   UNL     1      -0.519  -6.379  -0.476  0.00  0.00    +0.102 C 
ENDROOT
BRANCH   4   7
ATOM      7  S   UNL     1      -3.600  -8.006   1.094  0.00  0.00    +0.100 S 
ATOM      8  O   UNL     1      -2.847  -9.191   0.875  0.00  0.00    -0.141 OA
ATOM      9  O   UNL     1      -3.925  -7.539   2.396  0.00  0.00    -0.141 OA
BRANCH   7  10
ATOM     10  N   UNL     1      -5.034  -8.202   0.290  0.00  0.00    -0.161 NA
ATOM     11  C   UNL     1      -6.235  -7.451   0.688  0.00  0.00    +0.142 C 
ATOM     12  C   UNL     1      -6.827  -6.788  -0.561  0.00  0.00    +0.131 C 
ATOM     13  O   UNL     1      -7.006  -7.777  -1.578  0.00  0.00    -0.371 OA
ATOM     14  C   UNL     1      -5.791  -8.388  -2.019  0.00  0.00    +0.131 C 
ATOM     15  C   UNL     1      -5.144  -9.129  -0.848  0.00  0.00    +0.142 C 
ATOM     16  C   UNL     1      -4.833  -7.311  -2.531  0.00  0.00    +0.039 C 
ATOM     17  C   UNL     1      -8.179  -6.160  -0.214  0.00  0.00    +0.039 C 
ENDBRANCH   7  10
ENDBRANCH   4   7
BRANCH   1  18
ATOM     18  C   UNL     1       0.529  -4.233  -0.078  0.00  0.00    +0.123 C 
BRANCH  18  23
ATOM     19  C   UNL     1      -0.484   1.457   0.078  0.00  0.00    +0.044 C 
ATOM     20  C   UNL     1      -0.221  -0.026   0.034  0.00  0.00    -0.044 A 
ATOM     21  C   UNL     1      -0.322  -0.710  -1.162  0.00  0.00    +0.049 A 
ATOM     22  C   UNL     1      -0.079  -2.075  -1.201  0.00  0.00    +0.122 A 
ATOM     23  C   UNL     1       0.265  -2.750  -0.039  0.00  0.00    +0.008 A 
ATOM     24  C   UNL     1       0.365  -2.062   1.154  0.00  0.00    +0.012 A 
ATOM     25  C   UNL     1       0.127  -0.700   1.190  0.00  0.00    -0.041 A 
BRANCH  25  26
ATOM     26  C   UNL     1       0.243   0.050   2.492  0.00  0.00    +0.013 C 
ATOM     27  C   UNL     1      -0.844  -0.430   3.456  0.00  0.00    +0.012 C 
ATOM     28  C   UNL     1       1.620  -0.206   3.108  0.00  0.00    +0.012 C 
ENDBRANCH  25  26
BRANCH  22  29
ATOM     29  O   UNL     1      -0.179  -2.750  -2.376  0.00  0.00    -0.506 OA
ATOM     30  H   UNL     1       0.647  -2.789  -2.879  0.00  0.00    +0.292 HD
ENDBRANCH  22  29
ENDBRANCH  18  23
ENDBRANCH   1  18
TORSDOF 6
