REMARK  Name = ZINC57363665
REMARK  1 active torsions:
REMARK  status: ('A' for Active; 'I' for Inactive)
REMARK    1  A    between atoms: C_9  and  C_13
REMARK                            x       y       z     vdW  Elec       q    Type
REMARK                         _______ _______ _______ _____ _____    ______ ____
ROOT
ATOM      1  C   UNL     1      -0.019   1.526   0.010  0.00  0.00    +0.000 C 
ATOM      2  C   UNL     1       1.416   2.056  -0.000  0.00  0.00    +0.002 C 
ATOM      3  C   UNL     1       2.132   1.566  -1.261  0.00  0.00    +0.033 C 
ATOM      4  C   UNL     1       2.148   0.037  -1.275  0.00  0.00    +0.092 C 
ATOM      5  C   UNL     1       0.715  -0.497  -1.259  0.00  0.00    +0.033 C 
ATOM      6  C   UNL     1       0.002  -0.004   0.002  0.00  0.00    +0.002 C 
ATOM      7  C   UNL     1       2.858  -0.452  -2.516  0.00  0.00    +0.177 C 
ATOM      8  O   UNL     1       2.554  -0.244  -3.666  0.00  0.00    -0.294 OA
ATOM      9  C   UNL     1       4.034  -1.258  -2.007  0.00  0.00    +0.230 C 
ATOM     10  C   UNL     1       3.961  -1.206  -0.502  0.00  0.00    +0.088 C 
ATOM     11  N   UNL     1       2.883  -0.466  -0.115  0.00  0.00    -0.321 N 
ATOM     12  N   UNL     1       4.796  -1.778   0.303  0.00  0.00    -0.389 N 
ATOM     13  H   UNL     1       2.636  -0.295   0.807  0.00  0.00    +0.148 HD
ATOM     14  H   UNL     1       5.540  -2.289  -0.053  0.00  0.00    +0.157 HD
ATOM     15  H   UNL     1       4.678  -1.697   1.262  0.00  0.00    +0.157 HD
ENDROOT
BRANCH   9  16
ATOM     16  C   UNL     1       3.928  -2.684  -2.481  0.00  0.00    +0.373 C 
ATOM     17  O   UNL     1       4.926  -3.280  -2.849  0.00  0.00    -0.245 OA
ATOM     18  O   UNL     1       2.844  -3.243  -2.498  0.00  0.00    -0.245 OA
ENDBRANCH   9  16
TORSDOF 1
