REMARK  Name = ZINC41585696
REMARK  11 active torsions:
REMARK  status: ('A' for Active; 'I' for Inactive)
REMARK    1  A    between atoms: C_1  and  C_2
REMARK    2  A    between atoms: C_2  and  O_3
REMARK    3  A    between atoms: O_3  and  C_4
REMARK    4  A    between atoms: C_9  and  C_10
REMARK    5  A    between atoms: C_15  and  C_37
REMARK    6  A    between atoms: C_17  and  O_36
REMARK    7  A    between atoms: C_18  and  C_21
REMARK    8  A    between atoms: C_21  and  N_22
REMARK    9  A    between atoms: N_25  and  C_28
REMARK   10  A    between atoms: C_31  and  O_34
REMARK   11  A    between atoms: O_34  and  C_35
REMARK                            x       y       z     vdW  Elec       q    Type
REMARK                         _______ _______ _______ _____ _____    ______ ____
ROOT
ATOM      1  C   UNL     1       2.758  -2.238   2.685  0.00  0.00    +0.061 C 
ATOM      2  C   UNL     1       3.197  -2.612   3.914  0.00  0.00    +0.176 C 
ATOM      3  C   UNL     1       3.727  -1.721   4.956  0.00  0.00    +0.232 C 
ATOM      4  O   UNL     1       3.864  -0.511   4.903  0.00  0.00    -0.283 OA
ATOM      5  C   UNL     1       4.055  -2.618   6.079  0.00  0.00    +0.071 A 
ATOM      6  C   UNL     1       4.589  -2.401   7.349  0.00  0.00    -0.033 A 
ATOM      7  C   UNL     1       4.787  -3.457   8.194  0.00  0.00    +0.050 A 
ATOM      8  C   UNL     1       4.458  -4.748   7.790  0.00  0.00    +0.122 A 
ATOM      9  C   UNL     1       3.928  -4.978   6.530  0.00  0.00    +0.020 A 
ATOM     10  C   UNL     1       3.719  -3.916   5.659  0.00  0.00    +0.145 A 
ATOM     11  O   UNL     1       3.220  -3.874   4.405  0.00  0.00    -0.451 OA
ATOM     12  C   UNL     1       4.946  -1.005   7.790  0.00  0.00    +0.045 C 
ENDROOT
BRANCH   1  18
ATOM     13  C   UNL     1       1.933  -2.913   0.434  0.00  0.00    +0.128 A 
ATOM     14  C   UNL     1       1.379  -3.863  -0.409  0.00  0.00    +0.046 A 
ATOM     15  C   UNL     1       1.054  -5.115   0.075  0.00  0.00    +0.004 A 
ATOM     16  C   UNL     1       1.277  -5.433   1.405  0.00  0.00    +0.001 A 
ATOM     17  C   UNL     1       1.827  -4.504   2.260  0.00  0.00    +0.011 A 
ATOM     18  C   UNL     1       2.167  -3.232   1.782  0.00  0.00    +0.020 A 
BRANCH  13  19
ATOM     19  O   UNL     1       2.253  -1.683  -0.041  0.00  0.00    -0.492 OA
BRANCH  19  21
ATOM     20  C   UNL     1       2.409  -0.003  -1.771  0.00  0.00    +0.048 C 
ATOM     21  C   UNL     1       1.986  -1.431  -1.422  0.00  0.00    +0.226 C 
ENDBRANCH  19  21
ENDBRANCH  13  19
ENDBRANCH   1  18
BRANCH   8  22
ATOM     22  O   UNL     1       4.659  -5.790   8.636  0.00  0.00    -0.506 OA
ATOM     23  H   UNL     1       3.902  -5.986   9.205  0.00  0.00    +0.292 HD
ENDBRANCH   8  22
BRANCH   9  24
ATOM     24  C   UNL     1       3.578  -6.381   6.106  0.00  0.00    -0.035 C 
BRANCH  24  25
ATOM     25  N   UNL     1       2.186  -6.671   6.475  0.00  0.00    +0.385 N 
ATOM     26  C   UNL     1       1.287  -5.790   5.720  0.00  0.00    -0.059 C 
ATOM     27  C   UNL     1      -0.156  -6.011   6.187  0.00  0.00    +0.086 C 
ATOM     28  N   UNL     1      -0.469  -7.444   6.069  0.00  0.00    -0.333 N 
ATOM     29  C   UNL     1       0.470  -8.410   6.659  0.00  0.00    +0.086 C 
ATOM     30  C   UNL     1       1.883  -8.075   6.169  0.00  0.00    -0.059 C 
ATOM     31  H   UNL     1       2.061  -6.509   7.463  0.00  0.00    -0.081 HD
BRANCH  28  32
ATOM     32  C   UNL     1      -1.628  -7.875   5.413  0.00  0.00    +0.030 A 
ATOM     33  C   UNL     1      -1.842  -9.231   5.201  0.00  0.00    +0.027 A 
ATOM     34  C   UNL     1      -2.986  -9.655   4.554  0.00  0.00    +0.047 A 
ATOM     35  C   UNL     1      -3.921  -8.729   4.117  0.00  0.00    +0.120 A 
ATOM     36  C   UNL     1      -3.707  -7.375   4.328  0.00  0.00    +0.047 A 
ATOM     37  C   UNL     1      -2.567  -6.948   4.980  0.00  0.00    +0.027 A 
BRANCH  35  38
ATOM     38  O   UNL     1      -5.047  -9.148   3.481  0.00  0.00    -0.495 OA
ATOM     39  C   UNL     1      -5.967  -8.139   3.057  0.00  0.00    +0.277 C 
ENDBRANCH  35  38
ENDBRANCH  28  32
ENDBRANCH  24  25
ENDBRANCH   9  24
TORSDOF 8
