REMARK  Name = ZINC38671204
REMARK  8 active torsions:
REMARK  status: ('A' for Active; 'I' for Inactive)
REMARK    1  A    between atoms: C_1  and  C_2
REMARK    2  A    between atoms: C_4  and  S_10
REMARK    3  A    between atoms: S_10  and  N_13
REMARK    4  A    between atoms: N_13  and  C_14
REMARK    5  A    between atoms: C_14  and  C_15
REMARK    6  A    between atoms: C_15  and  C_17
REMARK    7  A    between atoms: C_15  and  N_28
REMARK    8  A    between atoms: N_26  and  C_27
REMARK                            x       y       z     vdW  Elec       q    Type
REMARK                         _______ _______ _______ _____ _____    ______ ____
ROOT
ATOM      1  C   UNL     1       3.015  -5.370  -2.473  0.00  0.00    -0.022 C 
ENDROOT
BRANCH   1   2
ATOM      2  C   UNL     1       3.247  -6.644  -1.703  0.00  0.00    -0.059 A 
ATOM      3  C   UNL     1       2.492  -7.768  -1.986  0.00  0.00    +0.004 A 
ATOM      4  C   UNL     1       2.704  -8.935  -1.280  0.00  0.00    +0.023 A 
ATOM      5  C   UNL     1       3.675  -8.981  -0.286  0.00  0.00    +0.033 A 
ATOM      6  C   UNL     1       4.434  -7.855  -0.005  0.00  0.00    -0.026 A 
ATOM      7  C   UNL     1       4.216  -6.689  -0.721  0.00  0.00    +0.007 A 
ATOM      8  C   UNL     1       5.501  -7.870   1.057  0.00  0.00    +0.038 C 
ATOM      9  C   UNL     1       5.262  -9.016   2.039  0.00  0.00    +0.024 C 
ATOM     10  C   UNL     1       5.077 -10.318   1.248  0.00  0.00    +0.105 C 
ATOM     11  N   UNL     1       3.871 -10.172   0.421  0.00  0.00    -0.333 N 
ATOM     12  C   UNL     1       2.889 -11.256   0.339  0.00  0.00    +0.129 C 
ENDBRANCH   1   2
BRANCH   1  13
ATOM     13  N   UNL     1       2.775  -5.688  -3.887  0.00  0.00    +0.385 N 
ATOM     14  C   UNL     1       3.909  -6.459  -4.412  0.00  0.00    -0.078 C 
ATOM     15  C   UNL     1       3.628  -6.862  -5.861  0.00  0.00    -0.019 C 
ATOM     16  C   UNL     1       3.430  -5.601  -6.707  0.00  0.00    -0.004 C 
ATOM     17  C   UNL     1       2.294  -4.769  -6.106  0.00  0.00    -0.019 C 
ATOM     18  C   UNL     1       2.624  -4.442  -4.648  0.00  0.00    -0.078 C 
ATOM     19  H   UNL     1       1.932  -6.236  -3.969  0.00  0.00    -0.081 HD
ENDBRANCH   1  13
BRANCH   1  20
ATOM     20  C   UNL     1       1.796  -4.643  -1.900  0.00  0.00    +0.095 C 
BRANCH  20  21
ATOM     21  N   UNL     1       2.072  -4.240  -0.519  0.00  0.00    -0.191 NA
ATOM     22  H   UNL     1       2.826  -4.623  -0.044  0.00  0.00    +0.148 HD
BRANCH  21  23
ATOM     23  S   UNL     1       1.097  -3.132   0.231  0.00  0.00    +0.060 S 
ATOM     24  O   UNL     1       0.957  -2.040  -0.667  0.00  0.00    -0.153 OA
ATOM     25  O   UNL     1       1.601  -2.974   1.550  0.00  0.00    -0.153 OA
BRANCH  23  29
ATOM     26  C   UNL     1      -2.828  -5.010   3.127  0.00  0.00    +0.045 C 
ATOM     27  C   UNL     1      -2.267  -4.711   1.761  0.00  0.00    -0.030 A 
ATOM     28  C   UNL     1      -1.014  -4.138   1.639  0.00  0.00    +0.034 A 
ATOM     29  C   UNL     1      -0.499  -3.863   0.386  0.00  0.00    +0.124 A 
ATOM     30  C   UNL     1      -1.236  -4.162  -0.746  0.00  0.00    +0.069 A 
ATOM     31  C   UNL     1      -2.489  -4.736  -0.624  0.00  0.00    +0.042 A 
ATOM     32  C   UNL     1      -3.002  -5.015   0.630  0.00  0.00    +0.045 A 
ATOM     33 CL   UNL     1      -4.572  -5.740   0.783  0.00  0.00    -0.083 Cl
ATOM     34 CL   UNL     1      -0.588  -3.817  -2.319  0.00  0.00    -0.081 Cl
ENDBRANCH  23  29
ENDBRANCH  21  23
ENDBRANCH  20  21
ENDBRANCH   1  20
TORSDOF 6
