REMARK  Name = ZINC44010225
REMARK  4 active torsions:
REMARK  status: ('A' for Active; 'I' for Inactive)
REMARK    1  A    between atoms: C_3  and  C_6
REMARK    2  A    between atoms: C_6  and  N_7
REMARK    3  A    between atoms: N_10  and  C_11
REMARK    4  A    between atoms: C_15  and  C_17
REMARK                            x       y       z     vdW  Elec       q    Type
REMARK                         _______ _______ _______ _____ _____    ______ ____
ROOT
ATOM      1  C   UNL     1       7.252   3.027   3.039  0.00  0.00    +0.036 A 
ATOM      2  C   UNL     1       7.951   3.539   1.952  0.00  0.00    +0.026 A 
ATOM      3  C   UNL     1       9.147   4.204   2.144  0.00  0.00    +0.041 A 
ATOM      4  C   UNL     1       9.656   4.365   3.419  0.00  0.00    +0.134 A 
ATOM      5  C   UNL     1       8.960   3.854   4.518  0.00  0.00    +0.056 A 
ATOM      6  C   UNL     1       7.751   3.188   4.322  0.00  0.00    +0.037 A 
ATOM      7  F   UNL     1      10.826   5.016   3.603  0.00  0.00    -0.205 F 
ENDROOT
BRANCH   5   8
ATOM      8  C   UNL     1       9.502   4.023   5.884  0.00  0.00    +0.167 A 
ATOM      9  N   UNL     1      10.743   3.813   6.268  0.00  0.00    -0.129 NA
ATOM     10  N   UNL     1      10.858   4.067   7.524  0.00  0.00    -0.134 NA
ATOM     11  C   UNL     1       9.711   4.454   8.007  0.00  0.00    +0.134 A 
ATOM     12  N   UNL     1       8.812   4.434   6.987  0.00  0.00    -0.311 N 
ATOM     13  C   UNL     1       7.391   4.769   7.072  0.00  0.00    +0.125 C 
ATOM     14  C   UNL     1       7.174   5.780   8.202  0.00  0.00    +0.022 C 
ATOM     15  C   UNL     1       6.922   5.039   9.514  0.00  0.00    +0.002 C 
ATOM     16  C   UNL     1       8.127   4.181   9.887  0.00  0.00    +0.008 C 
ATOM     17  C   UNL     1       9.411   4.865   9.426  0.00  0.00    +0.076 C 
ENDBRANCH   5   8
BRANCH   1  21
ATOM     18  N   UNL     1       3.844   1.912   3.494  0.00  0.00    -0.295 N 
ATOM     19  C   UNL     1       5.043   2.479   3.735  0.00  0.00    +0.304 C 
ATOM     20  O   UNL     1       5.224   3.104   4.762  0.00  0.00    -0.252 OA
ATOM     21  N   UNL     1       6.041   2.353   2.838  0.00  0.00    -0.269 N 
ATOM     22  H   UNL     1       3.700   1.413   2.675  0.00  0.00    +0.151 HD
ATOM     23  H   UNL     1       5.920   1.796   2.054  0.00  0.00    +0.156 HD
BRANCH  18  24
ATOM     24  C   UNL     1       2.760   2.049   4.469  0.00  0.00    +0.148 C 
BRANCH  24  27
ATOM     25  C   UNL     1      -0.015  -0.409   3.591  0.00  0.00    +0.008 A 
ATOM     26  C   UNL     1       1.163   0.040   4.157  0.00  0.00    +0.013 A 
ATOM     27  C   UNL     1       1.536   1.329   3.964  0.00  0.00    +0.007 A 
ATOM     28  S   UNL     1       0.201   1.952   2.955  0.00  0.00    -0.100 S 
ATOM     29  C   UNL     1      -0.763   0.453   2.860  0.00  0.00    +0.045 A 
ENDBRANCH  24  27
ENDBRANCH  18  24
ENDBRANCH   1  21
TORSDOF 4
