REMARK  Name = ZINC67380970
REMARK  6 active torsions:
REMARK  status: ('A' for Active; 'I' for Inactive)
REMARK    1  A    between atoms: C_7  and  C_11
REMARK    2  A    between atoms: C_11  and  C_12
REMARK    3  A    between atoms: C_12  and  C_13
REMARK    4  A    between atoms: C_13  and  N_14
REMARK    5  A    between atoms: N_17  and  C_18
REMARK    6  A    between atoms: C_18  and  C_19
REMARK                            x       y       z     vdW  Elec       q    Type
REMARK                         _______ _______ _______ _____ _____    ______ ____
ROOT
ATOM      1  C   UNL     1       2.497  -2.934   5.091  0.00  0.00    +0.106 C 
ENDROOT
BRANCH   1   2
ATOM      2  N   UNL     1       2.629  -2.332   6.420  0.00  0.00    -0.299 N 
ATOM      3  C   UNL     1       2.385  -3.069   7.521  0.00  0.00    +0.300 C 
ATOM      4  O   UNL     1       2.055  -4.234   7.412  0.00  0.00    -0.253 OA
ATOM      5  N   UNL     1       2.507  -2.515   8.744  0.00  0.00    -0.299 N 
ATOM      6  H   UNL     1       2.892  -1.402   6.507  0.00  0.00    +0.150 HD
ATOM      7  H   UNL     1       2.770  -1.586   8.831  0.00  0.00    +0.150 HD
BRANCH   5   8
ATOM      8  C   UNL     1       2.241  -3.317   9.941  0.00  0.00    +0.109 C 
BRANCH   8   9
ATOM      9  C   UNL     1       2.450  -2.455  11.188  0.00  0.00    +0.006 C 
ATOM     10  C   UNL     1       3.923  -2.053  11.289  0.00  0.00    +0.005 C 
ATOM     11  C   UNL     1       4.132  -1.192  12.536  0.00  0.00    +0.000 C 
ATOM     12  C   UNL     1       3.735  -1.990  13.779  0.00  0.00    +0.000 C 
ATOM     13  C   UNL     1       2.263  -2.393  13.678  0.00  0.00    +0.000 C 
ATOM     14  C   UNL     1       2.054  -3.254  12.431  0.00  0.00    +0.005 C 
ENDBRANCH   8   9
ENDBRANCH   5   8
ENDBRANCH   1   2
BRANCH   1  15
ATOM     15  C   UNL     1       2.827  -1.889   4.022  0.00  0.00    +0.026 C 
BRANCH  15  16
ATOM     16  C   UNL     1       2.689  -2.518   2.635  0.00  0.00    +0.078 C 
BRANCH  16  23
ATOM     17  C   UNL     1      -0.019   1.524   0.010  0.00  0.00    +0.002 C 
ATOM     18  C   UNL     1       1.403   2.078  -0.000  0.00  0.00    +0.008 C 
ATOM     19  C   UNL     1       2.311   1.146  -0.809  0.00  0.00    +0.076 C 
ATOM     20  C   UNL     1       2.864   0.083   0.104  0.00  0.00    +0.133 A 
ATOM     21  N   UNL     1       4.102  -0.311   0.193  0.00  0.00    -0.134 NA
ATOM     22  N   UNL     1       4.193  -1.250   1.070  0.00  0.00    -0.134 NA
ATOM     23  C   UNL     1       3.015  -1.490   1.582  0.00  0.00    +0.134 A 
ATOM     24  N   UNL     1       2.144  -0.643   0.991  0.00  0.00    -0.315 N 
ATOM     25  C   UNL     1       0.711  -0.518   1.258  0.00  0.00    +0.125 C 
ATOM     26  C   UNL     1       0.002  -0.004   0.002  0.00  0.00    +0.022 C 
ENDBRANCH  16  23
ENDBRANCH  15  16
ENDBRANCH   1  15
TORSDOF 6
