REMARK  Name = ZINC02213649
REMARK  8 active torsions:
REMARK  status: ('A' for Active; 'I' for Inactive)
REMARK    1  A    between atoms: C_1  and  C_2
REMARK    2  A    between atoms: C_4  and  O_9
REMARK    3  A    between atoms: O_9  and  C_10
REMARK    4  A    between atoms: C_10  and  C_11
REMARK    5  A    between atoms: C_11  and  N_12
REMARK    6  A    between atoms: C_14  and  C_21
REMARK    7  A    between atoms: N_28  and  C_31
REMARK    8  A    between atoms: C_31  and  C_32
REMARK                            x       y       z     vdW  Elec       q    Type
REMARK                         _______ _______ _______ _____ _____    ______ ____
ROOT
ATOM      1  N   UNL     1       6.889   2.761  -2.065  0.00  0.00    -0.343 N 
ATOM      2  C   UNL     1       5.599   3.091  -2.253  0.00  0.00    +0.095 A 
ATOM      3  C   UNL     1       5.432   3.597  -3.531  0.00  0.00    +0.001 A 
ATOM      4  C   UNL     1       6.769   3.571  -4.159  0.00  0.00    +0.007 A 
ATOM      5  C   UNL     1       7.636   3.038  -3.193  0.00  0.00    +0.050 A 
ATOM      6  C   UNL     1       8.985   2.887  -3.498  0.00  0.00    +0.026 A 
ATOM      7  C   UNL     1       9.456   3.260  -4.739  0.00  0.00    +0.002 A 
ATOM      8  C   UNL     1       8.597   3.786  -5.691  0.00  0.00    +0.001 A 
ATOM      9  C   UNL     1       7.257   3.943  -5.407  0.00  0.00    +0.010 A 
ENDROOT
BRANCH   3  10
ATOM     10  C   UNL     1       4.231   4.052  -4.112  0.00  0.00    +0.028 C 
ATOM     11  C   UNL     1       3.379   4.877  -3.390  0.00  0.00    +0.100 C 
ATOM     12  C   UNL     1       2.031   5.210  -3.883  0.00  0.00    +0.257 C 
ATOM     13  O   UNL     1       1.626   4.767  -4.941  0.00  0.00    -0.270 OA
ATOM     14  N   UNL     1       1.258   6.017  -3.128  0.00  0.00    -0.236 N 
ATOM     15  C   UNL     1       1.691   6.510  -1.960  0.00  0.00    +0.316 C 
ATOM     16  O   UNL     1       0.945   7.232  -1.327  0.00  0.00    -0.252 OA
ATOM     17  N   UNL     1       2.904   6.250  -1.452  0.00  0.00    -0.214 N 
ATOM     18  C   UNL     1       3.786   5.462  -2.100  0.00  0.00    +0.259 C 
ATOM     19  O   UNL     1       4.886   5.237  -1.631  0.00  0.00    -0.269 OA
ATOM     20  H   UNL     1       0.368   6.246  -3.438  0.00  0.00    +0.159 HD
BRANCH  17  21
ATOM     21  C   UNL     1       3.283   6.840  -0.165  0.00  0.00    +0.192 C 
BRANCH  21  22
ATOM     22  C   UNL     1       2.886   5.908   0.951  0.00  0.00    +0.123 A 
ATOM     23  C   UNL     1       3.653   4.933   1.471  0.00  0.00    +0.046 A 
ATOM     24  C   UNL     1       2.892   4.311   2.488  0.00  0.00    +0.041 A 
ATOM     25  C   UNL     1       1.706   4.944   2.528  0.00  0.00    +0.195 A 
ATOM     26  O   UNL     1       1.708   5.910   1.595  0.00  0.00    -0.466 OA
ENDBRANCH  21  22
ENDBRANCH  17  21
ENDBRANCH   3  10
BRANCH   1  27
ATOM     27  C   UNL     1       7.430   2.191  -0.829  0.00  0.00    +0.163 C 
BRANCH  27  28
ATOM     28  C   UNL     1       7.993   3.312   0.047  0.00  0.00    +0.250 C 
BRANCH  28  29
ATOM     29  O   UNL     1       8.521   2.756   1.253  0.00  0.00    -0.490 OA
BRANCH  29  33
ATOM     30  C   UNL     1      10.717   3.524   5.543  0.00  0.00    +0.045 C 
ATOM     31  C   UNL     1      10.142   4.036   4.248  0.00  0.00    -0.029 A 
ATOM     32  C   UNL     1       9.588   3.153   3.341  0.00  0.00    +0.050 A 
ATOM     33  C   UNL     1       9.063   3.624   2.147  0.00  0.00    +0.121 A 
ATOM     34  C   UNL     1       9.086   4.983   1.870  0.00  0.00    +0.047 A 
ATOM     35  C   UNL     1       9.637   5.864   2.780  0.00  0.00    +0.024 A 
ATOM     36  C   UNL     1      10.165   5.391   3.969  0.00  0.00    +0.044 A 
ATOM     37 CL   UNL     1      10.856   6.500   5.112  0.00  0.00    -0.083 Cl
ENDBRANCH  29  33
ENDBRANCH  28  29
ENDBRANCH  27  28
ENDBRANCH   1  27
TORSDOF 7
