REMARK  Name = ZINC55221268
REMARK  5 active torsions:
REMARK  status: ('A' for Active; 'I' for Inactive)
REMARK    1  A    between atoms: C_1  and  C_2
REMARK    2  A    between atoms: C_2  and  C_4
REMARK    3  A    between atoms: C_2  and  N_13
REMARK    4  A    between atoms: N_13  and  S_14
REMARK    5  A    between atoms: S_14  and  C_17
REMARK                            x       y       z     vdW  Elec       q    Type
REMARK                         _______ _______ _______ _____ _____    ______ ____
ROOT
ATOM      1  S   UNL     1      -0.226  -0.951   2.474  0.00  0.00    +0.062 S 
ATOM      2  O   UNL     1       0.585  -1.355   3.569  0.00  0.00    -0.153 OA
ATOM      3  O   UNL     1      -1.159   0.116   2.570  0.00  0.00    -0.153 OA
ENDROOT
BRANCH   1   4
ATOM      4  C   UNL     1      -1.137  -2.373   1.970  0.00  0.00    +0.141 A 
ATOM      5  C   UNL     1      -0.990  -3.565   2.656  0.00  0.00    +0.037 A 
ATOM      6  C   UNL     1      -1.703  -4.681   2.264  0.00  0.00    -0.024 A 
ATOM      7  C   UNL     1      -2.569  -4.606   1.180  0.00  0.00    +0.039 A 
ATOM      8  C   UNL     1      -2.715  -3.410   0.492  0.00  0.00    +0.064 A 
ATOM      9  C   UNL     1      -2.003  -2.293   0.893  0.00  0.00    +0.151 A 
ATOM     10  F   UNL     1      -2.148  -1.126   0.229  0.00  0.00    -0.203 F 
ATOM     11  N   UNL     1      -3.291  -5.737   0.785  0.00  0.00    -0.285 N 
ATOM     12  C   UNL     1      -3.454  -6.771   1.630  0.00  0.00    +0.218 C 
ATOM     13  O   UNL     1      -4.070  -7.750   1.266  0.00  0.00    -0.275 OA
ATOM     14  C   UNL     1      -2.879  -6.728   3.020  0.00  0.00    +0.101 C 
ATOM     15  C   UNL     1      -1.545  -5.980   3.009  0.00  0.00    +0.046 C 
ATOM     16  H   UNL     1      -3.677  -5.775  -0.104  0.00  0.00    +0.155 HD
ENDBRANCH   1   4
BRANCH   1  17
ATOM     17  N   UNL     1       0.806  -0.567   1.237  0.00  0.00    -0.180 NA
ATOM     18  H   UNL     1       0.696   0.267   0.755  0.00  0.00    +0.149 HD
BRANCH  17  20
ATOM     19  C   UNL     1       1.431  -2.368  -0.295  0.00  0.00    +0.034 C 
ATOM     20  C   UNL     1       1.885  -1.488   0.871  0.00  0.00    +0.139 C 
BRANCH  20  21
ATOM     21  C   UNL     1       3.101  -0.698   0.461  0.00  0.00    +0.124 A 
ATOM     22  C   UNL     1       4.364  -1.017   0.775  0.00  0.00    +0.055 A 
ATOM     23  C   UNL     1       5.210   0.021   0.172  0.00  0.00    +0.020 A 
ATOM     24  C   UNL     1       6.583   0.259   0.133  0.00  0.00    +0.011 A 
ATOM     25  C   UNL     1       7.063   1.350  -0.535  0.00  0.00    +0.001 A 
ATOM     26  C   UNL     1       6.193   2.221  -1.175  0.00  0.00    +0.004 A 
ATOM     27  C   UNL     1       4.832   2.002  -1.147  0.00  0.00    +0.047 A 
ATOM     28  C   UNL     1       4.324   0.899  -0.474  0.00  0.00    +0.135 A 
ATOM     29  O   UNL     1       3.077   0.425  -0.278  0.00  0.00    -0.458 OA
ENDBRANCH  20  21
ENDBRANCH  17  20
ENDBRANCH   1  17
TORSDOF 4
