REMARK  Name = ZINC09422730
REMARK  8 active torsions:
REMARK  status: ('A' for Active; 'I' for Inactive)
REMARK    1  A    between atoms: C_1  and  C_2
REMARK    2  A    between atoms: C_2  and  C_3
REMARK    3  A    between atoms: C_2  and  C_4
REMARK    4  A    between atoms: C_2  and  C_5
REMARK    5  A    between atoms: C_11  and  C_19
REMARK    6  A    between atoms: C_12  and  C_17
REMARK    7  A    between atoms: C_13  and  S_15
REMARK    8  A    between atoms: S_15  and  C_16
REMARK                            x       y       z     vdW  Elec       q    Type
REMARK                         _______ _______ _______ _____ _____    ______ ____
ROOT
ATOM      1  C   UNL     1      -0.909   2.689   1.188  0.00  0.00    -0.001 C 
ATOM      2  C   UNL     1      -0.039   2.184   2.346  0.00  0.00    +0.010 C 
ATOM      3  C   UNL     1      -0.658   2.660   3.658  0.00  0.00    +0.056 C 
ATOM      4  C   UNL     1      -2.122   2.300   3.716  0.00  0.00    +0.046 A 
ATOM      5  C   UNL     1      -2.843   1.971   2.588  0.00  0.00    -0.013 A 
ATOM      6  C   UNL     1      -4.191   1.657   2.707  0.00  0.00    +0.080 A 
ATOM      7  C   UNL     1      -4.781   1.678   3.973  0.00  0.00    +0.095 A 
ATOM      8  C   UNL     1      -3.981   2.018   5.079  0.00  0.00    +0.115 A 
ATOM      9  N   UNL     1      -2.704   2.311   4.908  0.00  0.00    -0.244 NA
ATOM     10  C   UNL     1      -2.232   1.926   1.213  0.00  0.00    +0.041 C 
ENDROOT
BRANCH   1  12
ATOM     11  C   UNL     1       0.056   0.939  -0.311  0.00  0.00    +0.011 C 
ATOM     12  C   UNL     1      -0.194   2.439  -0.141  0.00  0.00    -0.035 C 
ATOM     13  C   UNL     1       1.143   3.183  -0.149  0.00  0.00    +0.011 C 
ATOM     14  C   UNL     1      -1.066   2.944  -1.292  0.00  0.00    +0.011 C 
ENDBRANCH   1  12
BRANCH   6  15
ATOM     15  C   UNL     1      -5.004   1.299   1.489  0.00  0.00    +0.419 C 
ATOM     16  F   UNL     1      -5.456   2.469   0.870  0.00  0.00    -0.166 F 
ATOM     17  F   UNL     1      -4.210   0.574   0.595  0.00  0.00    -0.166 F 
ATOM     18  F   UNL     1      -6.102   0.521   1.874  0.00  0.00    -0.166 F 
ENDBRANCH   6  15
BRANCH   8  19
ATOM     19  S   UNL     1      -4.683   2.053   6.694  0.00  0.00    -0.108 S 
ATOM     20  C   UNL     1      -3.229   2.535   7.658  0.00  0.00    +0.091 C 
ENDBRANCH   8  19
BRANCH   7  21
ATOM     21  C   UNL     1      -6.168   1.362   4.142  0.00  0.00    +0.102 C 
ATOM     22  N   UNL     1      -7.268   1.111   4.275  0.00  0.00    -0.191 NA
ENDBRANCH   7  21
TORSDOF 4
