REMARK  Name = ZINC03009691
REMARK  6 active torsions:
REMARK  status: ('A' for Active; 'I' for Inactive)
REMARK    1  A    between atoms: C_1  and  C_2
REMARK    2  A    between atoms: C_5  and  N_9
REMARK    3  A    between atoms: C_6  and  C_8
REMARK    4  A    between atoms: C_10  and  N_19
REMARK    5  A    between atoms: C_20  and  C_22
REMARK    6  A    between atoms: C_26  and  N_28
REMARK                            x       y       z     vdW  Elec       q    Type
REMARK                         _______ _______ _______ _____ _____    ______ ____
ROOT
ATOM      1  N   UNL     1       6.132   3.610   0.194  0.00  0.00    -0.217 N 
ATOM      2  C   UNL     1       4.902   4.175   0.264  0.00  0.00    +0.134 A 
ATOM      3  C   UNL     1       5.075   5.537   0.362  0.00  0.00    +0.038 A 
ATOM      4  C   UNL     1       6.436   5.793   0.358  0.00  0.00    +0.091 A 
ATOM      5  N   UNL     1       7.076   4.637   0.254  0.00  0.00    -0.168 NA
ATOM      6  C   UNL     1       6.860   7.256   0.465  0.00  0.00    +0.223 C 
ATOM      7  S   UNL     1       5.289   8.132   0.066  0.00  0.00    -0.021 S 
ATOM      8  O   UNL     1       5.231   8.399  -1.328  0.00  0.00    -0.174 OA
ATOM      9  O   UNL     1       5.093   9.189   0.996  0.00  0.00    -0.174 OA
ATOM     10  C   UNL     1       4.148   6.746   0.469  0.00  0.00    +0.206 C 
ENDROOT
BRANCH   1  15
ATOM     11  C   UNL     1       7.250  -1.935  -0.265  0.00  0.00    +0.044 C 
ATOM     12  C   UNL     1       6.953  -0.463  -0.144  0.00  0.00    -0.050 A 
ATOM     13  C   UNL     1       6.042  -0.018   0.797  0.00  0.00    +0.005 A 
ATOM     14  C   UNL     1       5.772   1.331   0.915  0.00  0.00    +0.028 A 
ATOM     15  C   UNL     1       6.408   2.240   0.080  0.00  0.00    +0.070 A 
ATOM     16  C   UNL     1       7.321   1.791  -0.864  0.00  0.00    -0.025 A 
ATOM     17  C   UNL     1       7.591   0.440  -0.973  0.00  0.00    +0.008 A 
ATOM     18  C   UNL     1       8.019   2.775  -1.767  0.00  0.00    +0.046 C 
ENDBRANCH   1  15
BRANCH   2  19
ATOM     19  N   UNL     1       3.683   3.500   0.237  0.00  0.00    -0.266 N 
ATOM     20  C   UNL     1       2.608   4.023   0.859  0.00  0.00    +0.249 C 
ATOM     21  O   UNL     1       2.688   5.109   1.401  0.00  0.00    -0.270 OA
ATOM     22  H   UNL     1       3.608   2.653  -0.231  0.00  0.00    +0.157 HD
BRANCH  20  23
ATOM     23  C   UNL     1       1.333   3.278   0.884  0.00  0.00    +0.039 A 
ATOM     24  C   UNL     1       1.204   2.085   0.168  0.00  0.00    +0.014 A 
ATOM     25  C   UNL     1       0.012   1.394   0.195  0.00  0.00    +0.023 A 
ATOM     26  C   UNL     1      -1.058   1.880   0.930  0.00  0.00    +0.071 A 
ATOM     27  C   UNL     1      -0.936   3.062   1.642  0.00  0.00    +0.145 A 
ATOM     28  C   UNL     1       0.252   3.762   1.623  0.00  0.00    +0.047 A 
ATOM     29 CL   UNL     1      -2.556   1.004   0.959  0.00  0.00    -0.081 Cl
BRANCH  27  30
ATOM     30  N   UNL     1      -2.083   3.574   2.425  0.00  0.00    +0.058 N 
ATOM     31  O   UNL     1      -1.977   4.613   3.051  0.00  0.00    -0.126 OA
ATOM     32  O   UNL     1      -3.132   2.956   2.442  0.00  0.00    -0.126 OA
ENDBRANCH  27  30
ENDBRANCH  20  23
ENDBRANCH   2  19
TORSDOF 4
