REMARK  Name = ZINC36124116
REMARK  13 active torsions:
REMARK  status: ('A' for Active; 'I' for Inactive)
REMARK    1  A    between atoms: C_1  and  C_2
REMARK    2  A    between atoms: C_2  and  C_3
REMARK    3  A    between atoms: C_3  and  N_4
REMARK    4  A    between atoms: N_4  and  C_5
REMARK    5  A    between atoms: N_4  and  S_28
REMARK    6  A    between atoms: C_5  and  C_6
REMARK    7  A    between atoms: C_16  and  C_18
REMARK    8  A    between atoms: C_18  and  O_19
REMARK    9  A    between atoms: O_19  and  C_20
REMARK   10  A    between atoms: C_24  and  O_26
REMARK   11  A    between atoms: O_26  and  C_27
REMARK   12  A    between atoms: S_28  and  C_31
REMARK   13  A    between atoms: C_34  and  C_37
REMARK                            x       y       z     vdW  Elec       q    Type
REMARK                         _______ _______ _______ _____ _____    ______ ____
ROOT
ATOM      1  C   UNL     1      -0.271  -2.841  -3.289  0.00  0.00    +0.232 C 
ATOM      2  O   UNL     1       0.687  -2.362  -3.857  0.00  0.00    -0.274 OA
ATOM      3  N   UNL     1      -1.215  -3.494  -3.995  0.00  0.00    -0.290 N 
ATOM      4  C   UNL     1      -2.385  -4.075  -3.319  0.00  0.00    +0.114 C 
ATOM      5  C   UNL     1      -3.641  -3.339  -3.809  0.00  0.00    +0.061 C 
ATOM      6  C   UNL     1      -3.543  -3.159  -5.289  0.00  0.00    -0.004 A 
ATOM      7  C   UNL     1      -2.437  -3.272  -6.074  0.00  0.00    -0.014 A 
ATOM      8  C   UNL     1      -2.612  -3.045  -7.438  0.00  0.00    +0.013 A 
ATOM      9  C   UNL     1      -3.837  -2.735  -7.921  0.00  0.00    +0.046 A 
ATOM     10  S   UNL     1      -4.832  -2.749  -6.437  0.00  0.00    -0.101 S 
ATOM     11  C   UNL     1      -1.093  -3.631  -5.453  0.00  0.00    +0.144 C 
ENDROOT
BRANCH   1  12
ATOM     12  C   UNL     1      -0.407  -2.708  -1.794  0.00  0.00    +0.205 C 
BRANCH  12  13
ATOM     13  N   UNL     1       0.738  -1.962  -1.265  0.00  0.00    -0.168 NA
BRANCH  13  14
ATOM     14  S   UNL     1       2.055  -2.776  -0.676  0.00  0.00    +0.061 S 
ATOM     15  O   UNL     1       2.053  -4.054  -1.296  0.00  0.00    -0.153 OA
ATOM     16  O   UNL     1       3.158  -1.885  -0.769  0.00  0.00    -0.153 OA
BRANCH  14  17
ATOM     17  C   UNL     1       1.772  -3.050   1.042  0.00  0.00    +0.106 A 
ATOM     18  C   UNL     1       2.187  -2.112   1.969  0.00  0.00    +0.029 A 
ATOM     19  C   UNL     1       1.966  -2.326   3.316  0.00  0.00    +0.005 A 
ATOM     20  C   UNL     1       1.329  -3.479   3.737  0.00  0.00    -0.050 A 
ATOM     21  C   UNL     1       0.913  -4.417   2.810  0.00  0.00    +0.005 A 
ATOM     22  C   UNL     1       1.131  -4.200   1.462  0.00  0.00    +0.029 A 
ATOM     23  C   UNL     1       1.088  -3.714   5.206  0.00  0.00    +0.044 C 
ENDBRANCH  14  17
ENDBRANCH  13  14
BRANCH  13  24
ATOM     24  C   UNL     1       0.718  -0.497  -1.257  0.00  0.00    +0.110 C 
BRANCH  24  26
ATOM     25  C   UNL     1      -0.019   1.526   0.010  0.00  0.00    +0.005 C 
ATOM     26  C   UNL     1       0.002  -0.004   0.002  0.00  0.00    +0.014 C 
ENDBRANCH  24  26
ENDBRANCH  13  24
ENDBRANCH  12  13
ENDBRANCH   1  12
BRANCH  11  27
ATOM     27  C   UNL     1      -0.732  -5.074  -5.810  0.00  0.00    +0.256 C 
BRANCH  27  28
ATOM     28  O   UNL     1      -1.808  -5.940  -5.441  0.00  0.00    -0.490 OA
BRANCH  28  29
ATOM     29  C   UNL     1      -1.647  -7.266  -5.692  0.00  0.00    +0.124 A 
ATOM     30  C   UNL     1      -0.474  -7.724  -6.276  0.00  0.00    +0.046 A 
ATOM     31  C   UNL     1      -0.309  -9.072  -6.531  0.00  0.00    +0.007 A 
ATOM     32  C   UNL     1      -1.312  -9.967  -6.207  0.00  0.00    +0.046 A 
ATOM     33  C   UNL     1      -2.486  -9.513  -5.623  0.00  0.00    +0.124 A 
ATOM     34  C   UNL     1      -2.651  -8.161  -5.360  0.00  0.00    +0.091 A 
BRANCH  33  35
ATOM     35  O   UNL     1      -3.471 -10.393  -5.304  0.00  0.00    -0.495 OA
ATOM     36  C   UNL     1      -3.230 -11.771  -5.597  0.00  0.00    +0.277 C 
ENDBRANCH  33  35
ENDBRANCH  28  29
ENDBRANCH  27  28
ENDBRANCH  11  27
TORSDOF 10
