REMARK  Name = ZINC02782071
REMARK  6 active torsions:
REMARK  status: ('A' for Active; 'I' for Inactive)
REMARK    1  A    between atoms: C_1  and  C_2
REMARK    2  A    between atoms: C_4  and  C_20
REMARK    3  A    between atoms: N_6  and  C_7
REMARK    4  A    between atoms: C_7  and  C_8
REMARK    5  A    between atoms: N_10  and  C_11
REMARK    6  A    between atoms: C_17  and  C_19
REMARK                            x       y       z     vdW  Elec       q    Type
REMARK                         _______ _______ _______ _____ _____    ______ ____
ROOT
ATOM      1  C   UNL     1      -2.481   1.209   4.377  0.00  0.00    +0.239 C 
ENDROOT
BRANCH   1   7
ATOM      2  C   UNL     1      -2.035   4.159   3.531  0.00  0.00    +0.066 C 
ATOM      3  C   UNL     1      -1.597   2.929   2.778  0.00  0.00    +0.051 A 
ATOM      4  C   UNL     1      -0.926   2.909   1.603  0.00  0.00    +0.067 A 
ATOM      5  C   UNL     1      -0.718   1.572   1.248  0.00  0.00    +0.142 A 
ATOM      6  N   UNL     1      -1.237   0.816   2.181  0.00  0.00    -0.169 NA
ATOM      7  N   UNL     1      -1.798   1.649   3.158  0.00  0.00    -0.258 N 
ATOM      8 BR   UNL     1      -0.372   4.422   0.612  0.00  0.00    -0.046 Br
BRANCH   5   9
ATOM      9  C   UNL     1      -0.013   1.086   0.008  0.00  0.00    +0.392 C 
ATOM     10  F   UNL     1       1.300   1.570  -0.002  0.00  0.00    -0.202 F 
ATOM     11  F   UNL     1      -0.689   1.549  -1.125  0.00  0.00    -0.202 F 
ENDBRANCH   5   9
ENDBRANCH   1   7
BRANCH   1  12
ATOM     12  C   UNL     1      -1.479   1.072   5.494  0.00  0.00    +0.235 C 
ATOM     13  O   UNL     1      -0.308   1.317   5.292  0.00  0.00    -0.274 OA
ATOM     14  N   UNL     1      -1.883   0.676   6.717  0.00  0.00    -0.311 N 
ATOM     15  H   UNL     1      -2.819   0.480   6.879  0.00  0.00    +0.149 HD
BRANCH  14  16
ATOM     16  C   UNL     1      -0.908   0.543   7.803  0.00  0.00    +0.076 C 
ATOM     17  C   UNL     1      -0.701   1.903   8.472  0.00  0.00    +0.022 C 
ATOM     18  C   UNL     1      -2.032   2.401   9.040  0.00  0.00    +0.002 C 
ATOM     19  C   UNL     1      -2.553   1.398  10.072  0.00  0.00    +0.000 C 
ATOM     20  C   UNL     1      -2.760   0.038   9.403  0.00  0.00    +0.005 C 
ATOM     21  C   UNL     1      -1.429  -0.459   8.835  0.00  0.00    +0.006 C 
ATOM     22  C   UNL     1      -1.636  -1.819   8.166  0.00  0.00    +0.009 C 
ENDBRANCH  14  16
ENDBRANCH   1  12
TORSDOF 4
