REMARK  Name = ZINC44388818
REMARK  7 active torsions:
REMARK  status: ('A' for Active; 'I' for Inactive)
REMARK    1  A    between atoms: C_1  and  C_2
REMARK    2  A    between atoms: C_2  and  C_3
REMARK    3  A    between atoms: C_2  and  C_4
REMARK    4  A    between atoms: C_2  and  C_5
REMARK    5  A    between atoms: C_8  and  C_11
REMARK    6  A    between atoms: N_17  and  C_19
REMARK    7  A    between atoms: C_24  and  C_26
REMARK                            x       y       z     vdW  Elec       q    Type
REMARK                         _______ _______ _______ _____ _____    ______ ____
ROOT
ATOM      1  C   UNL     1       2.695  -1.859  -4.733  0.00  0.00    +0.249 C 
ATOM      2  O   UNL     1       2.105  -2.558  -5.534  0.00  0.00    -0.270 OA
ATOM      3  N   UNL     1       3.981  -1.519  -4.954  0.00  0.00    -0.265 N 
ATOM      4  C   UNL     1       4.636  -1.971  -6.106  0.00  0.00    +0.153 A 
ATOM      5  C   UNL     1       5.957  -1.701  -6.455  0.00  0.00    +0.042 A 
ATOM      6  C   UNL     1       6.216  -2.327  -7.644  0.00  0.00    +0.129 A 
ATOM      7  N   UNL     1       5.090  -2.957  -8.029  0.00  0.00    -0.251 N 
ATOM      8  N   UNL     1       4.113  -2.729  -7.046  0.00  0.00    -0.154 NA
ATOM      9  C   UNL     1       4.917  -3.745  -9.252  0.00  0.00    +0.174 C 
ATOM     10  N   UNL     1       7.470  -2.265  -8.251  0.00  0.00    -0.270 N 
ATOM     11  C   UNL     1       8.493  -1.738  -7.546  0.00  0.00    +0.219 C 
ATOM     12  O   UNL     1       9.538  -1.501  -8.114  0.00  0.00    -0.275 OA
ATOM     13  C   UNL     1       8.377  -1.434  -6.079  0.00  0.00    +0.109 C 
ATOM     14  C   UNL     1       6.993  -0.877  -5.733  0.00  0.00    +0.071 C 
ATOM     15  H   UNL     1       4.452  -0.962  -4.315  0.00  0.00    +0.157 HD
ATOM     16  H   UNL     1       7.603  -2.591  -9.155  0.00  0.00    +0.156 HD
ENDROOT
BRANCH   1  20
ATOM     17  C   UNL     1       0.707  -0.490  -1.238  0.00  0.00    -0.042 A 
ATOM     18  C   UNL     1       0.033  -1.285  -2.147  0.00  0.00    +0.005 A 
ATOM     19  C   UNL     1       0.672  -1.733  -3.285  0.00  0.00    +0.013 A 
ATOM     20  C   UNL     1       2.003  -1.382  -3.517  0.00  0.00    +0.037 A 
ATOM     21  C   UNL     1       2.678  -0.580  -2.595  0.00  0.00    +0.013 A 
ATOM     22  C   UNL     1       2.025  -0.135  -1.464  0.00  0.00    +0.005 A 
BRANCH  17  24
ATOM     23  C   UNL     1      -0.019   1.526   0.010  0.00  0.00    +0.015 C 
ATOM     24  C   UNL     1       0.002  -0.004   0.002  0.00  0.00    -0.013 C 
ATOM     25  C   UNL     1       0.742  -0.511   1.242  0.00  0.00    +0.015 C 
ATOM     26  C   UNL     1      -1.433  -0.534   0.013  0.00  0.00    +0.015 C 
ENDBRANCH  17  24
ENDBRANCH   1  20
BRANCH  14  27
ATOM     27  C   UNL     1       6.899   0.560  -6.178  0.00  0.00    -0.002 A 
ATOM     28  C   UNL     1       6.649   1.668  -5.437  0.00  0.00    +0.012 A 
ATOM     29  C   UNL     1       6.609   2.898  -6.065  0.00  0.00    +0.008 A 
ATOM     30  C   UNL     1       6.821   2.961  -7.402  0.00  0.00    +0.045 A 
ATOM     31  S   UNL     1       7.095   1.246  -7.814  0.00  0.00    -0.101 S 
ENDBRANCH  14  27
TORSDOF 3
