REMARK  Name = ZINC22907626
REMARK  5 active torsions:
REMARK  status: ('A' for Active; 'I' for Inactive)
REMARK    1  A    between atoms: C_1  and  C_2
REMARK    2  A    between atoms: N_10  and  N_14
REMARK    3  A    between atoms: C_15  and  C_17
REMARK    4  A    between atoms: C_17  and  N_18
REMARK    5  A    between atoms: N_18  and  C_19
REMARK                            x       y       z     vdW  Elec       q    Type
REMARK                         _______ _______ _______ _____ _____    ______ ____
ROOT
ATOM      1  N   UNL     1      -1.146  -0.807   0.009  0.00  0.00    -0.222 N 
ATOM      2  C   UNL     1      -1.536  -1.435  -1.118  0.00  0.00    +0.247 C 
ATOM      3  O   UNL     1      -0.893  -1.305  -2.138  0.00  0.00    -0.273 OA
ATOM      4  H   UNL     1      -1.729  -0.925   0.934  0.00  0.00    +0.174 HD
ENDROOT
BRANCH   1  14
ATOM      5  C   UNL     1       5.008   4.205  -0.023  0.00  0.00    +0.007 C 
ATOM      6  C   UNL     1       3.533   3.799  -0.011  0.00  0.00    -0.014 C 
ATOM      7  C   UNL     1       3.220   2.976  -1.262  0.00  0.00    +0.006 C 
ATOM      8  C   UNL     1       1.741   2.581  -1.255  0.00  0.00    +0.035 C 
ATOM      9  C   UNL     1       1.435   1.768  -0.002  0.00  0.00    +0.114 C 
ATOM     10  C   UNL     1       1.765   2.567   1.254  0.00  0.00    +0.035 C 
ATOM     11  C   UNL     1       3.244   2.962   1.237  0.00  0.00    +0.006 C 
ATOM     12  C   UNL     1      -0.016   1.345   0.009  0.00  0.00    +0.263 C 
ATOM     13  O   UNL     1      -0.991   2.066   0.018  0.00  0.00    -0.271 OA
ATOM     14  N   UNL     1       0.002  -0.004   0.002  0.00  0.00    -0.137 N 
ATOM     15  C   UNL     1       1.253  -0.480  -0.013  0.00  0.00    +0.326 C 
ATOM     16  O   UNL     1       1.526  -1.665  -0.021  0.00  0.00    -0.251 OA
ATOM     17  N   UNL     1       2.176   0.501  -0.016  0.00  0.00    -0.284 N 
ATOM     18  H   UNL     1       3.276   0.507  -0.027  0.00  0.00    +0.151 HD
ENDBRANCH   1  14
BRANCH   2  19
ATOM     19  C   UNL     1      -2.771  -2.299  -1.110  0.00  0.00    +0.199 C 
BRANCH  19  20
ATOM     20  N   UNL     1      -2.979  -2.864  -2.445  0.00  0.00    -0.333 N 
ATOM     21  H   UNL     1      -2.278  -2.627  -3.259  0.00  0.00    +0.147 HD
BRANCH  20  22
ATOM     22  C   UNL     1      -4.072  -3.706  -2.686  0.00  0.00    +0.066 A 
ATOM     23  C   UNL     1      -4.955  -4.010  -1.659  0.00  0.00    +0.029 A 
ATOM     24  C   UNL     1      -6.036  -4.837  -1.899  0.00  0.00    +0.043 A 
ATOM     25  C   UNL     1      -6.234  -5.372  -3.160  0.00  0.00    +0.161 A 
ATOM     26  C   UNL     1      -5.352  -5.076  -4.187  0.00  0.00    +0.195 A 
ATOM     27  C   UNL     1      -4.270  -4.244  -3.953  0.00  0.00    +0.182 A 
ATOM     28  F   UNL     1      -3.410  -3.954  -4.953  0.00  0.00    -0.200 F 
ATOM     29  F   UNL     1      -5.547  -5.600  -5.417  0.00  0.00    -0.199 F 
ATOM     30  F   UNL     1      -7.289  -6.184  -3.389  0.00  0.00    -0.202 F 
ENDBRANCH  20  22
ENDBRANCH  19  20
ENDBRANCH   2  19
TORSDOF 4
