REMARK  Name = ZINC06250966
REMARK  9 active torsions:
REMARK  status: ('A' for Active; 'I' for Inactive)
REMARK    1  A    between atoms: C_1  and  C_2
REMARK    2  A    between atoms: C_5  and  N_8
REMARK    3  A    between atoms: N_8  and  S_9
REMARK    4  A    between atoms: S_9  and  C_12
REMARK    5  A    between atoms: C_14  and  C_19
REMARK    6  A    between atoms: C_17  and  C_18
REMARK    7  A    between atoms: C_26  and  C_27
REMARK    8  A    between atoms: C_26  and  N_66
REMARK    9  A    between atoms: C_28  and  C_29
REMARK                            x       y       z     vdW  Elec       q    Type
REMARK                         _______ _______ _______ _____ _____    ______ ____
ROOT
ATOM      1  C   UNL     1      -0.941  -0.625  -0.508  0.00  0.00    +0.112 A 
ATOM      2  C   UNL     1      -1.245  -1.952  -0.286  0.00  0.00    +0.042 A 
ATOM      3  C   UNL     1      -0.702  -2.614   0.817  0.00  0.00    +0.039 A 
ATOM      4  C   UNL     1       0.149  -1.929   1.685  0.00  0.00    +0.013 A 
ATOM      5  C   UNL     1       0.448  -0.603   1.449  0.00  0.00    +0.006 A 
ATOM      6  C   UNL     1      -0.093   0.048   0.354  0.00  0.00    -0.024 A 
ATOM      7  C   UNL     1       0.238   1.496   0.103  0.00  0.00    +0.046 C 
ENDROOT
BRANCH   3   8
ATOM      8  C   UNL     1      -1.027  -4.035   1.063  0.00  0.00    +0.247 C 
ATOM      9  O   UNL     1      -1.101  -4.812   0.131  0.00  0.00    -0.270 OA
ATOM     10  N   UNL     1      -1.241  -4.469   2.321  0.00  0.00    -0.301 N 
ATOM     11  C   UNL     1      -1.274  -3.526   3.450  0.00  0.00    +0.089 C 
ATOM     12  C   UNL     1      -2.562  -3.777   4.249  0.00  0.00    -0.059 C 
ATOM     13  C   UNL     1      -2.717  -6.056   3.437  0.00  0.00    -0.059 C 
ATOM     14  C   UNL     1      -1.441  -5.899   2.603  0.00  0.00    +0.089 C 
ATOM     15  N   UNL     1      -2.607  -5.203   4.639  0.00  0.00    +0.384 N 
ATOM     16  H   UNL     1      -1.740  -5.439   5.137  0.00  0.00    -0.081 HD
BRANCH  15  17
ATOM     17  C   UNL     1      -3.756  -5.444   5.536  0.00  0.00    -0.051 C 
BRANCH  17  18
ATOM     18  C   UNL     1      -3.775  -4.387   6.610  0.00  0.00    -0.045 C 
ATOM     19  C   UNL     1      -4.870  -3.668   6.813  0.00  0.00    +0.002 C 
BRANCH  19  20
ATOM     20  C   UNL     1      -4.888  -2.631   7.866  0.00  0.00    -0.025 A 
ATOM     21  C   UNL     1      -3.757  -2.410   8.652  0.00  0.00    +0.008 A 
ATOM     22  C   UNL     1      -3.779  -1.437   9.630  0.00  0.00    +0.001 A 
ATOM     23  C   UNL     1      -4.923  -0.688   9.839  0.00  0.00    +0.000 A 
ATOM     24  C   UNL     1      -6.050  -0.905   9.067  0.00  0.00    +0.001 A 
ATOM     25  C   UNL     1      -6.039  -1.872   8.082  0.00  0.00    +0.008 A 
ENDBRANCH  19  20
ENDBRANCH  17  18
ENDBRANCH  15  17
ENDBRANCH   3   8
BRANCH   1  26
ATOM     26  S   UNL     1      -1.631   0.215  -1.895  0.00  0.00    +0.073 S 
ATOM     27  O   UNL     1      -0.552   0.864  -2.554  0.00  0.00    -0.150 OA
ATOM     28  O   UNL     1      -2.475  -0.718  -2.555  0.00  0.00    -0.150 OA
BRANCH  26  29
ATOM     29  N   UNL     1      -2.614   1.410  -1.306  0.00  0.00    -0.216 N 
ATOM     30  H   UNL     1      -2.408   2.340  -1.487  0.00  0.00    +0.174 HD
BRANCH  29  35
ATOM     31  C   UNL     1      -7.183   0.062   1.771  0.00  0.00    +0.044 C 
ATOM     32  C   UNL     1      -5.968   0.421   0.954  0.00  0.00    -0.050 A 
ATOM     33  C   UNL     1      -5.139   1.449   1.363  0.00  0.00    +0.005 A 
ATOM     34  C   UNL     1      -4.026   1.779   0.617  0.00  0.00    +0.025 A 
ATOM     35  C   UNL     1      -3.739   1.078  -0.548  0.00  0.00    +0.048 A 
ATOM     36  C   UNL     1      -4.577   0.049  -0.959  0.00  0.00    +0.025 A 
ATOM     37  C   UNL     1      -5.686  -0.280  -0.205  0.00  0.00    +0.005 A 
ENDBRANCH  29  35
ENDBRANCH  26  29
ENDBRANCH   1  26
TORSDOF 7
