REMARK  Name = ZINC04758272
REMARK  8 active torsions:
REMARK  status: ('A' for Active; 'I' for Inactive)
REMARK    1  A    between atoms: C_1  and  C_2
REMARK    2  A    between atoms: C_7  and  N_8
REMARK    3  A    between atoms: N_9  and  C_10
REMARK    4  A    between atoms: C_13  and  N_17
REMARK    5  A    between atoms: C_14  and  C_16
REMARK    6  A    between atoms: N_18  and  C_19
REMARK    7  A    between atoms: C_23  and  S_30
REMARK    8  A    between atoms: C_28  and  O_29
REMARK                            x       y       z     vdW  Elec       q    Type
REMARK                         _______ _______ _______ _____ _____    ______ ____
ROOT
ATOM      1  N   UNL     1       1.161   5.875   0.022  0.00  0.00    -0.149 NA
ATOM      2  N   UNL     1       0.032   5.251   0.029  0.00  0.00    -0.145 NA
ENDROOT
BRANCH   2   3
ATOM      3  C   UNL     1       0.007   3.893   0.022  0.00  0.00    +0.135 A 
ATOM      4  C   UNL     1      -1.264   3.169   0.031  0.00  0.00    +0.013 A 
ATOM      5  C   UNL     1      -2.489   3.845   0.046  0.00  0.00    +0.013 A 
ATOM      6  C   UNL     1      -3.652   3.132   0.053  0.00  0.00    +0.030 A 
ATOM      7  C   UNL     1      -3.638   1.740   0.046  0.00  0.00    +0.120 A 
ATOM      8  C   UNL     1      -2.462   1.052   0.031  0.00  0.00    +0.038 A 
ATOM      9  C   UNL     1      -1.246   1.754   0.018  0.00  0.00    -0.014 A 
ATOM     10  C   UNL     1      -0.013   1.076   0.008  0.00  0.00    +0.012 A 
ATOM     11  C   UNL     1       1.160   1.763   0.000  0.00  0.00    +0.048 A 
ATOM     12  C   UNL     1       1.195   3.156   0.007  0.00  0.00    +0.144 A 
BRANCH   7  13
ATOM     13  S   UNL     1      -5.162   0.856   0.056  0.00  0.00    +0.140 S 
ATOM     14  O   UNL     1      -4.883  -0.427   0.598  0.00  0.00    -0.140 OA
ATOM     15  O   UNL     1      -6.132   1.727   0.621  0.00  0.00    -0.140 OA
ATOM     16  O   UNL     1      -5.565   0.638  -1.395  0.00  0.00    -0.043 OA
ENDBRANCH   7  13
BRANCH  12  17
ATOM     17  O   UNL     1       2.389   3.801  -0.002  0.00  0.00    -0.505 OA
ATOM     18  H   UNL     1       2.726   3.992  -0.887  0.00  0.00    +0.292 HD
ENDBRANCH  12  17
ENDBRANCH   2   3
BRANCH   1  22
ATOM     19  C   UNL     1       1.239  10.003   0.042  0.00  0.00    +0.087 A 
ATOM     20  C   UNL     1       0.013   9.326   0.049  0.00  0.00    +0.032 A 
ATOM     21  C   UNL     1      -0.012   7.961   0.038  0.00  0.00    +0.032 A 
ATOM     22  C   UNL     1       1.187   7.239   0.029  0.00  0.00    +0.089 A 
ATOM     23  C   UNL     1       2.412   7.916   0.021  0.00  0.00    -0.021 A 
ATOM     24  C   UNL     1       2.438   9.281   0.027  0.00  0.00    +0.035 A 
ATOM     25  C   UNL     1       3.703   7.138   0.005  0.00  0.00    +0.046 C 
BRANCH  19  27
ATOM     26  N   UNL     1       0.159  12.033   0.061  0.00  0.00    -0.149 NA
ATOM     27  N   UNL     1       1.264  11.367   0.048  0.00  0.00    -0.149 NA
BRANCH  26  34
ATOM     28  C   UNL     1      -2.332  13.400   0.078  0.00  0.00    +0.046 C 
ATOM     29  C   UNL     1      -1.010  14.124   0.076  0.00  0.00    -0.023 A 
ATOM     30  C   UNL     1      -0.976  15.502   0.087  0.00  0.00    +0.005 A 
ATOM     31  C   UNL     1       0.237  16.168   0.079  0.00  0.00    +0.000 A 
ATOM     32  C   UNL     1       1.424  15.457   0.065  0.00  0.00    +0.002 A 
ATOM     33  C   UNL     1       1.407  14.079   0.059  0.00  0.00    +0.030 A 
ATOM     34  C   UNL     1       0.185  13.399   0.067  0.00  0.00    +0.089 A 
ENDBRANCH  26  34
ENDBRANCH  19  27
ENDBRANCH   1  22
TORSDOF 6
