REMARK  Name = ZINC35340051
REMARK  6 active torsions:
REMARK  status: ('A' for Active; 'I' for Inactive)
REMARK    1  A    between atoms: C_1  and  N_2
REMARK    2  A    between atoms: N_2  and  S_3
REMARK    3  A    between atoms: S_3  and  C_6
REMARK    4  A    between atoms: C_9  and  N_13
REMARK    5  A    between atoms: C_10  and  N_12
REMARK    6  A    between atoms: N_13  and  C_14
REMARK                            x       y       z     vdW  Elec       q    Type
REMARK                         _______ _______ _______ _____ _____    ______ ____
ROOT
ATOM      1  C   UNL     1       2.510  -0.546  -1.706  0.00  0.00    +0.107 A 
ATOM      2  C   UNL     1       2.962   0.718  -2.037  0.00  0.00    +0.030 A 
ATOM      3  C   UNL     1       4.287   1.057  -1.835  0.00  0.00    +0.027 A 
ATOM      4  C   UNL     1       5.167   0.129  -1.298  0.00  0.00    +0.052 A 
ATOM      5  C   UNL     1       4.710  -1.146  -0.964  0.00  0.00    +0.048 A 
ATOM      6  C   UNL     1       3.378  -1.476  -1.165  0.00  0.00    +0.053 A 
ENDROOT
BRANCH   1   7
ATOM      7  S   UNL     1       0.820  -0.970  -1.967  0.00  0.00    +0.058 S 
ATOM      8  O   UNL     1       0.768  -2.385  -2.078  0.00  0.00    -0.153 OA
ATOM      9  O   UNL     1       0.338  -0.107  -2.989  0.00  0.00    -0.153 OA
BRANCH   7  11
ATOM     10  C   UNL     1      -0.111   0.829  -0.175  0.00  0.00    +0.127 C 
ATOM     11  N   UNL     1      -0.004  -0.573  -0.587  0.00  0.00    -0.193 NA
ATOM     12  H   UNL     1      -0.416  -1.268  -0.050  0.00  0.00    +0.148 HD
ENDBRANCH   7  11
ENDBRANCH   1   7
BRANCH   5  13
ATOM     13  N   UNL     1       5.592  -2.089  -0.422  0.00  0.00    -0.356 N 
ATOM     14  H   UNL     1       6.522  -1.855  -0.279  0.00  0.00    +0.142 HD
ATOM     15  H   UNL     1       5.273  -2.975  -0.191  0.00  0.00    +0.142 HD
ENDBRANCH   5  13
BRANCH   4  16
ATOM     16  N   UNL     1       6.509   0.470  -1.092  0.00  0.00    -0.312 N 
ATOM     17  H   UNL     1       7.140  -0.204  -0.795  0.00  0.00    +0.152 HD
BRANCH  16  18
ATOM     18  C   UNL     1       6.939   1.782  -1.315  0.00  0.00    +0.046 A 
ATOM     19  C   UNL     1       6.172   2.850  -0.871  0.00  0.00    +0.027 A 
ATOM     20  C   UNL     1       6.599   4.145  -1.092  0.00  0.00    +0.040 A 
ATOM     21  C   UNL     1       7.791   4.378  -1.756  0.00  0.00    +0.125 A 
ATOM     22  C   UNL     1       8.558   3.315  -2.201  0.00  0.00    +0.055 A 
ATOM     23  C   UNL     1       8.138   2.018  -1.977  0.00  0.00    +0.042 A 
ATOM     24 BR   UNL     1       9.190   0.565  -2.578  0.00  0.00    -0.048 Br
ATOM     25  F   UNL     1       8.207   5.646  -1.971  0.00  0.00    -0.205 F 
ENDBRANCH  16  18
ENDBRANCH   4  16
TORSDOF 5
