REMARK  Name = ZINC07059195
REMARK  5 active torsions:
REMARK  status: ('A' for Active; 'I' for Inactive)
REMARK    1  A    between atoms: C_1  and  C_2
REMARK    2  A    between atoms: C_2  and  C_4
REMARK    3  A    between atoms: C_2  and  N_10
REMARK    4  A    between atoms: N_10  and  S_11
REMARK    5  A    between atoms: S_11  and  C_14
REMARK                            x       y       z     vdW  Elec       q    Type
REMARK                         _______ _______ _______ _____ _____    ______ ____
ROOT
ATOM      1  S   UNL     1      -2.050  -1.039   1.429  0.00  0.00    +0.060 S 
ATOM      2  O   UNL     1      -3.326  -1.624   1.211  0.00  0.00    -0.153 OA
ATOM      3  O   UNL     1      -0.970  -1.759   2.009  0.00  0.00    -0.153 OA
ENDROOT
BRANCH   1   4
ATOM      4  C   UNL     1      -2.311   0.379   2.441  0.00  0.00    +0.124 A 
ATOM      5  C   UNL     1      -1.544   0.570   3.575  0.00  0.00    +0.031 A 
ATOM      6  C   UNL     1      -1.749   1.681   4.370  0.00  0.00    +0.017 A 
ATOM      7  C   UNL     1      -2.721   2.605   4.030  0.00  0.00    +0.019 A 
ATOM      8  C   UNL     1      -3.489   2.415   2.896  0.00  0.00    +0.037 A 
ATOM      9  C   UNL     1      -3.280   1.304   2.098  0.00  0.00    +0.068 A 
ATOM     10 CL   UNL     1      -4.239   1.069   0.669  0.00  0.00    -0.081 Cl
ATOM     11 BR   UNL     1      -3.002   4.127   5.118  0.00  0.00    -0.050 Br
ENDBRANCH   1   4
BRANCH   1  12
ATOM     12  N   UNL     1      -1.520  -0.498  -0.044  0.00  0.00    -0.183 NA
ATOM     13  H   UNL     1      -2.058  -0.646  -0.838  0.00  0.00    +0.149 HD
BRANCH  12  15
ATOM     14  C   UNL     1      -0.455   1.558  -0.831  0.00  0.00    +0.031 C 
ATOM     15  C   UNL     1      -0.239   0.205  -0.149  0.00  0.00    +0.103 C 
BRANCH  15  16
ATOM     16  C   UNL     1       0.722  -0.621  -0.965  0.00  0.00    -0.026 A 
ATOM     17  C   UNL     1       0.290  -1.308  -2.089  0.00  0.00    +0.025 A 
ATOM     18  C   UNL     1       1.201  -2.053  -2.814  0.00  0.00    +0.111 A 
ATOM     19  N   UNL     1       2.465  -2.120  -2.443  0.00  0.00    -0.263 NA
ATOM     20  C   UNL     1       2.910  -1.482  -1.378  0.00  0.00    +0.111 A 
ATOM     21  C   UNL     1       2.058  -0.715  -0.606  0.00  0.00    +0.025 A 
ENDBRANCH  15  16
ENDBRANCH  12  15
ENDBRANCH   1  12
TORSDOF 4
