REMARK  Name = ZINC04136554
REMARK  6 active torsions:
REMARK  status: ('A' for Active; 'I' for Inactive)
REMARK    1  A    between atoms: C_1  and  C_2
REMARK    2  A    between atoms: C_2  and  C_3
REMARK    3  A    between atoms: C_2  and  C_4
REMARK    4  A    between atoms: C_2  and  C_5
REMARK    5  A    between atoms: N_13  and  N_14
REMARK    6  A    between atoms: C_15  and  C_16
REMARK                            x       y       z     vdW  Elec       q    Type
REMARK                         _______ _______ _______ _____ _____    ______ ____
ROOT
ATOM      1  C   UNL     1      -8.302   3.012   0.057  0.00  0.00    +0.133 A 
ATOM      2  C   UNL     1      -8.364   1.602   0.049  0.00  0.00    +0.275 A 
ATOM      3  O   UNL     1      -9.437   1.022   0.051  0.00  0.00    -0.266 OA
ATOM      4  N   UNL     1      -7.201   0.911   0.039  0.00  0.00    -0.291 N 
ATOM      5  H   UNL     1      -7.200  -0.089   0.034  0.00  0.00    +0.172 HD
ATOM      6  C   UNL     1      -6.030   1.609   0.038  0.00  0.00    +0.235 A 
ATOM      7  N   UNL     1      -6.037   2.930   0.051  0.00  0.00    -0.113 NA
ATOM      8  N   UNL     1      -7.131   3.605   0.055  0.00  0.00    -0.145 NA
ATOM      9  N   UNL     1      -4.837   0.935   0.029  0.00  0.00    -0.205 N 
ATOM     10  H   UNL     1      -4.828  -0.034   0.023  0.00  0.00    +0.177 HD
ENDROOT
BRANCH   1  12
ATOM     11  C   UNL     1      -9.214   5.318   0.075  0.00  0.00    +0.017 C 
ATOM     12  C   UNL     1      -9.568   3.830   0.068  0.00  0.00    +0.011 C 
ATOM     13  C   UNL     1     -10.393   3.507  -1.179  0.00  0.00    +0.017 C 
ATOM     14  C   UNL     1     -10.381   3.493   1.319  0.00  0.00    +0.017 C 
ENDBRANCH   1  12
BRANCH   9  15
ATOM     15  N   UNL     1      -3.631   1.648   0.028  0.00  0.00    -0.188 NA
ATOM     16  C   UNL     1      -2.501   1.010   0.019  0.00  0.00    +0.138 C 
BRANCH  16  17
ATOM     17  C   UNL     1      -1.231   1.759   0.017  0.00  0.00    -0.005 A 
ATOM     18  C   UNL     1      -0.013   1.076   0.008  0.00  0.00    +0.010 A 
ATOM     19  C   UNL     1       1.171   1.783   0.001  0.00  0.00    +0.016 A 
ATOM     20  C   UNL     1       1.154   3.168   0.008  0.00  0.00    +0.018 A 
ATOM     21  C   UNL     1      -0.050   3.851   0.024  0.00  0.00    +0.016 A 
ATOM     22  C   UNL     1      -1.241   3.156   0.032  0.00  0.00    +0.010 A 
ATOM     23 BR   UNL     1       2.783   4.129  -0.002  0.00  0.00    -0.050 Br
ENDBRANCH  16  17
ENDBRANCH   9  15
TORSDOF 3
