REMARK  Name = ZINC62870364
REMARK  7 active torsions:
REMARK  status: ('A' for Active; 'I' for Inactive)
REMARK    1  A    between atoms: C_1  and  C_2
REMARK    2  A    between atoms: C_2  and  C_3
REMARK    3  A    between atoms: C_2  and  C_4
REMARK    4  A    between atoms: C_4  and  C_6
REMARK    5  A    between atoms: C_4  and  N_18
REMARK    6  A    between atoms: C_12  and  C_14
REMARK    7  A    between atoms: C_12  and  C_15
REMARK                            x       y       z     vdW  Elec       q    Type
REMARK                         _______ _______ _______ _____ _____    ______ ____
ROOT
ATOM      1  C   UNL     1      -1.435  -1.965   0.338  0.00  0.00    +0.201 C 
ATOM      2  O   UNL     1      -1.598  -2.692  -0.619  0.00  0.00    -0.277 OA
ATOM      3  N   UNL     1      -1.267  -2.494   1.566  0.00  0.00    -0.302 N 
ATOM      4  C   UNL     1      -0.965  -1.634   2.717  0.00  0.00    +0.108 C 
ATOM      5  C   UNL     1      -1.985  -1.915   3.825  0.00  0.00    +0.020 C 
ATOM      6  C   UNL     1      -1.988  -3.412   4.143  0.00  0.00    +0.021 C 
ATOM      7  C   UNL     1      -2.398  -4.199   2.896  0.00  0.00    +0.085 C 
ATOM      8  C   UNL     1      -1.388  -3.943   1.779  0.00  0.00    +0.125 C 
ATOM      9  C   UNL     1      -3.786  -3.744   2.438  0.00  0.00    +0.024 C 
ENDROOT
BRANCH   7  10
ATOM     10  C   UNL     1      -2.432  -5.670   3.219  0.00  0.00    +0.363 C 
ATOM     11  O   UNL     1      -3.178  -6.087   4.089  0.00  0.00    -0.246 OA
ATOM     12  O   UNL     1      -1.713  -6.445   2.610  0.00  0.00    -0.246 OA
ENDBRANCH   7  10
BRANCH   1  13
ATOM     13  C   UNL     1      -1.421  -0.469   0.154  0.00  0.00    +0.016 C 
BRANCH  13  14
ATOM     14  N   UNL     1      -2.337  -0.101  -0.934  0.00  0.00    +0.386 N 
ATOM     15  H   UNL     1      -3.272  -0.403  -0.703  0.00  0.00    -0.089 HD
ATOM     16  H   UNL     1      -2.328   0.900  -1.057  0.00  0.00    -0.089 HD
ATOM     17  H   UNL     1      -2.041  -0.548  -1.789  0.00  0.00    -0.089 HD
ENDBRANCH  13  14
BRANCH  13  19
ATOM     18  C   UNL     1       0.011   1.507  -0.380  0.00  0.00    +0.006 C 
ATOM     19  C   UNL     1      -0.004  -0.012  -0.196  0.00  0.00    -0.023 C 
ATOM     20  C   UNL     1       0.951  -0.398   0.935  0.00  0.00    +0.006 C 
ENDBRANCH  13  19
ENDBRANCH   1  13
TORSDOF 4
