REMARK  Name = ZINC66818300
REMARK  7 active torsions:
REMARK  status: ('A' for Active; 'I' for Inactive)
REMARK    1  A    between atoms: C_1  and  C_2
REMARK    2  A    between atoms: N_15  and  C_16
REMARK    3  A    between atoms: C_16  and  C_18
REMARK    4  A    between atoms: C_16  and  C_19
REMARK    5  A    between atoms: C_23  and  S_25
REMARK    6  A    between atoms: S_25  and  N_28
REMARK    7  A    between atoms: N_28  and  C_29
REMARK                            x       y       z     vdW  Elec       q    Type
REMARK                         _______ _______ _______ _____ _____    ______ ____
ROOT
ATOM      1  C   UNL     1      -0.018   1.503   0.010  0.00  0.00    +0.067 C 
ATOM      2  C   UNL     1       0.002  -0.004   0.002  0.00  0.00    +0.063 A 
ATOM      3  C   UNL     1       0.008  -0.806  -1.133  0.00  0.00    +0.073 A 
ATOM      4  C   UNL     1       0.028  -2.130  -0.714  0.00  0.00    +0.158 A 
ATOM      5  N   UNL     1       0.040  -3.281  -1.412  0.00  0.00    -0.213 NA
ATOM      6  C   UNL     1       0.059  -4.455  -0.819  0.00  0.00    +0.131 A 
ATOM      7  C   UNL     1       0.067  -4.511   0.649  0.00  0.00    +0.040 A 
ATOM      8  C   UNL     1       0.087  -5.724   1.338  0.00  0.00    +0.013 A 
ATOM      9  C   UNL     1       0.093  -5.724   2.706  0.00  0.00    +0.001 A 
ATOM     10  C   UNL     1       0.080  -4.530   3.413  0.00  0.00    +0.002 A 
ATOM     11  C   UNL     1       0.060  -3.321   2.751  0.00  0.00    +0.028 A 
ATOM     12  C   UNL     1       0.053  -3.299   1.363  0.00  0.00    +0.078 A 
ATOM     13  N   UNL     1       0.034  -2.111   0.653  0.00  0.00    -0.214 N 
ATOM     14  N   UNL     1       0.023  -0.772   1.064  0.00  0.00    -0.170 NA
ATOM     15  N   UNL     1       0.071  -5.617  -1.565  0.00  0.00    -0.322 N 
ATOM     16  H   UNL     1       0.085  -6.478  -1.121  0.00  0.00    +0.148 HD
ENDROOT
BRANCH  15  17
ATOM     17  C   UNL     1       0.063  -5.547  -3.029  0.00  0.00    +0.099 C 
ATOM     18  C   UNL     1       1.495  -5.378  -3.539  0.00  0.00    +0.033 C 
BRANCH  17  19
ATOM     19  C   UNL     1      -0.523  -6.818  -3.588  0.00  0.00    -0.026 A 
ATOM     20  C   UNL     1      -0.216  -8.035  -3.009  0.00  0.00    +0.005 A 
ATOM     21  C   UNL     1      -0.753  -9.200  -3.522  0.00  0.00    +0.002 A 
ATOM     22  C   UNL     1      -1.599  -9.149  -4.615  0.00  0.00    +0.028 A 
ATOM     23  C   UNL     1      -1.908  -7.932  -5.193  0.00  0.00    +0.106 A 
ATOM     24  C   UNL     1      -1.373  -6.766  -4.677  0.00  0.00    +0.034 A 
BRANCH  23  25
ATOM     25  S   UNL     1      -2.985  -7.866  -6.586  0.00  0.00    +0.058 S 
ATOM     26  O   UNL     1      -2.682  -6.662  -7.278  0.00  0.00    -0.153 OA
ATOM     27  O   UNL     1      -2.920  -9.141  -7.210  0.00  0.00    -0.153 OA
BRANCH  25  28
ATOM     28  N   UNL     1      -4.527  -7.702  -6.005  0.00  0.00    -0.193 NA
ATOM     29  C   UNL     1      -4.911  -6.490  -5.277  0.00  0.00    +0.127 C 
ATOM     30  H   UNL     1      -5.176  -8.409  -6.146  0.00  0.00    +0.148 HD
ENDBRANCH  25  28
ENDBRANCH  23  25
ENDBRANCH  17  19
ENDBRANCH  15  17
TORSDOF 4
