REMARK  Name = ZINC67368365
REMARK  4 active torsions:
REMARK  status: ('A' for Active; 'I' for Inactive)
REMARK    1  A    between atoms: C_6  and  O_7
REMARK    2  A    between atoms: O_7  and  C_8
REMARK    3  A    between atoms: C_8  and  C_9
REMARK    4  A    between atoms: C_9  and  N_10
REMARK                            x       y       z     vdW  Elec       q    Type
REMARK                         _______ _______ _______ _____ _____    ______ ____
ROOT
ATOM      1  C   UNL     1      -0.017   1.383   0.010  0.00  0.00    +0.047 A 
ATOM      2  C   UNL     1       1.169   2.090   0.002  0.00  0.00    +0.027 A 
ATOM      3  C   UNL     1       2.381   1.413  -0.013  0.00  0.00    +0.037 A 
ATOM      4  C   UNL     1       2.399   0.024  -0.020  0.00  0.00    -0.022 A 
ATOM      5  C   UNL     1       1.213  -0.682  -0.013  0.00  0.00    +0.051 A 
ATOM      6  C   UNL     1       0.002  -0.004   0.002  0.00  0.00    +0.121 A 
ATOM      7  C   UNL     1       3.715  -0.709  -0.035  0.00  0.00    +0.046 C 
ATOM      8  C   UNL     1       4.736   0.091  -0.845  0.00  0.00    +0.101 C 
ATOM      9  C   UNL     1       4.729   1.529  -0.402  0.00  0.00    +0.218 C 
ATOM     10  O   UNL     1       5.767   2.157  -0.389  0.00  0.00    -0.275 OA
ATOM     11  N   UNL     1       3.586   2.126  -0.020  0.00  0.00    -0.285 N 
ATOM     12  H   UNL     1       3.596   3.057   0.251  0.00  0.00    +0.155 HD
ENDROOT
BRANCH   6  13
ATOM     13  O   UNL     1      -1.166  -0.700   0.010  0.00  0.00    -0.490 OA
BRANCH  13  14
ATOM     14  C   UNL     1      -2.375   0.063   0.026  0.00  0.00    +0.247 C 
BRANCH  14  15
ATOM     15  C   UNL     1      -3.576  -0.885   0.032  0.00  0.00    +0.145 C 
BRANCH  15  16
ATOM     16  N   UNL     1      -3.585  -1.653   1.280  0.00  0.00    -0.310 N 
ATOM     17  C   UNL     1      -4.585  -2.582   1.514  0.00  0.00    +0.215 A 
ATOM     18  N   UNL     1      -5.522  -2.767   0.597  0.00  0.00    -0.222 NA
ATOM     19  C   UNL     1      -6.492  -3.647   0.789  0.00  0.00    +0.131 A 
ATOM     20  C   UNL     1      -6.518  -4.377   1.967  0.00  0.00    +0.054 A 
ATOM     21  C   UNL     1      -5.521  -4.158   2.906  0.00  0.00    +0.131 A 
ATOM     22  N   UNL     1      -4.578  -3.267   2.648  0.00  0.00    -0.222 NA
ATOM     23 BR   UNL     1      -7.884  -5.645   2.287  0.00  0.00    -0.047 Br
ATOM     24  H   UNL     1      -2.891  -1.510   1.942  0.00  0.00    +0.149 HD
ENDBRANCH  15  16
ENDBRANCH  14  15
ENDBRANCH  13  14
ENDBRANCH   6  13
TORSDOF 4
