REMARK  Name = ZINC66900017
REMARK  6 active torsions:
REMARK  status: ('A' for Active; 'I' for Inactive)
REMARK    1  A    between atoms: C_1  and  C_2
REMARK    2  A    between atoms: C_2  and  C_3
REMARK    3  A    between atoms: C_3  and  N_4
REMARK    4  A    between atoms: C_8  and  C_10
REMARK    5  A    between atoms: C_10  and  N_11
REMARK    6  A    between atoms: C_15  and  C_17
REMARK                            x       y       z     vdW  Elec       q    Type
REMARK                         _______ _______ _______ _____ _____    ______ ____
ROOT
ATOM      1  N   UNL     1       2.542  -6.677   4.526  0.00  0.00    +0.390 N 
ATOM      2  C   UNL     1       1.862  -6.397   5.808  0.00  0.00    -0.077 C 
ATOM      3  C   UNL     1       2.204  -7.609   6.711  0.00  0.00    -0.020 C 
ATOM      4  C   UNL     1       2.173  -8.777   5.691  0.00  0.00    -0.012 C 
ATOM      5  C   UNL     1       2.738  -8.134   4.407  0.00  0.00    -0.033 C 
ATOM      6  H   UNL     1       3.437  -6.211   4.509  0.00  0.00    -0.080 HD
ENDROOT
BRANCH   5   7
ATOM      7  C   UNL     1       1.997  -8.655   3.203  0.00  0.00    -0.016 A 
ATOM      8  C   UNL     1       0.697  -9.105   3.335  0.00  0.00    +0.006 A 
ATOM      9  C   UNL     1       0.014  -9.584   2.233  0.00  0.00    +0.004 A 
ATOM     10  C   UNL     1       0.629  -9.615   0.995  0.00  0.00    +0.049 A 
ATOM     11  C   UNL     1       1.933  -9.165   0.856  0.00  0.00    +0.162 A 
ATOM     12  C   UNL     1       2.617  -8.676   1.963  0.00  0.00    +0.164 A 
ATOM     13  O   UNL     1       3.893  -8.218   1.847  0.00  0.00    -0.485 OA
ATOM     14  C   UNL     1       4.609  -8.600   0.667  0.00  0.00    +0.270 C 
ATOM     15  C   UNL     1       3.691  -8.385  -0.543  0.00  0.00    +0.270 C 
ATOM     16  O   UNL     1       2.527  -9.205  -0.368  0.00  0.00    -0.485 OA
ENDBRANCH   5   7
BRANCH   1  17
ATOM     17  C   UNL     1       1.713  -6.198   3.412  0.00  0.00    +0.020 C 
BRANCH  17  22
ATOM     18  N   UNL     1       0.131  -2.019   1.638  0.00  0.00    -0.299 N 
ATOM     19  C   UNL     1       0.844  -2.684   2.568  0.00  0.00    +0.306 C 
ATOM     20  O   UNL     1       1.420  -2.070   3.445  0.00  0.00    -0.252 OA
ATOM     21  N   UNL     1       0.917  -4.029   2.527  0.00  0.00    -0.242 N 
ATOM     22  C   UNL     1       1.630  -4.694   3.458  0.00  0.00    +0.204 C 
ATOM     23  O   UNL     1       2.205  -4.082   4.332  0.00  0.00    -0.277 OA
ATOM     24  H   UNL     1      -0.330  -2.509   0.938  0.00  0.00    +0.150 HD
ATOM     25  H   UNL     1       0.457  -4.519   1.828  0.00  0.00    +0.159 HD
BRANCH  18  26
ATOM     26  C   UNL     1       0.051  -0.557   1.683  0.00  0.00    +0.105 C 
BRANCH  26  28
ATOM     27  C   UNL     1      -0.897   1.469   0.569  0.00  0.00    +0.005 C 
ATOM     28  C   UNL     1      -0.813  -0.058   0.522  0.00  0.00    +0.015 C 
ENDBRANCH  26  28
ENDBRANCH  18  26
ENDBRANCH  17  22
ENDBRANCH   1  17
TORSDOF 5
