REMARK  Name = ZINC02664637
REMARK  4 active torsions:
REMARK  status: ('A' for Active; 'I' for Inactive)
REMARK    1  A    between atoms: N_13  and  C_17
REMARK    2  A    between atoms: C_17  and  C_18
REMARK    3  A    between atoms: N_20  and  C_21
REMARK    4  A    between atoms: C_22  and  C_29
REMARK                            x       y       z     vdW  Elec       q    Type
REMARK                         _______ _______ _______ _____ _____    ______ ____
ROOT
ATOM      1  C   UNL     1      -4.960   1.965   0.037  0.00  0.00    +0.214 C 
ENDROOT
BRANCH   1  14
ATOM      2  C   UNL     1      -7.547   6.652   5.370  0.00  0.00    +0.000 A 
ATOM      3  C   UNL     1      -6.679   7.477   4.677  0.00  0.00    +0.000 A 
ATOM      4  C   UNL     1      -6.473   7.274   3.329  0.00  0.00    +0.004 A 
ATOM      5  C   UNL     1      -7.130   6.249   2.660  0.00  0.00    -0.042 A 
ATOM      6  C   UNL     1      -7.989   5.425   3.350  0.00  0.00    -0.044 A 
ATOM      7  C   UNL     1      -8.197   5.631   4.708  0.00  0.00    +0.004 A 
ATOM      8  C   UNL     1      -8.728   4.287   2.695  0.00  0.00    +0.038 C 
ATOM      9  C   UNL     1      -8.758   4.467   1.178  0.00  0.00    +0.040 C 
ATOM     10  C   UNL     1      -7.335   4.735   0.693  0.00  0.00    +0.117 C 
ATOM     11  C   UNL     1      -6.871   6.098   1.183  0.00  0.00    +0.070 C 
ATOM     12  C   UNL     1      -6.406   3.643   1.168  0.00  0.00    +0.247 C 
ATOM     13  O   UNL     1      -6.154   3.341   2.315  0.00  0.00    -0.273 OA
ATOM     14  N   UNL     1      -5.913   3.077   0.047  0.00  0.00    -0.215 N 
ATOM     15  C   UNL     1      -6.409   3.653  -1.055  0.00  0.00    +0.310 C 
ATOM     16  O   UNL     1      -6.118   3.313  -2.185  0.00  0.00    -0.252 OA
ATOM     17  N   UNL     1      -7.266   4.653  -0.771  0.00  0.00    -0.285 N 
ATOM     18  H   UNL     1      -7.743   5.208  -1.407  0.00  0.00    +0.151 HD
ENDBRANCH   1  14
BRANCH   1  19
ATOM     19  C   UNL     1      -3.554   2.508   0.033  0.00  0.00    +0.236 C 
ATOM     20  O   UNL     1      -3.368   3.707   0.038  0.00  0.00    -0.274 OA
ATOM     21  N   UNL     1      -2.505   1.663   0.023  0.00  0.00    -0.278 N 
ATOM     22  H   UNL     1      -2.654   0.704   0.019  0.00  0.00    +0.155 HD
BRANCH  21  23
ATOM     23  C   UNL     1      -1.211   2.163   0.019  0.00  0.00    +0.084 A 
ATOM     24  C   UNL     1      -0.018   1.462   0.010  0.00  0.00    +0.068 A 
ATOM     25  C   UNL     1       1.223   2.237   0.002  0.00  0.00    -0.023 A 
ATOM     26  C   UNL     1       1.062   3.572   0.009  0.00  0.00    -0.004 A 
ATOM     27  S   UNL     1      -0.697   3.816   0.029  0.00  0.00    -0.077 S 
ATOM     28  C   UNL     1       2.379   4.299  -0.004  0.00  0.00    +0.043 C 
ATOM     29  C   UNL     1       3.406   3.236  -0.454  0.00  0.00    +0.010 C 
ATOM     30  C   UNL     1       2.721   1.929  -0.009  0.00  0.00    +0.037 C 
BRANCH  24  31
ATOM     31  C   UNL     1       0.002  -0.004   0.002  0.00  0.00    +0.244 C 
ATOM     32  O   UNL     1       0.020  -0.618   1.053  0.00  0.00    -0.270 OA
ATOM     33  N   UNL     1       0.000  -0.672  -1.169  0.00  0.00    -0.325 N 
ATOM     34  H   UNL     1      -0.015  -0.182  -2.006  0.00  0.00    +0.145 HD
ATOM     35  H   UNL     1       0.013  -1.641  -1.174  0.00  0.00    +0.145 HD
ENDBRANCH  24  31
ENDBRANCH  21  23
ENDBRANCH   1  19
TORSDOF 4
