REMARK  Name = ZINC59403718
REMARK  16 active torsions:
REMARK  status: ('A' for Active; 'I' for Inactive)
REMARK    1  A    between atoms: C_1  and  C_2
REMARK    2  A    between atoms: C_2  and  C_4
REMARK    3  A    between atoms: C_2  and  N_19
REMARK    4  A    between atoms: N_6  and  C_7
REMARK    5  A    between atoms: C_7  and  C_8
REMARK    6  A    between atoms: C_8  and  C_9
REMARK    7  A    between atoms: C_12  and  O_17
REMARK    8  A    between atoms: C_13  and  O_15
REMARK    9  A    between atoms: O_15  and  C_16
REMARK   10  A    between atoms: O_17  and  C_18
REMARK   11  A    between atoms: C_22  and  C_25
REMARK   12  A    between atoms: C_25  and  C_27
REMARK   13  A    between atoms: C_30  and  C_33
REMARK   14  A    between atoms: C_33  and  C_34
REMARK   15  A    between atoms: C_34  and  C_35
REMARK   16  A    between atoms: C_34  and  C_36
REMARK                            x       y       z     vdW  Elec       q    Type
REMARK                         _______ _______ _______ _____ _____    ______ ____
ROOT
ATOM      1  N   UNL     1       0.816  -0.907  -0.823  0.00  0.00    +0.387 N 
ATOM      2  C   UNL     1       2.224  -0.498  -0.750  0.00  0.00    -0.077 C 
ATOM      3  C   UNL     1       3.064  -1.385  -1.671  0.00  0.00    -0.007 C 
ATOM      4  C   UNL     1       2.932  -2.844  -1.226  0.00  0.00    +0.057 C 
ATOM      5  C   UNL     1       1.452  -3.237  -1.234  0.00  0.00    -0.007 C 
ATOM      6  C   UNL     1       0.671  -2.282  -0.330  0.00  0.00    -0.077 C 
ATOM      7  H   UNL     1       0.503  -0.860  -1.781  0.00  0.00    -0.081 HD
ENDROOT
BRANCH   1   9
ATOM      8  C   UNL     1       0.142   1.428  -0.519  0.00  0.00    -0.004 C 
ATOM      9  C   UNL     1       0.002  -0.004   0.002  0.00  0.00    +0.016 C 
BRANCH   9  10
ATOM     10  C   UNL     1      -1.443  -0.425  -0.068  0.00  0.00    +0.199 C 
ATOM     11  O   UNL     1      -1.864  -0.986  -1.058  0.00  0.00    -0.278 OA
ATOM     12  N   UNL     1      -2.268  -0.178   0.968  0.00  0.00    -0.316 N 
ATOM     13  H   UNL     1      -1.932   0.271   1.760  0.00  0.00    +0.149 HD
BRANCH  12  14
ATOM     14  C   UNL     1      -3.673  -0.587   0.900  0.00  0.00    +0.109 C 
BRANCH  14  15
ATOM     15  C   UNL     1      -4.384  -0.191   2.196  0.00  0.00    +0.054 C 
BRANCH  15  16
ATOM     16  C   UNL     1      -5.829  -0.612   2.125  0.00  0.00    -0.042 A 
ATOM     17  C   UNL     1      -6.775   0.253   1.608  0.00  0.00    +0.007 A 
ATOM     18  C   UNL     1      -8.102  -0.128   1.541  0.00  0.00    +0.049 A 
ATOM     19  C   UNL     1      -8.486  -1.380   1.993  0.00  0.00    +0.161 A 
ATOM     20  C   UNL     1      -7.534  -2.251   2.514  0.00  0.00    +0.162 A 
ATOM     21  C   UNL     1      -6.205  -1.865   2.573  0.00  0.00    +0.053 A 
BRANCH  20  22
ATOM     22  O   UNL     1      -7.907  -3.481   2.958  0.00  0.00    -0.491 OA
ATOM     23  C   UNL     1      -6.876  -4.322   3.480  0.00  0.00    +0.277 C 
ENDBRANCH  20  22
BRANCH  19  24
ATOM     24  O   UNL     1      -9.792  -1.757   1.928  0.00  0.00    -0.491 OA
ATOM     25  C   UNL     1     -10.713  -0.811   1.383  0.00  0.00    +0.277 C 
ENDBRANCH  19  24
ENDBRANCH  15  16
ENDBRANCH  14  15
ENDBRANCH  12  14
ENDBRANCH   9  10
ENDBRANCH   1   9
BRANCH   4  26
ATOM     26  C   UNL     1       3.694  -3.732  -2.176  0.00  0.00    +0.166 C 
ATOM     27  O   UNL     1       3.896  -3.369  -3.315  0.00  0.00    -0.292 OA
BRANCH  26  28
ATOM     28  C   UNL     1       4.194  -5.039  -1.720  0.00  0.00    +0.018 A 
ATOM     29  C   UNL     1       3.958  -5.464  -0.408  0.00  0.00    +0.011 A 
ATOM     30  C   UNL     1       4.429  -6.690   0.011  0.00  0.00    +0.004 A 
ATOM     31  C   UNL     1       5.133  -7.500  -0.863  0.00  0.00    -0.047 A 
ATOM     32  C   UNL     1       5.371  -7.087  -2.162  0.00  0.00    +0.004 A 
ATOM     33  C   UNL     1       4.902  -5.866  -2.598  0.00  0.00    +0.011 A 
BRANCH  31  34
ATOM     34  C   UNL     1       5.644  -8.839  -0.397  0.00  0.00    +0.038 C 
BRANCH  34  35
ATOM     35  C   UNL     1       4.584  -9.910  -0.660  0.00  0.00    -0.013 C 
ATOM     36  C   UNL     1       4.375 -10.059  -2.168  0.00  0.00    +0.007 C 
ATOM     37  C   UNL     1       5.050 -11.244  -0.075  0.00  0.00    +0.007 C 
ENDBRANCH  34  35
ENDBRANCH  31  34
ENDBRANCH  26  28
ENDBRANCH   4  26
TORSDOF 11
