REMARK  Name = ZINC67629676
REMARK  7 active torsions:
REMARK  status: ('A' for Active; 'I' for Inactive)
REMARK    1  A    between atoms: C_1  and  C_2
REMARK    2  A    between atoms: C_5  and  N_8
REMARK    3  A    between atoms: N_8  and  C_9
REMARK    4  A    between atoms: C_9  and  C_10
REMARK    5  A    between atoms: C_10  and  N_11
REMARK    6  A    between atoms: N_11  and  S_12
REMARK    7  A    between atoms: S_12  and  C_15
REMARK                            x       y       z     vdW  Elec       q    Type
REMARK                         _______ _______ _______ _____ _____    ______ ____
ROOT
ATOM      1  N   UNL     1      -5.804   3.943  -6.117  0.00  0.00    -0.188 NA
ATOM      2  H   UNL     1      -6.384   3.593  -5.422  0.00  0.00    +0.148 HD
ENDROOT
BRANCH   1   3
ATOM      3  S   UNL     1      -6.445   4.827  -7.362  0.00  0.00    +0.060 S 
ATOM      4  O   UNL     1      -7.849   4.875  -7.146  0.00  0.00    -0.153 OA
ATOM      5  O   UNL     1      -5.652   6.001  -7.476  0.00  0.00    -0.153 OA
BRANCH   3   6
ATOM      6  C   UNL     1      -6.194   3.903  -8.841  0.00  0.00    +0.125 A 
ATOM      7  C   UNL     1      -7.280   3.421  -9.546  0.00  0.00    +0.050 A 
ATOM      8  C   UNL     1      -7.083   2.695 -10.708  0.00  0.00    +0.043 A 
ATOM      9  C   UNL     1      -5.799   2.453 -11.163  0.00  0.00    +0.021 A 
ATOM     10  C   UNL     1      -4.713   2.935 -10.457  0.00  0.00    +0.023 A 
ATOM     11  C   UNL     1      -4.911   3.666  -9.299  0.00  0.00    +0.067 A 
ATOM     12 CL   UNL     1      -3.547   4.279  -8.416  0.00  0.00    -0.082 Cl
ATOM     13 CL   UNL     1      -8.447   2.088 -11.594  0.00  0.00    -0.083 Cl
ENDBRANCH   3   6
ENDBRANCH   1   3
BRANCH   1  14
ATOM     14  C   UNL     1      -4.363   3.688  -6.065  0.00  0.00    +0.124 C 
BRANCH  14  15
ATOM     15  C   UNL     1      -3.982   3.192  -4.669  0.00  0.00    +0.119 C 
BRANCH  15  16
ATOM     16  N   UNL     1      -2.540   2.938  -4.617  0.00  0.00    -0.328 N 
ATOM     17  H   UNL     1      -1.992   3.090  -5.403  0.00  0.00    +0.147 HD
BRANCH  16  22
ATOM     18  C   UNL     1      -0.013   1.086   0.008  0.00  0.00    +0.067 C 
ATOM     19  C   UNL     1      -0.742   1.585  -1.213  0.00  0.00    +0.058 A 
ATOM     20  C   UNL     1      -2.112   1.797  -1.164  0.00  0.00    +0.028 A 
ATOM     21  C   UNL     1      -2.741   2.257  -2.310  0.00  0.00    +0.044 A 
ATOM     22  C   UNL     1      -1.957   2.477  -3.442  0.00  0.00    +0.113 A 
ATOM     23  N   UNL     1      -0.653   2.245  -3.392  0.00  0.00    -0.264 N 
ATOM     24  N   UNL     1      -0.076   1.825  -2.325  0.00  0.00    -0.178 NA
ATOM     25  H   UNL     1      -0.117   2.402  -4.185  0.00  0.00    +0.190 HD
ENDBRANCH  16  22
ENDBRANCH  15  16
ENDBRANCH  14  15
ENDBRANCH   1  14
TORSDOF 6
