REMARK  Name = ZINC19932696
REMARK  3 active torsions:
REMARK  status: ('A' for Active; 'I' for Inactive)
REMARK    1  A    between atoms: C_3  and  C_6
REMARK    2  A    between atoms: C_6  and  C_8
REMARK    3  A    between atoms: C_6  and  N_15
REMARK                            x       y       z     vdW  Elec       q    Type
REMARK                         _______ _______ _______ _____ _____    ______ ____
ROOT
ATOM      1  C   UNL     1       2.356   4.816   0.004  0.00  0.00    +0.120 C 
ENDROOT
BRANCH   1   2
ATOM      2  C   UNL     1       1.095   3.990   0.013  0.00  0.00    -0.007 A 
ATOM      3  C   UNL     1       1.163   2.606   0.005  0.00  0.00    +0.023 A 
ATOM      4  C   UNL     1      -0.024   1.887   0.012  0.00  0.00    +0.036 A 
ATOM      5  C   UNL     1      -1.226   2.571   0.022  0.00  0.00    +0.126 A 
ATOM      6  N   UNL     1      -1.251   3.889   0.034  0.00  0.00    -0.262 NA
ATOM      7  C   UNL     1      -0.143   4.604   0.027  0.00  0.00    +0.116 A 
ATOM      8 BR   UNL     1       0.002  -0.004   0.002  0.00  0.00    -0.049 Br
ENDBRANCH   1   2
BRANCH   1  11
ATOM      9  C   UNL     1       3.573   5.430  -3.553  0.00  0.00    +0.008 A 
ATOM     10  C   UNL     1       3.494   4.816  -2.317  0.00  0.00    +0.013 A 
ATOM     11  C   UNL     1       2.628   5.304  -1.395  0.00  0.00    +0.011 A 
ATOM     12  S   UNL     1       1.898   6.681  -2.267  0.00  0.00    -0.100 S 
ATOM     13  C   UNL     1       2.791   6.508  -3.803  0.00  0.00    +0.045 A 
ENDBRANCH   1  11
BRANCH   1  14
ATOM     14  N   UNL     1       2.193   5.967   0.902  0.00  0.00    -0.320 NA
ATOM     15  H   UNL     1       1.995   5.610   1.924  0.00  0.00    +0.119 HD
ATOM     16  H   UNL     1       3.114   6.570   0.896  0.00  0.00    +0.119 HD
ENDBRANCH   1  14
TORSDOF 3
