REMARK  Name = ZINC38979491
REMARK  10 active torsions:
REMARK  status: ('A' for Active; 'I' for Inactive)
REMARK    1  A    between atoms: C_1  and  C_2
REMARK    2  A    between atoms: C_2  and  C_3
REMARK    3  A    between atoms: C_3  and  C_5
REMARK    4  A    between atoms: C_3  and  C_6
REMARK    5  A    between atoms: C_9  and  N_12
REMARK    6  A    between atoms: N_12  and  C_13
REMARK    7  A    between atoms: N_16  and  S_17
REMARK    8  A    between atoms: S_17  and  C_20
REMARK    9  A    between atoms: C_23  and  O_26
REMARK   10  A    between atoms: O_26  and  C_27
REMARK                            x       y       z     vdW  Elec       q    Type
REMARK                         _______ _______ _______ _____ _____    ______ ____
ROOT
ATOM      1  C   UNL     1      -1.915  -6.838   1.637  0.00  0.00    +0.237 C 
ATOM      2  C   UNL     1      -0.849  -7.746   2.207  0.00  0.00    +0.192 C 
ATOM      3  N   UNL     1       0.307  -7.266   2.559  0.00  0.00    -0.110 NA
ATOM      4  N   UNL     1      -1.113  -9.055   2.344  0.00  0.00    -0.226 NA
ATOM      5  C   UNL     1      -2.276  -9.565   1.995  0.00  0.00    +0.089 A 
ATOM      6  C   UNL     1      -2.521 -10.952   2.154  0.00  0.00    +0.030 A 
ATOM      7  C   UNL     1      -3.712 -11.481   1.797  0.00  0.00    +0.002 A 
ATOM      8  C   UNL     1      -4.756 -10.709   1.260  0.00  0.00    +0.002 A 
ATOM      9  C   UNL     1      -4.628  -9.377   1.067  0.00  0.00    +0.027 A 
ATOM     10  C   UNL     1      -3.361  -8.725   1.430  0.00  0.00    +0.063 A 
ATOM     11  N   UNL     1      -3.201  -7.443   1.258  0.00  0.00    -0.359 N 
ATOM     12  H   UNL     1      -3.915  -6.900   0.888  0.00  0.00    +0.162 HD
ENDROOT
BRANCH   3  13
ATOM     13  S   UNL     1       1.466  -8.272   3.181  0.00  0.00    +0.100 S 
ATOM     14  O   UNL     1       0.972  -8.738   4.429  0.00  0.00    -0.146 OA
ATOM     15  O   UNL     1       1.844  -9.155   2.133  0.00  0.00    -0.146 OA
BRANCH  13  16
ATOM     16  C   UNL     1       2.879  -7.281   3.538  0.00  0.00    +0.113 A 
ATOM     17  C   UNL     1       3.849  -7.089   2.572  0.00  0.00    +0.032 A 
ATOM     18  C   UNL     1       4.957  -6.313   2.849  0.00  0.00    +0.047 A 
ATOM     19  C   UNL     1       5.097  -5.726   4.099  0.00  0.00    +0.120 A 
ATOM     20  C   UNL     1       4.122  -5.920   5.066  0.00  0.00    +0.047 A 
ATOM     21  C   UNL     1       3.013  -6.693   4.782  0.00  0.00    +0.032 A 
BRANCH  19  22
ATOM     22  O   UNL     1       6.187  -4.962   4.374  0.00  0.00    -0.495 OA
ATOM     23  C   UNL     1       6.264  -4.389   5.681  0.00  0.00    +0.277 C 
ENDBRANCH  19  22
ENDBRANCH  13  16
ENDBRANCH   3  13
BRANCH   1  24
ATOM     24  N   UNL     1      -1.359  -6.187   0.448  0.00  0.00    -0.318 N 
ATOM     25  H   UNL     1      -0.947  -6.721  -0.249  0.00  0.00    +0.148 HD
BRANCH  24  29
ATOM     26  C   UNL     1      -1.550  -2.046   0.059  0.00  0.00    -0.044 A 
ATOM     27  C   UNL     1      -2.219  -2.673   1.095  0.00  0.00    +0.006 A 
ATOM     28  C   UNL     1      -2.158  -4.047   1.226  0.00  0.00    +0.023 A 
ATOM     29  C   UNL     1      -1.424  -4.798   0.317  0.00  0.00    +0.029 A 
ATOM     30  C   UNL     1      -0.753  -4.165  -0.722  0.00  0.00    +0.023 A 
ATOM     31  C   UNL     1      -0.823  -2.791  -0.851  0.00  0.00    +0.006 A 
BRANCH  26  32
ATOM     32  C   UNL     1      -1.619  -0.547  -0.081  0.00  0.00    +0.016 C 
ATOM     33  C   UNL     1      -1.045   0.110   1.176  0.00  0.00    +0.012 C 
BRANCH  32  35
ATOM     34  C   UNL     1      -3.136   1.387  -0.527  0.00  0.00    +0.004 C 
ATOM     35  C   UNL     1      -3.077  -0.118  -0.261  0.00  0.00    +0.004 C 
ENDBRANCH  32  35
ENDBRANCH  26  32
ENDBRANCH  24  29
ENDBRANCH   1  24
TORSDOF 7
