REMARK  Name = ZINC11175002
REMARK  3 active torsions:
REMARK  status: ('A' for Active; 'I' for Inactive)
REMARK    1  A    between atoms: C_6  and  S_7
REMARK    2  A    between atoms: S_7  and  N_10
REMARK    3  A    between atoms: N_10  and  C_11
REMARK                            x       y       z     vdW  Elec       q    Type
REMARK                         _______ _______ _______ _____ _____    ______ ____
ROOT
ATOM      1  S   UNL     1      -4.181   5.316   0.016  0.00  0.00    +0.072 S 
ATOM      2  O   UNL     1      -3.721   6.593  -0.405  0.00  0.00    -0.150 OA
ATOM      3  O   UNL     1      -5.283   4.663  -0.599  0.00  0.00    -0.150 OA
ENDROOT
BRANCH   1   9
ATOM      4  C   UNL     1      -3.021   2.852  -0.147  0.00  0.00    +0.031 A 
ATOM      5  C   UNL     1      -1.950   1.985  -0.249  0.00  0.00    +0.031 A 
ATOM      6  C   UNL     1      -0.660   2.487  -0.317  0.00  0.00    +0.087 A 
ATOM      7  C   UNL     1      -0.445   3.865  -0.280  0.00  0.00    +0.159 A 
ATOM      8  C   UNL     1      -1.525   4.727  -0.174  0.00  0.00    +0.077 A 
ATOM      9  C   UNL     1      -2.808   4.219  -0.114  0.00  0.00    +0.112 A 
ATOM     10  O   UNL     1       0.893   4.066  -0.369  0.00  0.00    -0.408 OA
ATOM     11  C   UNL     1       1.512   2.878  -0.454  0.00  0.00    +0.419 A 
ATOM     12  O   UNL     1       2.714   2.718  -0.545  0.00  0.00    -0.223 OA
ATOM     13  N   UNL     1       0.596   1.891  -0.422  0.00  0.00    -0.288 N 
ATOM     14  H   UNL     1       0.776   0.939  -0.468  0.00  0.00    +0.172 HD
ENDBRANCH   1   9
BRANCH   1  15
ATOM     15  N   UNL     1      -4.549   5.452   1.625  0.00  0.00    -0.216 N 
ATOM     16  H   UNL     1      -5.409   5.146   1.953  0.00  0.00    +0.174 HD
BRANCH  15  17
ATOM     17  C   UNL     1      -3.622   6.009   2.509  0.00  0.00    +0.051 A 
ATOM     18  C   UNL     1      -2.926   5.193   3.392  0.00  0.00    +0.044 A 
ATOM     19  C   UNL     1      -2.006   5.746   4.262  0.00  0.00    +0.044 A 
ATOM     20  C   UNL     1      -1.784   7.112   4.261  0.00  0.00    +0.040 A 
ATOM     21  C   UNL     1      -2.479   7.928   3.386  0.00  0.00    +0.044 A 
ATOM     22  C   UNL     1      -3.397   7.380   2.510  0.00  0.00    +0.044 A 
ATOM     23 CL   UNL     1      -2.198   9.641   3.388  0.00  0.00    -0.083 Cl
ATOM     24 CL   UNL     1      -1.131   4.727   5.363  0.00  0.00    -0.083 Cl
ENDBRANCH  15  17
ENDBRANCH   1  15
TORSDOF 3
