REMARK  Name = ZINC64197804
REMARK  11 active torsions:
REMARK  status: ('A' for Active; 'I' for Inactive)
REMARK    1  A    between atoms: C_1  and  C_2
REMARK    2  A    between atoms: C_5  and  C_33
REMARK    3  A    between atoms: C_6  and  N_8
REMARK    4  A    between atoms: C_9  and  S_14
REMARK    5  A    between atoms: S_14  and  C_15
REMARK    6  A    between atoms: C_15  and  C_16
REMARK    7  A    between atoms: N_18  and  C_19
REMARK    8  A    between atoms: C_19  and  C_21
REMARK    9  A    between atoms: C_19  and  C_30
REMARK   10  A    between atoms: C_30  and  C_31
REMARK   11  A    between atoms: C_30  and  C_32
REMARK                            x       y       z     vdW  Elec       q    Type
REMARK                         _______ _______ _______ _____ _____    ______ ____
ROOT
ATOM      1  C   UNL     1       4.675  -5.175   2.222  0.00  0.00    +0.223 C 
ATOM      2  O   UNL     1       5.660  -4.504   1.999  0.00  0.00    -0.275 OA
ATOM      3  N   UNL     1       4.575  -6.416   1.708  0.00  0.00    -0.308 N 
ATOM      4  H   UNL     1       3.787  -6.953   1.887  0.00  0.00    +0.149 HD
ENDROOT
BRANCH   1   5
ATOM      5  C   UNL     1       3.563  -4.620   3.074  0.00  0.00    +0.168 C 
BRANCH   5   6
ATOM      6  S   UNL     1       3.993  -2.941   3.611  0.00  0.00    -0.103 S 
BRANCH   6   8
ATOM      7  N   UNL     1       1.339  -2.440   3.803  0.00  0.00    -0.201 N 
ATOM      8  C   UNL     1       2.571  -2.424   4.613  0.00  0.00    +0.294 C 
ATOM      9  N   UNL     1       2.323  -3.390   5.690  0.00  0.00    -0.135 NA
ATOM     10  N   UNL     1       1.200  -3.876   5.560  0.00  0.00    -0.066 NA
ATOM     11  N   UNL     1       0.512  -3.372   4.456  0.00  0.00    -0.164 N 
ATOM     12  H   UNL     1      -0.384  -3.623   4.183  0.00  0.00    +0.195 HD
BRANCH   7  18
ATOM     13  C   UNL     1       1.004   1.923   1.566  0.00  0.00    +0.044 C 
ATOM     14  C   UNL     1       0.885   0.421   1.542  0.00  0.00    -0.049 A 
ATOM     15  C   UNL     1       0.495  -0.223   0.381  0.00  0.00    +0.004 A 
ATOM     16  C   UNL     1       0.385  -1.601   0.355  0.00  0.00    +0.005 A 
ATOM     17  C   UNL     1       0.664  -2.339   1.488  0.00  0.00    -0.028 A 
ATOM     18  C   UNL     1       1.056  -1.696   2.655  0.00  0.00    +0.055 A 
ATOM     19  C   UNL     1       1.171  -0.312   2.677  0.00  0.00    +0.028 A 
ATOM     20  C   UNL     1       0.543  -3.841   1.459  0.00  0.00    +0.046 C 
ENDBRANCH   7  18
ENDBRANCH   6   8
ENDBRANCH   5   6
ENDBRANCH   1   5
BRANCH   3  21
ATOM     21  C   UNL     1       5.656  -6.956   0.879  0.00  0.00    +0.118 C 
BRANCH  21  22
ATOM     22  C   UNL     1       5.631  -8.484   0.940  0.00  0.00    +0.195 C 
ATOM     23  N   UNL     1       5.922  -8.940   2.305  0.00  0.00    -0.362 N 
ATOM     24  C   UNL     1       7.003  -9.664   2.253  0.00  0.00    +0.060 A 
ATOM     25  C   UNL     1       7.775 -10.381   3.276  0.00  0.00    +0.027 A 
ATOM     26  C   UNL     1       8.881 -11.065   2.918  0.00  0.00    +0.002 A 
ATOM     27  C   UNL     1       9.338 -11.124   1.590  0.00  0.00    +0.002 A 
ATOM     28  C   UNL     1       8.705 -10.502   0.575  0.00  0.00    +0.027 A 
ATOM     29  C   UNL     1       7.486  -9.727   0.846  0.00  0.00    +0.060 A 
ATOM     30  N   UNL     1       6.686  -9.040   0.084  0.00  0.00    -0.362 N 
ATOM     31  H   UNL     1       5.405  -8.738   3.100  0.00  0.00    +0.162 HD
ATOM     32  H   UNL     1       6.771  -8.918  -0.875  0.00  0.00    +0.162 HD
ENDBRANCH  21  22
BRANCH  21  33
ATOM     33  C   UNL     1       5.465  -6.499  -0.568  0.00  0.00    +0.007 C 
ATOM     34  C   UNL     1       4.064  -6.888  -1.045  0.00  0.00    +0.009 C 
ATOM     35  C   UNL     1       5.628  -4.980  -0.650  0.00  0.00    +0.009 C 
ENDBRANCH  21  33
ENDBRANCH   3  21
TORSDOF 7
