REMARK  Name = ZINC05665020
REMARK  6 active torsions:
REMARK  status: ('A' for Active; 'I' for Inactive)
REMARK    1  A    between atoms: C_13  and  C_14
REMARK    2  A    between atoms: C_14  and  O_15
REMARK    3  A    between atoms: O_15  and  C_16
REMARK    4  A    between atoms: N_18  and  CA_19
REMARK    5  A    between atoms: CA_19  and  C_21
REMARK    6  A    between atoms: CA_19  and  C_28
REMARK                            x       y       z     vdW  Elec       q    Type
REMARK                         _______ _______ _______ _____ _____    ______ ____
ROOT
ATOM      1  O   UNL     1      -2.344   0.935   0.018  0.00  0.00    -0.449 OA
ENDROOT
BRANCH   1   2
ATOM      2  C   UNL     1      -1.187   1.624   0.017  0.00  0.00    +0.401 C 
ATOM      3  O   UNL     1      -1.204   2.839   0.023  0.00  0.00    -0.226 OA
ATOM      4  N   UNL     1      -0.011   0.966   0.007  0.00  0.00    -0.264 N 
ATOM      5  H   UNL     1       0.002  -0.004   0.002  0.00  0.00    +0.153 HD
BRANCH   4   6
ATOM      6  CA  UNL     1       1.248   1.716  -0.001  0.00  0.00    +0.233 C 
BRANCH   6   7
ATOM      7  C   UNL     1       2.361   0.850   0.594  0.00  0.00    +0.242 C 
ATOM      8  C   UNL     1       1.976   0.345   2.005  0.00  0.00    +0.121 C 
ATOM      9  C   UNL     1       2.536  -1.065   2.012  0.00  0.00    +0.149 C 
ATOM     10  N   UNL     1       2.801  -1.401   0.809  0.00  0.00    -0.077 NA
ATOM     11  O   UNL     1       2.494  -0.390  -0.131  0.00  0.00    -0.387 OA
ATOM     12 CL   UNL     1       2.776  -2.055   3.418  0.00  0.00    -0.063 Cl
ENDBRANCH   6   7
BRANCH   6  13
ATOM     13  C   UNL     1       1.602   2.087  -1.417  0.00  0.00    +0.380 C 
ATOM     14  O   UNL     1       0.878   1.758  -2.327  0.00  0.00    -0.244 OA
ATOM     15  OXT UNL     1       2.723   2.782  -1.669  0.00  0.00    -0.244 OA
ENDBRANCH   6  13
ENDBRANCH   4   6
ENDBRANCH   1   2
BRANCH   1  16
ATOM     16  C   UNL     1      -3.572   1.709   0.028  0.00  0.00    +0.246 C 
BRANCH  16  29
ATOM     17  C   UNL     1      -5.514  -1.077  -3.736  0.00  0.00    +0.001 A 
ATOM     18  C   UNL     1      -4.309  -1.394  -3.137  0.00  0.00    +0.000 A 
ATOM     19  C   UNL     1      -3.978  -0.846  -1.910  0.00  0.00    +0.005 A 
ATOM     20  C   UNL     1      -4.849   0.018  -1.282  0.00  0.00    -0.029 A 
ATOM     21  C   UNL     1      -6.065   0.345  -1.879  0.00  0.00    -0.014 A 
ATOM     22  C   UNL     1      -6.392  -0.212  -3.116  0.00  0.00    +0.009 A 
ATOM     23  C   UNL     1      -6.808   1.286  -1.003  0.00  0.00    -0.014 A 
ATOM     24  C   UNL     1      -8.055   1.894  -1.156  0.00  0.00    +0.009 A 
ATOM     25  C   UNL     1      -8.531   2.744  -0.180  0.00  0.00    +0.001 A 
ATOM     26  C   UNL     1      -7.777   2.998   0.952  0.00  0.00    +0.000 A 
ATOM     27  C   UNL     1      -6.540   2.399   1.110  0.00  0.00    +0.005 A 
ATOM     28  C   UNL     1      -6.056   1.547   0.139  0.00  0.00    -0.029 A 
ATOM     29  C   UNL     1      -4.773   0.761   0.029  0.00  0.00    +0.088 C 
ENDBRANCH  16  29
ENDBRANCH   1  16
TORSDOF 6
