REMARK  Name = ZINC35832786
REMARK  7 active torsions:
REMARK  status: ('A' for Active; 'I' for Inactive)
REMARK    1  A    between atoms: C_6  and  C_7
REMARK    2  A    between atoms: C_7  and  S_8
REMARK    3  A    between atoms: S_8  and  C_9
REMARK    4  A    between atoms: C_9  and  C_10
REMARK    5  A    between atoms: N_12  and  C_13
REMARK    6  A    between atoms: C_15  and  N_20
REMARK    7  A    between atoms: C_18  and  O_19
REMARK                            x       y       z     vdW  Elec       q    Type
REMARK                         _______ _______ _______ _____ _____    ______ ____
ROOT
ATOM      1  C   UNL     1      -3.935  -2.324  -2.876  0.00  0.00    +0.227 C 
ATOM      2  O   UNL     1      -3.348  -1.959  -3.873  0.00  0.00    -0.275 OA
ATOM      3  N   UNL     1      -5.093  -3.004  -2.986  0.00  0.00    -0.282 N 
ATOM      4  H   UNL     1      -5.529  -3.351  -2.193  0.00  0.00    +0.155 HD
ENDROOT
BRANCH   3   5
ATOM      5  C   UNL     1      -5.668  -3.208  -4.248  0.00  0.00    +0.078 A 
ATOM      6  C   UNL     1      -4.859  -3.401  -5.358  0.00  0.00    +0.059 A 
ATOM      7  C   UNL     1      -5.428  -3.603  -6.601  0.00  0.00    +0.128 A 
ATOM      8  C   UNL     1      -6.803  -3.613  -6.742  0.00  0.00    +0.036 A 
ATOM      9  C   UNL     1      -7.616  -3.421  -5.641  0.00  0.00    +0.049 A 
ATOM     10  C   UNL     1      -7.054  -3.224  -4.390  0.00  0.00    +0.138 A 
BRANCH   7  11
ATOM     11  N   UNL     1      -4.563  -3.808  -7.784  0.00  0.00    +0.056 N 
ATOM     12  O   UNL     1      -3.360  -3.799  -7.663  0.00  0.00    -0.126 OA
ATOM     13  O   UNL     1      -5.059  -3.985  -8.873  0.00  0.00    -0.126 OA
ENDBRANCH   7  11
BRANCH  10  14
ATOM     14  O   UNL     1      -7.852  -3.042  -3.304  0.00  0.00    -0.505 OA
ATOM     15  H   UNL     1      -8.079  -2.117  -3.134  0.00  0.00    +0.292 HD
ENDBRANCH  10  14
ENDBRANCH   3   5
BRANCH   1  16
ATOM     16  C   UNL     1      -3.369  -2.016  -1.514  0.00  0.00    +0.165 C 
BRANCH  16  17
ATOM     17  S   UNL     1      -1.815  -1.098  -1.698  0.00  0.00    -0.147 S 
BRANCH  17  18
ATOM     18  C   UNL     1      -1.270  -0.810   0.008  0.00  0.00    +0.104 C 
BRANCH  18  24
ATOM     19  C   UNL     1       0.017   1.336   0.014  0.00  0.00    +0.006 A 
ATOM     20  C   UNL     1       1.207   2.038   0.006  0.00  0.00    +0.020 A 
ATOM     21  C   UNL     1       2.411   1.357  -0.018  0.00  0.00    +0.041 A 
ATOM     22  C   UNL     1       2.422  -0.026  -0.033  0.00  0.00    +0.020 A 
ATOM     23  C   UNL     1       1.231  -0.727  -0.025  0.00  0.00    +0.006 A 
ATOM     24  C   UNL     1       0.028  -0.046  -0.001  0.00  0.00    -0.037 A 
ATOM     25 CL   UNL     1       3.907   2.238  -0.029  0.00  0.00    -0.084 Cl
ENDBRANCH  18  24
ENDBRANCH  17  18
ENDBRANCH  16  17
ENDBRANCH   1  16
TORSDOF 7
