REMARK  Name = ZINC19908735
REMARK  3 active torsions:
REMARK  status: ('A' for Active; 'I' for Inactive)
REMARK    1  A    between atoms: C_1  and  C_2
REMARK    2  A    between atoms: C_15  and  C_22
REMARK    3  A    between atoms: C_18  and  O_21
REMARK                            x       y       z     vdW  Elec       q    Type
REMARK                         _______ _______ _______ _____ _____    ______ ____
ROOT
ATOM      1  C   UNL     1      -4.313   0.617  -0.031  0.00  0.00    +0.047 C 
ATOM      2  C   UNL     1      -2.845   0.959  -0.012  0.00  0.00    -0.012 C 
ATOM      3  C   UNL     1      -2.220   1.236  -1.150  0.00  0.00    -0.020 C 
ATOM      4  C   UNL     1      -0.756   1.595  -1.227  0.00  0.00    +0.032 C 
ATOM      5  C   UNL     1      -0.013   1.086   0.008  0.00  0.00    +0.009 C 
ATOM      6  C   UNL     1      -0.730   1.584   1.272  0.00  0.00    +0.064 C 
ATOM      7  C   UNL     1      -2.121   0.982   1.263  0.00  0.00    +0.162 C 
ATOM      8  O   UNL     1      -2.618   0.536   2.276  0.00  0.00    -0.292 OA
ATOM      9  C   UNL     1       0.013   1.080   2.507  0.00  0.00    +0.012 C 
ATOM     10  C   UNL     1       1.448   1.611   2.495  0.00  0.00    +0.005 C 
ATOM     11  C   UNL     1       2.163   1.115   1.237  0.00  0.00    -0.002 C 
ATOM     12  C   UNL     1       1.421   1.618  -0.003  0.00  0.00    -0.025 C 
ATOM     13  C   UNL     1       1.399   3.148   0.004  0.00  0.00    +0.010 C 
ATOM     14  C   UNL     1       2.835   3.678  -0.014  0.00  0.00    +0.032 C 
ATOM     15  C   UNL     1       3.576   3.176   1.226  0.00  0.00    +0.115 C 
ATOM     16  C   UNL     1       3.598   1.646   1.223  0.00  0.00    +0.035 C 
ATOM     17  C   UNL     1       2.138   1.124  -1.261  0.00  0.00    +0.012 C 
ENDROOT
BRANCH  15  18
ATOM     18  O   UNL     1       4.917   3.671   1.213  0.00  0.00    -0.392 OA
ATOM     19  H   UNL     1       5.607   3.413   2.030  0.00  0.00    +0.210 HD
ENDBRANCH  15  18
TORSDOF 1
