REMARK  Name = ZINC19848804
REMARK  13 active torsions:
REMARK  status: ('A' for Active; 'I' for Inactive)
REMARK    1  A    between atoms: C_1  and  C_2
REMARK    2  A    between atoms: C_2  and  C_3
REMARK    3  A    between atoms: C_3  and  C_4
REMARK    4  A    between atoms: C_4  and  N_5
REMARK    5  A    between atoms: C_10  and  C_25
REMARK    6  A    between atoms: C_13  and  C_18
REMARK    7  A    between atoms: C_13  and  C_22
REMARK    8  A    between atoms: C_18  and  C_19
REMARK    9  A    between atoms: C_19  and  C_20
REMARK   10  A    between atoms: C_19  and  C_21
REMARK   11  A    between atoms: C_28  and  O_32
REMARK   12  A    between atoms: C_30  and  O_31
REMARK   13  A    between atoms: O_32  and  C_33
REMARK                            x       y       z     vdW  Elec       q    Type
REMARK                         _______ _______ _______ _____ _____    ______ ____
ROOT
ATOM      1  N   UNL     1      -2.123  -2.536  -0.879  0.00  0.00    -0.242 N 
ATOM      2  C   UNL     1      -2.603  -2.613   0.367  0.00  0.00    +0.224 C 
ATOM      3  O   UNL     1      -1.945  -2.508   1.379  0.00  0.00    -0.275 OA
ATOM      4  C   UNL     1      -4.096  -2.851   0.316  0.00  0.00    +0.077 C 
ATOM      5  C   UNL     1      -4.402  -4.269   0.841  0.00  0.00    -0.023 C 
ATOM      6  N   UNL     1      -4.257  -5.151  -0.346  0.00  0.00    +0.396 N 
ATOM      7  C   UNL     1      -4.856  -4.368  -1.456  0.00  0.00    +0.048 C 
ATOM      8  C   UNL     1      -4.399  -2.899  -1.206  0.00  0.00    +0.086 C 
ATOM      9  C   UNL     1      -3.045  -2.676  -1.839  0.00  0.00    +0.225 C 
ATOM     10  O   UNL     1      -2.827  -2.635  -3.031  0.00  0.00    -0.275 OA
ATOM     11  H   UNL     1      -3.282  -5.336  -0.531  0.00  0.00    -0.083 HD
ATOM     12  H   UNL     1      -4.762  -6.013  -0.209  0.00  0.00    -0.083 HD
ENDROOT
BRANCH   5  13
ATOM     13  C   UNL     1      -3.414  -4.658   1.910  0.00  0.00    -0.019 A 
ATOM     14  C   UNL     1      -2.334  -5.461   1.594  0.00  0.00    +0.009 A 
ATOM     15  C   UNL     1      -1.427  -5.819   2.572  0.00  0.00    +0.046 A 
ATOM     16  C   UNL     1      -1.597  -5.373   3.876  0.00  0.00    +0.124 A 
ATOM     17  C   UNL     1      -2.679  -4.567   4.195  0.00  0.00    +0.091 A 
ATOM     18  C   UNL     1      -3.586  -4.205   3.211  0.00  0.00    +0.122 A 
BRANCH  18  19
ATOM     19  O   UNL     1      -4.644  -3.410   3.520  0.00  0.00    -0.506 OA
ATOM     20  H   UNL     1      -5.433  -3.896   3.795  0.00  0.00    +0.292 HD
ENDBRANCH  18  19
BRANCH  16  21
ATOM     21  O   UNL     1      -0.705  -5.726   4.838  0.00  0.00    -0.495 OA
ATOM     22  C   UNL     1       0.386  -6.558   4.437  0.00  0.00    +0.277 C 
ENDBRANCH  16  21
ENDBRANCH   5  13
BRANCH   7  23
ATOM     23  C   UNL     1      -6.360  -4.458  -1.410  0.00  0.00    +0.346 C 
ATOM     24  O   UNL     1      -6.908  -5.033  -0.486  0.00  0.00    -0.248 OA
ATOM     25  O   UNL     1      -7.028  -3.955  -2.297  0.00  0.00    -0.248 OA
ENDBRANCH   7  23
BRANCH   1  26
ATOM     26  C   UNL     1      -0.705  -2.309  -1.169  0.00  0.00    +0.116 C 
BRANCH  26  27
ATOM     27  C   UNL     1      -0.437  -0.806  -1.262  0.00  0.00    +0.019 C 
BRANCH  27  29
ATOM     28  C   UNL     1       1.312   0.934  -1.658  0.00  0.00    +0.004 C 
ATOM     29  C   UNL     1       1.044  -0.570  -1.565  0.00  0.00    -0.002 C 
ENDBRANCH  27  29
ENDBRANCH  26  27
ENDBRANCH   1  26
BRANCH   7  30
ATOM     30  C   UNL     1      -4.332  -4.867  -2.804  0.00  0.00    +0.002 C 
BRANCH  30  31
ATOM     31  C   UNL     1      -4.582  -6.372  -2.922  0.00  0.00    -0.018 C 
ATOM     32  C   UNL     1      -6.087  -6.637  -2.982  0.00  0.00    +0.007 C 
ATOM     33  C   UNL     1      -3.920  -6.900  -4.197  0.00  0.00    +0.007 C 
ENDBRANCH  30  31
ENDBRANCH   7  30
TORSDOF 9
