REMARK  Name = ZINC04061881
REMARK  4 active torsions:
REMARK  status: ('A' for Active; 'I' for Inactive)
REMARK    1  A    between atoms: C_7  and  C_12
REMARK    2  A    between atoms: C_12  and  O_13
REMARK    3  A    between atoms: O_13  and  C_14
REMARK    4  A    between atoms: C_14  and  C_16
REMARK                            x       y       z     vdW  Elec       q    Type
REMARK                         _______ _______ _______ _____ _____    ______ ____
ROOT
ATOM      1  O   UNL     1      -0.522   1.431  -3.684  0.00  0.00    -0.464 OA
ENDROOT
BRANCH   1   2
ATOM      2  C   UNL     1      -0.047   1.107  -2.471  0.00  0.00    +0.313 C 
ATOM      3  O   UNL     1       0.945   0.425  -2.374  0.00  0.00    -0.250 OA
BRANCH   2   4
ATOM      4  C   UNL     1      -0.753   1.593  -1.232  0.00  0.00    +0.070 C 
ATOM      5  C   UNL     1      -0.013   1.086   0.008  0.00  0.00    +0.021 C 
ATOM      6  C   UNL     1      -0.729   1.579   1.267  0.00  0.00    -0.008 C 
ATOM      7  C   UNL     1      -2.164   1.050   1.278  0.00  0.00    +0.007 C 
ATOM      8  C   UNL     1      -2.904   1.556   0.038  0.00  0.00    -0.008 C 
ATOM      9  C   UNL     1      -2.188   1.063  -1.221  0.00  0.00    +0.021 C 
ATOM     10  C   UNL     1      -2.925   3.086   0.047  0.00  0.00    +0.026 C 
ATOM     11  C   UNL     1      -1.490   3.616   0.036  0.00  0.00    +0.047 C 
ATOM     12  C   UNL     1      -0.750   3.109   1.275  0.00  0.00    +0.026 C 
ATOM     13  C   UNL     1      -0.773   3.123  -1.223  0.00  0.00    +0.041 C 
ATOM     14 CL   UNL     1      -1.514   5.419   0.046  0.00  0.00    -0.118 Cl
ENDBRANCH   2   4
ENDBRANCH   1   2
BRANCH   1  15
ATOM     15  C   UNL     1       0.208   0.928  -4.834  0.00  0.00    +0.234 C 
BRANCH  15  22
ATOM     16  C   UNL     1       0.878  -1.432  -8.338  0.00  0.00    -0.003 C 
ATOM     17  C   UNL     1       2.328  -0.939  -8.365  0.00  0.00    -0.019 C 
ATOM     18  C   UNL     1       2.330   0.581  -8.516  0.00  0.00    -0.078 C 
ATOM     19  C   UNL     1       1.721   2.667  -7.497  0.00  0.00    -0.078 C 
ATOM     20  C   UNL     1       1.080   3.331  -6.279  0.00  0.00    -0.018 C 
ATOM     21  C   UNL     1      -0.395   2.922  -6.211  0.00  0.00    +0.003 C 
ATOM     22  C   UNL     1      -0.477   1.398  -6.119  0.00  0.00    +0.013 C 
ATOM     23  C   UNL     1       0.219   0.765  -7.328  0.00  0.00    -0.062 C 
ATOM     24  C   UNL     1       0.153  -0.758  -7.172  0.00  0.00    -0.015 C 
ATOM     25  N   UNL     1       1.638   1.202  -7.371  0.00  0.00    +0.382 N 
ATOM     26  H   UNL     1       2.101   0.913  -6.501  0.00  0.00    -0.081 HD
ENDBRANCH  15  22
ENDBRANCH   1  15
TORSDOF 4
