REMARK  Name = ZINC56061970
REMARK  5 active torsions:
REMARK  status: ('A' for Active; 'I' for Inactive)
REMARK    1  A    between atoms: C_3  and  S_15
REMARK    2  A    between atoms: C_6  and  N_7
REMARK    3  A    between atoms: C_8  and  C_10
REMARK    4  A    between atoms: S_15  and  N_18
REMARK    5  A    between atoms: N_18  and  C_19
REMARK                            x       y       z     vdW  Elec       q    Type
REMARK                         _______ _______ _______ _____ _____    ______ ____
ROOT
ATOM      1  C   UNL     1       0.193   1.298  -0.459  0.00  0.00    +0.025 A 
ATOM      2  C   UNL     1       1.352   2.046  -0.391  0.00  0.00    +0.030 A 
ATOM      3  C   UNL     1       2.564   1.425  -0.151  0.00  0.00    +0.109 A 
ATOM      4  C   UNL     1       2.620   0.054   0.022  0.00  0.00    +0.030 A 
ATOM      5  C   UNL     1       1.464  -0.700  -0.044  0.00  0.00    +0.025 A 
ATOM      6  C   UNL     1       0.245  -0.079  -0.285  0.00  0.00    +0.034 A 
ENDROOT
BRANCH   6   7
ATOM      7  N   UNL     1      -0.927  -0.839  -0.352  0.00  0.00    -0.280 N 
ATOM      8  C   UNL     1      -1.913  -0.483  -1.200  0.00  0.00    +0.269 C 
ATOM      9  O   UNL     1      -1.749   0.445  -1.968  0.00  0.00    -0.268 OA
ATOM     10  H   UNL     1      -1.030  -1.622   0.211  0.00  0.00    +0.155 HD
BRANCH   8  11
ATOM     11  C   UNL     1      -3.190  -1.220  -1.195  0.00  0.00    +0.156 A 
ATOM     12  C   UNL     1      -4.240  -0.909  -2.042  0.00  0.00    +0.101 A 
ATOM     13  S   UNL     1      -5.392  -2.047  -1.597  0.00  0.00    +0.029 S 
ATOM     14  N   UNL     1      -4.574  -2.825  -0.439  0.00  0.00    -0.110 NA
ATOM     15  N   UNL     1      -3.431  -2.240  -0.382  0.00  0.00    -0.136 NA
ENDBRANCH   8  11
ENDBRANCH   6   7
BRANCH   3  16
ATOM     16  S   UNL     1       4.041   2.382  -0.067  0.00  0.00    +0.072 S 
ATOM     17  O   UNL     1       5.122   1.480  -0.260  0.00  0.00    -0.150 OA
ATOM     18  O   UNL     1       3.837   3.517  -0.898  0.00  0.00    -0.150 OA
BRANCH  16  19
ATOM     19  N   UNL     1       4.169   2.949   1.484  0.00  0.00    -0.216 N 
ATOM     20  H   UNL     1       4.899   2.652   2.050  0.00  0.00    +0.174 HD
BRANCH  19  21
ATOM     21  C   UNL     1       3.226   3.855   1.977  0.00  0.00    +0.048 A 
ATOM     22  C   UNL     1       2.845   4.948   1.210  0.00  0.00    +0.026 A 
ATOM     23  C   UNL     1       1.912   5.841   1.700  0.00  0.00    +0.022 A 
ATOM     24  C   UNL     1       1.359   5.648   2.954  0.00  0.00    +0.041 A 
ATOM     25  C   UNL     1       1.737   4.560   3.720  0.00  0.00    +0.022 A 
ATOM     26  C   UNL     1       2.665   3.660   3.233  0.00  0.00    +0.026 A 
ATOM     27 CL   UNL     1       0.188   6.774   3.566  0.00  0.00    -0.084 Cl
ENDBRANCH  19  21
ENDBRANCH  16  19
ENDBRANCH   3  16
TORSDOF 5
