REMARK  Name = ZINC34776921
REMARK  13 active torsions:
REMARK  status: ('A' for Active; 'I' for Inactive)
REMARK    1  A    between atoms: C_1  and  C_2
REMARK    2  A    between atoms: C_2  and  O_3
REMARK    3  A    between atoms: O_3  and  C_4
REMARK    4  A    between atoms: C_4  and  C_6
REMARK    5  A    between atoms: C_7  and  C_37
REMARK    6  A    between atoms: N_11  and  C_26
REMARK    7  A    between atoms: N_14  and  C_17
REMARK    8  A    between atoms: C_17  and  C_18
REMARK    9  A    between atoms: C_21  and  C_25
REMARK   10  A    between atoms: C_23  and  C_24
REMARK   11  A    between atoms: C_26  and  C_27
REMARK   12  A    between atoms: N_29  and  C_30
REMARK   13  A    between atoms: C_30  and  C_31
REMARK                            x       y       z     vdW  Elec       q    Type
REMARK                         _______ _______ _______ _____ _____    ______ ____
ROOT
ATOM      1  C   UNL     1       1.514  -2.417   2.470  0.00  0.00    +0.102 A 
ATOM      2  C   UNL     1       1.731  -3.724   2.800  0.00  0.00    -0.015 A 
ATOM      3  C   UNL     1       2.429  -3.976   3.987  0.00  0.00    +0.074 A 
ATOM      4  C   UNL     1       2.802  -5.282   4.583  0.00  0.00    +0.266 A 
ATOM      5  O   UNL     1       2.498  -6.322   4.028  0.00  0.00    -0.267 OA
ATOM      6  N   UNL     1       3.480  -5.303   5.744  0.00  0.00    -0.251 N 
ATOM      7  C   UNL     1       3.830  -4.173   6.380  0.00  0.00    +0.334 A 
ATOM      8  O   UNL     1       4.442  -4.247   7.428  0.00  0.00    -0.246 OA
ATOM      9  N   UNL     1       3.518  -2.962   5.884  0.00  0.00    -0.283 N 
ATOM     10  C   UNL     1       2.830  -2.843   4.710  0.00  0.00    +0.098 A 
ATOM     11  S   UNL     1       2.289  -1.540   3.813  0.00  0.00    -0.063 S 
ATOM     12  C   UNL     1       1.240  -4.848   1.923  0.00  0.00    +0.046 C 
ENDROOT
BRANCH   1  13
ATOM     13  C   UNL     1       0.822  -1.872   1.302  0.00  0.00    +0.346 C 
ATOM     14  O   UNL     1       0.346  -2.623   0.472  0.00  0.00    -0.244 OA
BRANCH  13  15
ATOM     15  O   UNL     1       0.712  -0.536   1.146  0.00  0.00    -0.461 OA
BRANCH  15  17
ATOM     16  C   UNL     1       0.000   1.456  -0.023  0.00  0.00    +0.048 C 
ATOM     17  C   UNL     1       0.024  -0.074  -0.018  0.00  0.00    +0.229 C 
ENDBRANCH  15  17
ENDBRANCH  13  15
ENDBRANCH   1  13
BRANCH   9  18
ATOM     18  C   UNL     1       3.920  -1.756   6.613  0.00  0.00    +0.162 C 
BRANCH  18  19
ATOM     19  C   UNL     1       5.331  -1.387   6.232  0.00  0.00    -0.025 A 
ATOM     20  C   UNL     1       5.986  -2.091   5.239  0.00  0.00    +0.006 A 
ATOM     21  C   UNL     1       7.279  -1.752   4.890  0.00  0.00    +0.004 A 
ATOM     22  C   UNL     1       7.918  -0.708   5.533  0.00  0.00    -0.050 A 
ATOM     23  C   UNL     1       7.263  -0.003   6.525  0.00  0.00    +0.007 A 
ATOM     24  C   UNL     1       5.967  -0.339   6.871  0.00  0.00    -0.045 A 
ATOM     25  C   UNL     1       5.251   0.433   7.949  0.00  0.00    +0.044 C 
ATOM     26  C   UNL     1       9.329  -0.339   5.153  0.00  0.00    +0.044 C 
ENDBRANCH  18  19
ENDBRANCH   9  18
BRANCH   6  27
ATOM     27  C   UNL     1       3.847  -6.594   6.331  0.00  0.00    +0.225 C 
BRANCH  27  28
ATOM     28  C   UNL     1       5.200  -7.014   5.816  0.00  0.00    +0.233 C 
ATOM     29  O   UNL     1       5.798  -6.304   5.036  0.00  0.00    -0.274 OA
ATOM     30  N   UNL     1       5.745  -8.177   6.223  0.00  0.00    -0.310 N 
ATOM     31  H   UNL     1       5.266  -8.745   6.848  0.00  0.00    +0.149 HD
BRANCH  30  32
ATOM     32  C   UNL     1       7.060  -8.585   5.723  0.00  0.00    +0.139 C 
BRANCH  32  33
ATOM     33  C   UNL     1       7.437  -9.913   6.327  0.00  0.00    -0.030 A 
ATOM     34  C   UNL     1       8.130  -9.957   7.523  0.00  0.00    +0.005 A 
ATOM     35  C   UNL     1       8.476 -11.175   8.077  0.00  0.00    +0.000 A 
ATOM     36  C   UNL     1       8.130 -12.349   7.436  0.00  0.00    +0.000 A 
ATOM     37  C   UNL     1       7.437 -12.306   6.240  0.00  0.00    +0.000 A 
ATOM     38  C   UNL     1       7.087 -11.088   5.688  0.00  0.00    +0.005 A 
ENDBRANCH  32  33
ENDBRANCH  30  32
ENDBRANCH  27  28
ENDBRANCH   6  27
TORSDOF 9
