REMARK  Name = ZINC12566626
REMARK  13 active torsions:
REMARK  status: ('A' for Active; 'I' for Inactive)
REMARK    1  A    between atoms: C_1  and  C_2
REMARK    2  A    between atoms: C_2  and  C_3
REMARK    3  A    between atoms: C_3  and  N_4
REMARK    4  A    between atoms: C_13  and  S_14
REMARK    5  A    between atoms: S_14  and  C_15
REMARK    6  A    between atoms: C_15  and  C_16
REMARK    7  A    between atoms: C_16  and  C_18
REMARK    8  A    between atoms: C_19  and  C_30
REMARK    9  A    between atoms: C_20  and  C_25
REMARK   10  A    between atoms: C_21  and  C_24
REMARK   11  A    between atoms: C_25  and  O_27
REMARK   12  A    between atoms: O_27  and  C_28
REMARK   13  A    between atoms: C_28  and  C_29
REMARK                            x       y       z     vdW  Elec       q    Type
REMARK                         _______ _______ _______ _____ _____    ______ ____
ROOT
ATOM      1  N   UNL     1      -1.413  -1.998   0.005  0.00  0.00    -0.287 N 
ATOM      2  C   UNL     1      -1.393  -2.665   1.174  0.00  0.00    +0.263 A 
ATOM      3  O   UNL     1      -1.391  -2.058   2.231  0.00  0.00    -0.267 OA
ATOM      4  C   UNL     1      -1.374  -4.096   1.159  0.00  0.00    +0.076 A 
ATOM      5  C   UNL     1      -1.350  -5.014   2.298  0.00  0.00    -0.023 A 
ATOM      6  C   UNL     1      -1.335  -6.334   2.020  0.00  0.00    -0.004 A 
ATOM      7  S   UNL     1      -1.351  -6.432   0.251  0.00  0.00    -0.073 S 
ATOM      8  C   UNL     1      -1.378  -4.694  -0.112  0.00  0.00    +0.117 A 
ATOM      9  N   UNL     1      -1.398  -3.978  -1.230  0.00  0.00    -0.216 NA
ATOM     10  C   UNL     1      -1.421  -2.662  -1.188  0.00  0.00    +0.173 A 
ATOM     11  C   UNL     1      -1.309  -7.467   3.000  0.00  0.00    +0.043 C 
ATOM     12  C   UNL     1      -0.928  -6.908   4.378  0.00  0.00    +0.005 C 
ATOM     13  C   UNL     1      -1.780  -5.666   4.657  0.00  0.00    +0.005 C 
ATOM     14  C   UNL     1      -1.344  -4.521   3.743  0.00  0.00    +0.037 C 
ENDROOT
BRANCH   1  15
ATOM     15  C   UNL     1      -1.433  -0.534   0.013  0.00  0.00    +0.127 C 
BRANCH  15  17
ATOM     16  C   UNL     1      -0.019   1.526   0.010  0.00  0.00    +0.005 C 
ATOM     17  C   UNL     1       0.002  -0.004   0.002  0.00  0.00    +0.018 C 
ENDBRANCH  15  17
ENDBRANCH   1  15
BRANCH  10  18
ATOM     18  S   UNL     1      -1.455  -1.744  -2.692  0.00  0.00    -0.080 S 
BRANCH  18  19
ATOM     19  C   UNL     1      -1.454  -3.102  -3.889  0.00  0.00    +0.158 C 
BRANCH  19  20
ATOM     20  C   UNL     1      -1.481  -2.540  -5.287  0.00  0.00    +0.190 C 
ATOM     21  O   UNL     1      -1.500  -1.338  -5.457  0.00  0.00    -0.290 OA
BRANCH  20  22
ATOM     22  C   UNL     1      -1.485  -3.413  -6.401  0.00  0.00    +0.087 A 
ATOM     23  C   UNL     1      -1.514  -3.035  -7.726  0.00  0.00    -0.008 A 
ATOM     24  C   UNL     1      -1.504  -4.222  -8.489  0.00  0.00    +0.083 A 
ATOM     25  C   UNL     1      -1.478  -5.281  -7.599  0.00  0.00    +0.028 A 
ATOM     26  N   UNL     1      -1.466  -4.792  -6.350  0.00  0.00    -0.355 N 
ATOM     27  H   UNL     1      -1.448  -5.324  -5.539  0.00  0.00    +0.166 HD
ATOM     28  C   UNL     1      -1.464  -6.742  -7.971  0.00  0.00    +0.064 C 
ATOM     29  C   UNL     1      -1.548  -1.625  -8.257  0.00  0.00    +0.047 C 
BRANCH  24  30
ATOM     30  C   UNL     1      -1.524  -4.316  -9.959  0.00  0.00    +0.341 C 
ATOM     31  O   UNL     1      -2.585  -4.368 -10.550  0.00  0.00    -0.245 OA
BRANCH  30  32
ATOM     32  O   UNL     1      -0.367  -4.344 -10.648  0.00  0.00    -0.461 OA
BRANCH  32  33
ATOM     33  C   UNL     1      -0.463  -4.438 -12.094  0.00  0.00    +0.229 C 
ATOM     34  C   UNL     1       0.943  -4.457 -12.698  0.00  0.00    +0.048 C 
ENDBRANCH  32  33
ENDBRANCH  30  32
ENDBRANCH  24  30
ENDBRANCH  20  22
ENDBRANCH  19  20
ENDBRANCH  18  19
ENDBRANCH  10  18
TORSDOF 9
