REMARK  Name = ZINC62334489
REMARK  3 active torsions:
REMARK  status: ('A' for Active; 'I' for Inactive)
REMARK    1  A    between atoms: C_3  and  C_6
REMARK    2  A    between atoms: C_6  and  C_8
REMARK    3  A    between atoms: C_6  and  O_17
REMARK                            x       y       z     vdW  Elec       q    Type
REMARK                         _______ _______ _______ _____ _____    ______ ____
ROOT
ATOM      1  C   UNL     1       4.262   1.906  -1.444  0.00  0.00    -0.014 A 
ATOM      2  C   UNL     1       4.701   0.755  -2.072  0.00  0.00    +0.007 A 
ATOM      3  C   UNL     1       5.160   0.809  -3.375  0.00  0.00    +0.006 A 
ATOM      4  C   UNL     1       5.180   2.013  -4.048  0.00  0.00    -0.017 A 
ATOM      5  C   UNL     1       4.739   3.167  -3.420  0.00  0.00    -0.016 A 
ATOM      6  C   UNL     1       4.276   3.112  -2.121  0.00  0.00    +0.012 A 
ATOM      7  C   UNL     1       4.886   4.300  -4.408  0.00  0.00    +0.195 C 
ATOM      8  O   UNL     1       5.793   3.827  -5.421  0.00  0.00    -0.371 OA
ATOM      9  C   UNL     1       5.612   2.399  -5.444  0.00  0.00    +0.195 C 
ENDROOT
BRANCH   1  10
ATOM     10  C   UNL     1       3.761   1.845  -0.024  0.00  0.00    +0.181 C 
BRANCH  10  13
ATOM     11  C   UNL     1      -0.016   1.351   0.009  0.00  0.00    +0.008 A 
ATOM     12  C   UNL     1       1.183   2.038   0.002  0.00  0.00    +0.014 A 
ATOM     13  C   UNL     1       2.343   1.336  -0.013  0.00  0.00    +0.022 A 
ATOM     14  S   UNL     1       1.754  -0.349  -0.017  0.00  0.00    -0.099 S 
ATOM     15  C   UNL     1       0.002  -0.004   0.002  0.00  0.00    +0.045 A 
ENDBRANCH  10  13
BRANCH  10  16
ATOM     16  O   UNL     1       4.590   0.964   0.736  0.00  0.00    -0.382 OA
ATOM     17  H   UNL     1       4.610   0.057   0.402  0.00  0.00    +0.211 HD
ENDBRANCH  10  16
ENDBRANCH   1  10
TORSDOF 3
