REMARK  Name = ZINC40317882
REMARK  13 active torsions:
REMARK  status: ('A' for Active; 'I' for Inactive)
REMARK    1  A    between atoms: C_1  and  C_2
REMARK    2  A    between atoms: C_2  and  C_3
REMARK    3  A    between atoms: C_2  and  C_4
REMARK    4  A    between atoms: C_2  and  C_5
REMARK    5  A    between atoms: C_8  and  C_11
REMARK    6  A    between atoms: C_11  and  N_12
REMARK    7  A    between atoms: N_12  and  C_13
REMARK    8  A    between atoms: N_12  and  C_27
REMARK    9  A    between atoms: C_13  and  C_14
REMARK   10  A    between atoms: C_14  and  C_16
REMARK   11  A    between atoms: C_14  and  O_26
REMARK   12  A    between atoms: C_16  and  O_17
REMARK   13  A    between atoms: O_17  and  C_18
REMARK                            x       y       z     vdW  Elec       q    Type
REMARK                         _______ _______ _______ _____ _____    ______ ____
ROOT
ATOM      1  N   UNL     1       2.706  -0.848  -5.640  0.00  0.00    +0.387 N 
ATOM      2  H   UNL     1       3.005   0.039  -5.263  0.00  0.00    -0.081 HD
ENDROOT
BRANCH   1   3
ATOM      3  C   UNL     1       1.250  -0.977  -5.491  0.00  0.00    -0.045 C 
ATOM      4  C   UNL     1       0.815  -0.412  -4.128  0.00  0.00    +0.009 C 
ATOM      5  C   UNL     1      -0.644  -0.828  -3.826  0.00  0.00    +0.164 C 
ATOM      6  S   UNL     1      -0.812  -2.411  -4.747  0.00  0.00    -0.033 S 
ATOM      7  O   UNL     1      -1.802  -2.257  -5.755  0.00  0.00    -0.174 OA
ATOM      8  O   UNL     1      -0.923  -3.479  -3.815  0.00  0.00    -0.174 OA
ATOM      9  C   UNL     1       0.848  -2.479  -5.542  0.00  0.00    +0.151 C 
ENDBRANCH   1   3
BRANCH   1  10
ATOM     10  C   UNL     1       3.371  -1.938  -4.915  0.00  0.00    -0.042 C 
BRANCH  10  14
ATOM     11  C   UNL     1       2.834  -1.392  -0.712  0.00  0.00    -0.042 A 
ATOM     12  C   UNL     1       2.011  -2.257  -1.407  0.00  0.00    +0.004 A 
ATOM     13  C   UNL     1       2.184  -2.434  -2.767  0.00  0.00    +0.002 A 
ATOM     14  C   UNL     1       3.181  -1.745  -3.432  0.00  0.00    -0.064 A 
ATOM     15  C   UNL     1       4.004  -0.879  -2.737  0.00  0.00    +0.002 A 
ATOM     16  C   UNL     1       3.828  -0.699  -1.378  0.00  0.00    +0.004 A 
BRANCH  11  18
ATOM     17  C   UNL     1       2.327   0.270   1.057  0.00  0.00    +0.015 C 
ATOM     18  C   UNL     1       2.645  -1.199   0.770  0.00  0.00    -0.013 C 
ATOM     19  C   UNL     1       3.928  -1.596   1.504  0.00  0.00    +0.015 C 
ATOM     20  C   UNL     1       1.488  -2.075   1.255  0.00  0.00    +0.015 C 
ENDBRANCH  11  18
ENDBRANCH  10  14
ENDBRANCH   1  10
BRANCH   1  21
ATOM     21  C   UNL     1       3.060  -0.919  -7.064  0.00  0.00    -0.043 C 
BRANCH  21  22
ATOM     22  C   UNL     1       2.717   0.409  -7.742  0.00  0.00    +0.135 C 
BRANCH  22  23
ATOM     23  O   UNL     1       1.298   0.574  -7.776  0.00  0.00    -0.390 OA
ATOM     24  H   UNL     1       0.829  -0.146  -8.219  0.00  0.00    +0.210 HD
ENDBRANCH  22  23
BRANCH  22  25
ATOM     25  C   UNL     1       3.265   0.409  -9.170  0.00  0.00    +0.258 C 
BRANCH  25  26
ATOM     26  O   UNL     1       3.048   1.691  -9.764  0.00  0.00    -0.488 OA
BRANCH  26  27
ATOM     27  C   UNL     1       3.479   1.860 -11.042  0.00  0.00    +0.139 A 
ATOM     28  C   UNL     1       4.094   0.813 -11.712  0.00  0.00    +0.048 A 
ATOM     29  C   UNL     1       4.532   0.987 -13.011  0.00  0.00    +0.023 A 
ATOM     30  C   UNL     1       4.358   2.205 -13.644  0.00  0.00    +0.043 A 
ATOM     31  C   UNL     1       3.745   3.251 -12.978  0.00  0.00    +0.043 A 
ATOM     32  C   UNL     1       3.300   3.080 -11.680  0.00  0.00    +0.084 A 
ATOM     33 CL   UNL     1       2.525   4.391 -10.847  0.00  0.00    -0.080 Cl
ATOM     34 CL   UNL     1       4.910   2.420 -15.275  0.00  0.00    -0.083 Cl
ENDBRANCH  26  27
ENDBRANCH  25  26
ENDBRANCH  22  25
ENDBRANCH  21  22
ENDBRANCH   1  21
TORSDOF 10
