REMARK  Name = ZINC16022129
REMARK  8 active torsions:
REMARK  status: ('A' for Active; 'I' for Inactive)
REMARK    1  A    between atoms: C_1  and  C_2
REMARK    2  A    between atoms: C_2  and  C_3
REMARK    3  A    between atoms: C_3  and  C_5
REMARK    4  A    between atoms: C_3  and  N_6
REMARK    5  A    between atoms: C_18  and  C_25
REMARK    6  A    between atoms: C_27  and  C_29
REMARK    7  A    between atoms: C_29  and  C_30
REMARK    8  A    between atoms: C_29  and  C_31
REMARK                            x       y       z     vdW  Elec       q    Type
REMARK                         _______ _______ _______ _____ _____    ______ ____
ROOT
ATOM      1  N   UNL     1      -2.082  -0.162   1.273  0.00  0.00    -0.239 N 
ATOM      2  C   UNL     1      -1.617  -0.547   2.467  0.00  0.00    +0.227 C 
ATOM      3  O   UNL     1      -0.632  -1.232   2.648  0.00  0.00    -0.275 OA
ATOM      4  C   UNL     1      -2.510   0.004   3.556  0.00  0.00    +0.107 C 
ATOM      5  C   UNL     1      -3.592   0.791   2.765  0.00  0.00    +0.122 C 
ATOM      6  C   UNL     1      -3.183   0.596   1.324  0.00  0.00    +0.228 C 
ATOM      7  O   UNL     1      -3.764   1.052   0.362  0.00  0.00    -0.275 OA
ATOM      8  C   UNL     1      -4.901   0.049   3.059  0.00  0.00    +0.136 C 
ATOM      9  C   UNL     1      -6.063   0.996   3.158  0.00  0.00    +0.004 A 
ATOM     10  C   UNL     1      -6.340   2.076   3.966  0.00  0.00    +0.011 A 
ATOM     11  C   UNL     1      -7.528   2.768   3.813  0.00  0.00    -0.050 A 
ATOM     12  C   UNL     1      -8.436   2.373   2.848  0.00  0.00    +0.005 A 
ATOM     13  C   UNL     1      -8.163   1.292   2.035  0.00  0.00    +0.024 A 
ATOM     14  C   UNL     1      -6.969   0.590   2.182  0.00  0.00    +0.039 A 
ATOM     15  N   UNL     1      -6.471  -0.517   1.492  0.00  0.00    -0.283 N 
ATOM     16  C   UNL     1      -5.260  -0.896   1.945  0.00  0.00    +0.243 C 
ATOM     17  O   UNL     1      -4.589  -1.819   1.534  0.00  0.00    -0.273 OA
ATOM     18  C   UNL     1      -7.833   3.950   4.698  0.00  0.00    +0.044 C 
ATOM     19  N   UNL     1      -4.682  -0.673   4.326  0.00  0.00    -0.295 NA
ATOM     20  C   UNL     1      -3.262  -1.163   4.232  0.00  0.00    +0.070 C 
ATOM     21  H   UNL     1      -6.942  -0.962   0.770  0.00  0.00    +0.155 HD
ATOM     22  H   UNL     1      -4.803  -0.060   5.118  0.00  0.00    +0.124 HD
ENDROOT
BRANCH  20  23
ATOM     23  C   UNL     1      -2.694  -1.424   5.628  0.00  0.00    +0.001 C 
ATOM     24  C   UNL     1      -3.453  -2.583   6.279  0.00  0.00    +0.009 C 
ATOM     25  C   UNL     1      -1.211  -1.784   5.517  0.00  0.00    +0.009 C 
ENDBRANCH  20  23
BRANCH   1  26
ATOM     26  C   UNL     1      -1.433  -0.534   0.013  0.00  0.00    +0.081 C 
ATOM     27  C   UNL     1      -1.416  -2.058  -0.121  0.00  0.00    +0.028 C 
BRANCH  26  29
ATOM     28  C   UNL     1      -0.019   1.526   0.010  0.00  0.00    +0.006 C 
ATOM     29  C   UNL     1       0.002  -0.004   0.002  0.00  0.00    +0.019 C 
ENDBRANCH  26  29
ENDBRANCH   1  26
TORSDOF 3
