REMARK  Name = ZINC58245307
REMARK  7 active torsions:
REMARK  status: ('A' for Active; 'I' for Inactive)
REMARK    1  A    between atoms: C_1  and  C_2
REMARK    2  A    between atoms: C_5  and  N_10
REMARK    3  A    between atoms: C_6  and  C_9
REMARK    4  A    between atoms: C_7  and  O_8
REMARK    5  A    between atoms: N_10  and  S_11
REMARK    6  A    between atoms: S_11  and  C_14
REMARK    7  A    between atoms: C_18  and  N_20
REMARK                            x       y       z     vdW  Elec       q    Type
REMARK                         _______ _______ _______ _____ _____    ______ ____
ROOT
ATOM      1  S   UNL     1       0.781  -4.979  -1.278  0.00  0.00    +0.072 S 
ATOM      2  O   UNL     1       0.558  -6.363  -1.051  0.00  0.00    -0.150 OA
ATOM      3  O   UNL     1       0.371  -4.327  -2.472  0.00  0.00    -0.150 OA
ENDROOT
BRANCH   1   4
ATOM      4  C   UNL     1       2.518  -4.718  -1.134  0.00  0.00    +0.111 A 
ATOM      5  C   UNL     1       3.108  -3.633  -1.757  0.00  0.00    +0.029 A 
ATOM      6  C   UNL     1       4.470  -3.426  -1.646  0.00  0.00    +0.004 A 
ATOM      7  C   UNL     1       5.246  -4.302  -0.912  0.00  0.00    +0.028 A 
ATOM      8  C   UNL     1       4.657  -5.392  -0.286  0.00  0.00    +0.071 A 
ATOM      9  C   UNL     1       3.288  -5.594  -0.395  0.00  0.00    +0.056 A 
BRANCH   8  10
ATOM     10  N   UNL     1       5.443  -6.283   0.459  0.00  0.00    -0.200 N 
ATOM     11  C   UNL     1       6.758  -6.173   0.748  0.00  0.00    +0.250 A 
ATOM     12  N   UNL     1       7.087  -7.218   1.462  0.00  0.00    -0.116 NA
ATOM     13  N   UNL     1       6.069  -7.981   1.644  0.00  0.00    -0.023 NA
ATOM     14  N   UNL     1       5.029  -7.479   1.071  0.00  0.00    -0.039 NA
ENDBRANCH   8  10
ENDBRANCH   1   4
BRANCH   1  15
ATOM     15  N   UNL     1       0.059  -4.171  -0.026  0.00  0.00    -0.216 N 
ATOM     16  H   UNL     1      -0.468  -4.658   0.626  0.00  0.00    +0.174 HD
BRANCH  15  21
ATOM     17  C   UNL     1       0.672   1.451   0.443  0.00  0.00    +0.047 C 
ATOM     18  C   UNL     1       0.509  -0.042   0.320  0.00  0.00    -0.009 A 
ATOM     19  C   UNL     1       0.417  -0.626  -0.930  0.00  0.00    +0.009 A 
ATOM     20  C   UNL     1       0.268  -1.994  -1.047  0.00  0.00    +0.025 A 
ATOM     21  C   UNL     1       0.211  -2.787   0.092  0.00  0.00    +0.054 A 
ATOM     22  C   UNL     1       0.303  -2.203   1.348  0.00  0.00    +0.014 A 
ATOM     23  C   UNL     1       0.458  -0.830   1.461  0.00  0.00    +0.124 A 
ATOM     24  C   UNL     1       0.241  -3.060   2.586  0.00  0.00    +0.049 C 
BRANCH  23  25
ATOM     25  O   UNL     1       0.554  -0.256   2.688  0.00  0.00    -0.506 OA
ATOM     26  H   UNL     1      -0.296   0.004   3.069  0.00  0.00    +0.292 HD
ENDBRANCH  23  25
ENDBRANCH  15  21
ENDBRANCH   1  15
TORSDOF 5
