REMARK  Name = ZINC40121854
REMARK  5 active torsions:
REMARK  status: ('A' for Active; 'I' for Inactive)
REMARK    1  A    between atoms: N_8  and  C_11
REMARK    2  A    between atoms: C_11  and  C_12
REMARK    3  A    between atoms: C_16  and  N_18
REMARK    4  A    between atoms: N_21  and  C_22
REMARK    5  A    between atoms: C_22  and  C_23
REMARK                            x       y       z     vdW  Elec       q    Type
REMARK                         _______ _______ _______ _____ _____    ______ ____
ROOT
ATOM      1  C   UNL     1       3.908  -3.598   1.433  0.00  0.00    -0.024 A 
ATOM      2  C   UNL     1       5.130  -3.296   2.006  0.00  0.00    +0.005 A 
ATOM      3  C   UNL     1       5.472  -3.831   3.234  0.00  0.00    +0.002 A 
ATOM      4  C   UNL     1       4.594  -4.670   3.892  0.00  0.00    +0.023 A 
ATOM      5  C   UNL     1       3.367  -4.976   3.319  0.00  0.00    +0.035 A 
ATOM      6  C   UNL     1       3.024  -4.432   2.088  0.00  0.00    +0.028 A 
ENDROOT
BRANCH   5   7
ATOM      7  N   UNL     1       2.475  -5.825   3.983  0.00  0.00    -0.269 N 
ATOM      8  C   UNL     1       1.670  -6.643   3.276  0.00  0.00    +0.304 C 
ATOM      9  O   UNL     1       1.785  -6.713   2.068  0.00  0.00    -0.252 OA
ATOM     10  N   UNL     1       0.737  -7.382   3.909  0.00  0.00    -0.295 N 
ATOM     11  H   UNL     1       2.436  -5.826   4.953  0.00  0.00    +0.156 HD
ATOM     12  H   UNL     1       0.645  -7.326   4.873  0.00  0.00    +0.151 HD
BRANCH  10  13
ATOM     13  C   UNL     1      -0.138  -8.271   3.140  0.00  0.00    +0.148 C 
BRANCH  13  14
ATOM     14  C   UNL     1      -1.083  -8.978   4.077  0.00  0.00    +0.007 A 
ATOM     15  C   UNL     1      -2.317  -8.599   4.492  0.00  0.00    +0.013 A 
ATOM     16  C   UNL     1      -3.012  -9.416   5.364  0.00  0.00    +0.008 A 
ATOM     17  C   UNL     1      -2.439 -10.572   5.778  0.00  0.00    +0.045 A 
ATOM     18  S   UNL     1      -0.872 -10.536   4.923  0.00  0.00    -0.100 S 
ENDBRANCH  13  14
ENDBRANCH  10  13
ENDBRANCH   5   7
BRANCH   1  19
ATOM     19  C   UNL     1       3.540  -3.013   0.094  0.00  0.00    +0.184 C 
BRANCH  19  27
ATOM     20  C   UNL     1       0.149   1.839   0.925  0.00  0.00    +0.005 A 
ATOM     21  C   UNL     1       1.404   2.480   0.871  0.00  0.00    +0.018 A 
ATOM     22  C   UNL     1       2.530   1.768   0.689  0.00  0.00    +0.098 A 
ATOM     23  N   UNL     1       2.480   0.401   0.551  0.00  0.00    -0.251 N 
ATOM     24  C   UNL     1       1.264  -0.255   0.601  0.00  0.00    +0.162 A 
ATOM     25  C   UNL     1       0.074   0.492   0.793  0.00  0.00    +0.049 A 
ATOM     26  N   UNL     1       1.479  -1.540   0.446  0.00  0.00    -0.148 NA
ATOM     27  N   UNL     1       2.859  -1.730   0.293  0.00  0.00    -0.208 N 
ATOM     28  C   UNL     1       3.448  -0.518   0.362  0.00  0.00    +0.351 A 
ATOM     29  O   UNL     1       4.642  -0.294   0.269  0.00  0.00    -0.244 OA
ENDBRANCH  19  27
ENDBRANCH   1  19
TORSDOF 5
