REMARK  Name = ZINC14701229
REMARK  9 active torsions:
REMARK  status: ('A' for Active; 'I' for Inactive)
REMARK    1  A    between atoms: C_1  and  C_2
REMARK    2  A    between atoms: C_3  and  C_25
REMARK    3  A    between atoms: C_4  and  C_24
REMARK    4  A    between atoms: C_7  and  C_8
REMARK    5  A    between atoms: N_10  and  C_11
REMARK    6  A    between atoms: C_11  and  C_13
REMARK    7  A    between atoms: C_11  and  C_14
REMARK    8  A    between atoms: C_25  and  O_27
REMARK    9  A    between atoms: O_27  and  C_28
REMARK                            x       y       z     vdW  Elec       q    Type
REMARK                         _______ _______ _______ _____ _____    ______ ____
ROOT
ATOM      1  C   UNL     1      -5.660  -0.844  -1.419  0.00  0.00    +0.261 C 
ATOM      2  O   UNL     1      -5.763  -2.035  -1.195  0.00  0.00    -0.269 OA
ATOM      3  N   UNL     1      -4.657  -0.137  -0.860  0.00  0.00    -0.304 N 
ATOM      4  H   UNL     1      -4.575   0.813  -1.039  0.00  0.00    +0.150 HD
ENDROOT
BRANCH   1  11
ATOM      5  C   UNL     1      -8.060  -2.229  -2.850  0.00  0.00    +0.047 C 
ATOM      6  C   UNL     1      -7.678  -0.773  -2.928  0.00  0.00    -0.006 A 
ATOM      7  C   UNL     1      -8.344   0.232  -3.666  0.00  0.00    +0.083 A 
ATOM      8  C   UNL     1      -7.655   1.413  -3.456  0.00  0.00    +0.028 A 
ATOM      9  N   UNL     1      -6.624   1.161  -2.634  0.00  0.00    -0.354 N 
ATOM     10  H   UNL     1      -5.979   1.816  -2.325  0.00  0.00    +0.166 HD
ATOM     11  C   UNL     1      -6.627  -0.176  -2.299  0.00  0.00    +0.106 A 
ATOM     12  C   UNL     1      -8.001   2.753  -4.050  0.00  0.00    +0.064 C 
BRANCH   7  13
ATOM     13  C   UNL     1      -9.543   0.055  -4.503  0.00  0.00    +0.341 C 
ATOM     14  O   UNL     1      -9.426  -0.227  -5.679  0.00  0.00    -0.245 OA
BRANCH  13  15
ATOM     15  O   UNL     1     -10.769   0.206  -3.965  0.00  0.00    -0.464 OA
ATOM     16  C   UNL     1     -11.905   0.017  -4.849  0.00  0.00    +0.280 C 
ENDBRANCH  13  15
ENDBRANCH   7  13
ENDBRANCH   1  11
BRANCH   3  17
ATOM     17  C   UNL     1      -3.692  -0.803   0.018  0.00  0.00    +0.101 C 
ATOM     18  C   UNL     1      -4.250  -0.858   1.441  0.00  0.00    +0.033 C 
BRANCH  17  19
ATOM     19  C   UNL     1      -2.397  -0.033   0.016  0.00  0.00    -0.024 A 
ATOM     20  C   UNL     1      -2.415   1.349   0.026  0.00  0.00    +0.009 A 
ATOM     21  C   UNL     1      -1.229   2.059   0.019  0.00  0.00    +0.050 A 
ATOM     22  C   UNL     1      -0.017   1.385   0.010  0.00  0.00    +0.162 A 
ATOM     23  C   UNL     1       0.002  -0.004   0.002  0.00  0.00    +0.162 A 
ATOM     24  C   UNL     1      -1.192  -0.710   0.004  0.00  0.00    +0.055 A 
ATOM     25  O   UNL     1       1.181  -0.685  -0.007  0.00  0.00    -0.485 OA
ATOM     26  C   UNL     1       2.347   0.053  -0.387  0.00  0.00    +0.270 C 
ATOM     27  C   UNL     1       2.334   1.392   0.364  0.00  0.00    +0.270 C 
ATOM     28  O   UNL     1       1.143   2.098   0.002  0.00  0.00    -0.485 OA
ENDBRANCH  17  19
ENDBRANCH   3  17
TORSDOF 5
