REMARK  Name = ZINC45720316
REMARK  8 active torsions:
REMARK  status: ('A' for Active; 'I' for Inactive)
REMARK    1  A    between atoms: C_1  and  C_2
REMARK    2  A    between atoms: C_2  and  C_4
REMARK    3  A    between atoms: C_2  and  N_14
REMARK    4  A    between atoms: C_8  and  N_10
REMARK    5  A    between atoms: C_11  and  C_13
REMARK    6  A    between atoms: N_17  and  C_18
REMARK    7  A    between atoms: N_17  and  C_19
REMARK    8  A    between atoms: C_19  and  C_20
REMARK                            x       y       z     vdW  Elec       q    Type
REMARK                         _______ _______ _______ _____ _____    ______ ____
ROOT
ATOM      1  N   UNL     1      -1.270  -0.174   0.040  0.00  0.00    -0.293 N 
ATOM      2  C   UNL     1      -1.875  -0.148   1.244  0.00  0.00    +0.303 C 
ATOM      3  O   UNL     1      -1.282   0.283   2.214  0.00  0.00    -0.253 OA
ATOM      4  N   UNL     1      -3.138  -0.601   1.373  0.00  0.00    -0.284 N 
ATOM      5  C   UNL     1      -3.853  -1.120   0.204  0.00  0.00    +0.134 C 
ATOM      6  H   UNL     1      -1.743  -0.517  -0.733  0.00  0.00    +0.151 HD
ENDROOT
BRANCH   1   8
ATOM      7  C   UNL     1       0.083   1.834  -0.305  0.00  0.00    +0.033 C 
ATOM      8  C   UNL     1       0.103   0.318  -0.100  0.00  0.00    +0.102 C 
BRANCH   8   9
ATOM      9  C   UNL     1       0.754  -0.341  -1.288  0.00  0.00    -0.026 A 
ATOM     10  C   UNL     1       0.032  -0.537  -2.451  0.00  0.00    +0.005 A 
ATOM     11  C   UNL     1       0.626  -1.141  -3.543  0.00  0.00    +0.002 A 
ATOM     12  C   UNL     1       1.943  -1.552  -3.477  0.00  0.00    +0.023 A 
ATOM     13  C   UNL     1       2.671  -1.356  -2.310  0.00  0.00    +0.034 A 
ATOM     14  C   UNL     1       2.073  -0.744  -1.216  0.00  0.00    +0.028 A 
BRANCH  13  15
ATOM     15  N   UNL     1       4.005  -1.771  -2.239  0.00  0.00    -0.286 N 
ATOM     16  C   UNL     1       4.785  -1.723  -3.337  0.00  0.00    +0.214 C 
ATOM     17  O   UNL     1       4.361  -1.232  -4.362  0.00  0.00    -0.276 OA
ATOM     18  C   UNL     1       6.185  -2.279  -3.292  0.00  0.00    +0.109 C 
ATOM     19  H   UNL     1       4.369  -2.092  -1.399  0.00  0.00    +0.155 HD
ENDBRANCH  13  15
ENDBRANCH   8   9
ENDBRANCH   1   8
BRANCH   4  20
ATOM     20  C   UNL     1      -3.796  -0.573   2.682  0.00  0.00    +0.144 C 
BRANCH  20  21
ATOM     21  C   UNL     1      -4.517   0.739   2.854  0.00  0.00    -0.026 A 
ATOM     22  C   UNL     1      -3.859   1.819   3.413  0.00  0.00    +0.009 A 
ATOM     23  C   UNL     1      -4.516   3.025   3.573  0.00  0.00    +0.050 A 
ATOM     24  C   UNL     1      -5.836   3.154   3.173  0.00  0.00    +0.166 A 
ATOM     25  C   UNL     1      -6.499   2.066   2.610  0.00  0.00    +0.167 A 
ATOM     26  C   UNL     1      -5.832   0.862   2.447  0.00  0.00    +0.054 A 
ATOM     27  O   UNL     1      -7.774   2.443   2.303  0.00  0.00    -0.453 OA
ATOM     28  C   UNL     1      -8.011   3.647   3.056  0.00  0.00    +0.466 C 
ATOM     29  O   UNL     1      -6.696   4.213   3.219  0.00  0.00    -0.453 OA
ENDBRANCH  20  21
ENDBRANCH   4  20
TORSDOF 5
