REMARK  Name = ZINC39324674
REMARK  10 active torsions:
REMARK  status: ('A' for Active; 'I' for Inactive)
REMARK    1  A    between atoms: C_1  and  C_2
REMARK    2  A    between atoms: C_2  and  C_3
REMARK    3  A    between atoms: C_3  and  C_4
REMARK    4  A    between atoms: C_4  and  C_5
REMARK    5  A    between atoms: C_7  and  C_19
REMARK    6  A    between atoms: C_9  and  C_17
REMARK    7  A    between atoms: C_10  and  N_16
REMARK    8  A    between atoms: C_22  and  N_25
REMARK    9  A    between atoms: N_25  and  C_26
REMARK   10  A    between atoms: N_25  and  C_27
REMARK                            x       y       z     vdW  Elec       q    Type
REMARK                         _______ _______ _______ _____ _____    ______ ____
ROOT
ATOM      1  C   UNL     1      -2.826  -2.585   0.015  0.00  0.00    +0.069 C 
ATOM      2  C   UNL     1      -3.505  -2.932  -1.052  0.00  0.00    +0.030 C 
ATOM      3  C   UNL     1      -3.149  -3.073  -2.506  0.00  0.00    +0.098 C 
ATOM      4  C   UNL     1      -3.823  -4.352  -2.968  0.00  0.00    +0.097 C 
ATOM      5  C   UNL     1      -4.702  -5.013  -2.185  0.00  0.00    +0.195 C 
ATOM      6  O   UNL     1      -5.077  -4.678  -0.938  0.00  0.00    -0.448 OA
ATOM      7  C   UNL     1      -4.891  -3.319  -0.534  0.00  0.00    +0.343 C 
ATOM      8  N   UNL     1      -4.721  -3.189   0.917  0.00  0.00    -0.138 NA
ATOM      9  N   UNL     1      -3.577  -2.769   1.131  0.00  0.00    -0.155 NA
ENDROOT
BRANCH   3  10
ATOM     10  C   UNL     1      -3.671  -1.895  -3.288  0.00  0.00    -0.035 A 
ATOM     11  C   UNL     1      -5.028  -1.626  -3.306  0.00  0.00    +0.006 A 
ATOM     12  C   UNL     1      -5.510  -0.547  -4.021  0.00  0.00    +0.023 A 
ATOM     13  C   UNL     1      -4.630   0.268  -4.722  0.00  0.00    +0.029 A 
ATOM     14  C   UNL     1      -3.268  -0.005  -4.701  0.00  0.00    +0.023 A 
ATOM     15  C   UNL     1      -2.792  -1.082  -3.980  0.00  0.00    +0.006 A 
BRANCH  13  16
ATOM     16  N   UNL     1      -5.114   1.360  -5.447  0.00  0.00    -0.336 N 
ATOM     17  C   UNL     1      -6.551   1.646  -5.468  0.00  0.00    +0.129 C 
ATOM     18  C   UNL     1      -4.185   2.219  -6.185  0.00  0.00    +0.129 C 
ENDBRANCH  13  16
ENDBRANCH   3  10
BRANCH   5  19
ATOM     19  N   UNL     1      -5.272  -6.141  -2.717  0.00  0.00    -0.329 N 
ATOM     20  H   UNL     1      -5.037  -6.428  -3.614  0.00  0.00    +0.145 HD
ATOM     21  H   UNL     1      -5.911  -6.654  -2.197  0.00  0.00    +0.145 HD
ENDBRANCH   5  19
BRANCH   4  22
ATOM     22  C   UNL     1      -3.518  -4.872  -4.267  0.00  0.00    +0.101 C 
ATOM     23  N   UNL     1      -3.276  -5.284  -5.297  0.00  0.00    -0.191 NA
ENDBRANCH   4  22
BRANCH   1  24
ATOM     24  C   UNL     1      -1.413  -2.063   0.004  0.00  0.00    +0.057 C 
BRANCH  24  25
ATOM     25  C   UNL     1      -1.433  -0.534   0.013  0.00  0.00    +0.006 C 
BRANCH  25  27
ATOM     26  C   UNL     1      -0.019   1.526   0.010  0.00  0.00    +0.004 C 
ATOM     27  C   UNL     1       0.002  -0.004   0.002  0.00  0.00    -0.003 C 
ENDBRANCH  25  27
ENDBRANCH  24  25
ENDBRANCH   1  24
TORSDOF 7
