REMARK  Name = ZINC63629799
REMARK  9 active torsions:
REMARK  status: ('A' for Active; 'I' for Inactive)
REMARK    1  A    between atoms: C_1  and  C_2
REMARK    2  A    between atoms: C_3  and  C_15
REMARK    3  A    between atoms: C_5  and  C_7
REMARK    4  A    between atoms: C_7  and  C_8
REMARK    5  A    between atoms: C_8  and  O_10
REMARK    6  A    between atoms: O_10  and  C_11
REMARK    7  A    between atoms: C_11  and  C_12
REMARK    8  A    between atoms: C_11  and  C_13
REMARK    9  A    between atoms: C_11  and  C_14
REMARK                            x       y       z     vdW  Elec       q    Type
REMARK                         _______ _______ _______ _____ _____    ______ ____
ROOT
ATOM      1  C   UNL     1      -0.030   1.501  -0.104  0.00  0.00    +0.054 C 
ATOM      2  C   UNL     1      -0.003  -0.005  -0.049  0.00  0.00    +0.014 A 
ATOM      3  C   UNL     1      -1.035  -0.893   0.093  0.00  0.00    +0.081 A 
ATOM      4  N   UNL     1      -0.712  -2.178   0.108  0.00  0.00    -0.243 NA
ATOM      5  C   UNL     1       0.531  -2.568  -0.008  0.00  0.00    +0.090 A 
ATOM      6  S   UNL     1       1.383  -1.125  -0.161  0.00  0.00    -0.076 S 
ENDROOT
BRANCH   3   7
ATOM      7  C   UNL     1      -2.442  -0.440   0.225  0.00  0.00    +0.003 A 
ATOM      8  C   UNL     1      -2.924   0.585  -0.587  0.00  0.00    +0.014 A 
ATOM      9  C   UNL     1      -4.233   1.008  -0.467  0.00  0.00    +0.048 A 
ATOM     10  C   UNL     1      -5.071   0.413   0.462  0.00  0.00    +0.142 A 
ATOM     11  C   UNL     1      -4.594  -0.613   1.278  0.00  0.00    +0.076 A 
ATOM     12  C   UNL     1      -3.285  -1.044   1.157  0.00  0.00    +0.037 A 
ATOM     13  N   UNL     1      -5.456  -1.202   2.214  0.00  0.00    -0.280 N 
ATOM     14  C   UNL     1      -6.787  -0.999   2.097  0.00  0.00    +0.255 C 
ATOM     15  O   UNL     1      -7.549  -1.473   2.912  0.00  0.00    -0.272 OA
ATOM     16  C   UNL     1      -7.319  -0.179   0.949  0.00  0.00    +0.325 C 
ATOM     17  O   UNL     1      -6.363   0.820   0.588  0.00  0.00    -0.481 OA
ATOM     18  H   UNL     1      -5.103  -1.748   2.934  0.00  0.00    +0.155 HD
ENDBRANCH   3   7
BRANCH   5  19
ATOM     19  C   UNL     1       1.071  -3.976  -0.011  0.00  0.00    +0.183 C 
BRANCH  19  20
ATOM     20  C   UNL     1       1.102  -4.499  -1.424  0.00  0.00    +0.314 C 
ATOM     21  O   UNL     1       0.724  -3.800  -2.335  0.00  0.00    -0.250 OA
BRANCH  20  22
ATOM     22  O   UNL     1       1.548  -5.740  -1.670  0.00  0.00    -0.459 OA
BRANCH  22  23
ATOM     23  C   UNL     1       1.550  -6.170  -3.033  0.00  0.00    +0.105 C 
ATOM     24  C   UNL     1       2.441  -5.241  -3.860  0.00  0.00    +0.055 C 
ATOM     25  C   UNL     1       2.089  -7.600  -3.115  0.00  0.00    +0.055 C 
ATOM     26  C   UNL     1       0.122  -6.131  -3.582  0.00  0.00    +0.055 C 
ENDBRANCH  22  23
ENDBRANCH  20  22
ENDBRANCH  19  20
ENDBRANCH   5  19
TORSDOF 5
