REMARK  Name = ZINC09272160
REMARK  11 active torsions:
REMARK  status: ('A' for Active; 'I' for Inactive)
REMARK    1  A    between atoms: C_1  and  C_2
REMARK    2  A    between atoms: C_2  and  O_3
REMARK    3  A    between atoms: O_3  and  C_4
REMARK    4  A    between atoms: C_8  and  C_11
REMARK    5  A    between atoms: C_9  and  O_10
REMARK    6  A    between atoms: N_12  and  N_13
REMARK    7  A    between atoms: C_14  and  C_16
REMARK    8  A    between atoms: C_16  and  S_17
REMARK    9  A    between atoms: S_17  and  C_18
REMARK   10  A    between atoms: C_21  and  C_29
REMARK   11  A    between atoms: N_22  and  C_23
REMARK                            x       y       z     vdW  Elec       q    Type
REMARK                         _______ _______ _______ _____ _____    ______ ____
ROOT
ATOM      1  S   UNL     1     -10.359  -2.730   0.670  0.00  0.00    -0.077 S 
ENDROOT
BRANCH   1   2
ATOM      2  C   UNL     1     -11.872  -3.550   0.293  0.00  0.00    +0.193 A 
ATOM      3  N   UNL     1     -12.001  -4.759  -0.206  0.00  0.00    -0.122 NA
ATOM      4  N   UNL     1     -13.245  -5.044  -0.355  0.00  0.00    -0.128 NA
ATOM      5  C   UNL     1     -13.987  -4.036   0.040  0.00  0.00    +0.165 A 
ATOM      6  N   UNL     1     -13.131  -3.050   0.472  0.00  0.00    -0.299 N 
BRANCH   5   7
ATOM      7  C   UNL     1     -15.464  -3.974   0.027  0.00  0.00    +0.019 A 
ATOM      8  C   UNL     1     -16.112  -2.754  -0.177  0.00  0.00    +0.013 A 
ATOM      9  C   UNL     1     -17.490  -2.703  -0.187  0.00  0.00    +0.021 A 
ATOM     10  C   UNL     1     -18.231  -3.857   0.004  0.00  0.00    +0.041 A 
ATOM     11  C   UNL     1     -17.593  -5.070   0.206  0.00  0.00    +0.021 A 
ATOM     12  C   UNL     1     -16.216  -5.135   0.213  0.00  0.00    +0.013 A 
ATOM     13 CL   UNL     1     -19.965  -3.784  -0.011  0.00  0.00    -0.084 Cl
ENDBRANCH   5   7
BRANCH   6  14
ATOM     14  C   UNL     1     -13.493  -1.736   1.010  0.00  0.00    +0.091 C 
ATOM     15  C   UNL     1     -13.007  -0.643   0.056  0.00  0.00    +0.025 C 
ATOM     16  C   UNL     1     -13.385   0.729   0.617  0.00  0.00    +0.002 C 
ATOM     17  C   UNL     1     -12.729   0.919   1.986  0.00  0.00    +0.000 C 
ATOM     18  C   UNL     1     -13.215  -0.174   2.940  0.00  0.00    +0.002 C 
ATOM     19  C   UNL     1     -12.837  -1.546   2.379  0.00  0.00    +0.025 C 
ENDBRANCH   6  14
ENDBRANCH   1   2
BRANCH   1  20
ATOM     20  C   UNL     1      -9.081  -3.930   0.201  0.00  0.00    +0.174 C 
BRANCH  20  22
ATOM     21  N   UNL     1      -6.612  -4.064   0.203  0.00  0.00    -0.206 N 
ATOM     22  C   UNL     1      -7.719  -3.347   0.475  0.00  0.00    +0.242 C 
ATOM     23  O   UNL     1      -7.620  -2.231   0.942  0.00  0.00    -0.273 OA
ATOM     24  H   UNL     1      -6.691  -4.957  -0.170  0.00  0.00    +0.177 HD
BRANCH  21  26
ATOM     25  C   UNL     1      -4.278  -4.214   0.196  0.00  0.00    +0.142 C 
ATOM     26  N   UNL     1      -5.345  -3.522   0.458  0.00  0.00    -0.188 NA
BRANCH  25  31
ATOM     27  C   UNL     1      -1.566  -1.828   1.250  0.00  0.00    +0.162 A 
ATOM     28  C   UNL     1      -0.434  -2.575   0.967  0.00  0.00    +0.049 A 
ATOM     29  C   UNL     1      -0.551  -3.847   0.435  0.00  0.00    +0.004 A 
ATOM     30  C   UNL     1      -1.795  -4.384   0.183  0.00  0.00    +0.013 A 
ATOM     31  C   UNL     1      -2.946  -3.643   0.464  0.00  0.00    +0.040 A 
ATOM     32  C   UNL     1      -2.827  -2.358   1.007  0.00  0.00    +0.167 A 
BRANCH  32  33
ATOM     33  O   UNL     1      -3.940  -1.631   1.289  0.00  0.00    -0.503 OA
ATOM     34  H   UNL     1      -4.247  -1.081   0.555  0.00  0.00    +0.292 HD
ENDBRANCH  32  33
BRANCH  27  35
ATOM     35  O   UNL     1      -1.444  -0.578   1.772  0.00  0.00    -0.489 OA
BRANCH  35  37
ATOM     36  C   UNL     1      -0.180   1.316   2.582  0.00  0.00    +0.048 C 
ATOM     37  C   UNL     1      -0.117  -0.096   1.997  0.00  0.00    +0.226 C 
ENDBRANCH  35  37
ENDBRANCH  27  35
ENDBRANCH  25  31
ENDBRANCH  21  26
ENDBRANCH  20  22
ENDBRANCH   1  20
TORSDOF 10
