REMARK  Name = ZINC40050434
REMARK  13 active torsions:
REMARK  status: ('A' for Active; 'I' for Inactive)
REMARK    1  A    between atoms: C_1  and  C_2
REMARK    2  A    between atoms: C_5  and  C_7
REMARK    3  A    between atoms: C_9  and  C_26
REMARK    4  A    between atoms: C_10  and  C_25
REMARK    5  A    between atoms: N_11  and  C_15
REMARK    6  A    between atoms: C_18  and  O_23
REMARK    7  A    between atoms: C_19  and  O_21
REMARK    8  A    between atoms: O_21  and  C_22
REMARK    9  A    between atoms: O_23  and  C_24
REMARK   10  A    between atoms: C_26  and  O_28
REMARK   11  A    between atoms: O_28  and  C_29
REMARK   12  A    between atoms: C_29  and  C_30
REMARK   13  A    between atoms: C_29  and  C_31
REMARK                            x       y       z     vdW  Elec       q    Type
REMARK                         _______ _______ _______ _____ _____    ______ ____
ROOT
ATOM      1  C   UNL     1       1.131  -3.861  -0.052  0.00  0.00    +0.148 C 
ATOM      2  C   UNL     1       1.538  -3.914   1.406  0.00  0.00    +0.079 C 
ATOM      3  C   UNL     1       2.716  -4.503   1.709  0.00  0.00    +0.027 C 
ATOM      4  N   UNL     1       3.511  -5.032   0.732  0.00  0.00    -0.255 N 
ATOM      5  C   UNL     1       3.200  -5.012  -0.570  0.00  0.00    +0.142 C 
ATOM      6  S   UNL     1       4.288  -5.711  -1.692  0.00  0.00    -0.018 S 
ATOM      7  N   UNL     1       2.060  -4.459  -1.026  0.00  0.00    -0.314 N 
ATOM      8  C   UNL     1       3.160  -4.578   3.147  0.00  0.00    +0.062 C 
ATOM      9  H   UNL     1       1.855  -4.456  -1.974  0.00  0.00    +0.149 HD
ENDROOT
BRANCH   1  14
ATOM     10  C   UNL     1       1.370   1.584  -1.599  0.00  0.00    +0.051 C 
ATOM     11  C   UNL     1       1.048   0.178  -1.163  0.00  0.00    -0.013 A 
ATOM     12  C   UNL     1      -0.154  -0.363  -0.847  0.00  0.00    +0.011 A 
ATOM     13  C   UNL     1      -0.212  -1.692  -0.470  0.00  0.00    +0.013 A 
ATOM     14  C   UNL     1       0.934  -2.414  -0.427  0.00  0.00    +0.015 A 
ATOM     15  S   UNL     1       2.149  -1.209  -0.937  0.00  0.00    -0.096 S 
ENDBRANCH   1  14
BRANCH   4  16
ATOM     16  C   UNL     1       4.721  -5.629   1.115  0.00  0.00    +0.044 A 
ATOM     17  C   UNL     1       5.873  -4.861   1.215  0.00  0.00    +0.027 A 
ATOM     18  C   UNL     1       7.066  -5.448   1.592  0.00  0.00    +0.051 A 
ATOM     19  C   UNL     1       7.114  -6.804   1.870  0.00  0.00    +0.162 A 
ATOM     20  C   UNL     1       5.961  -7.577   1.771  0.00  0.00    +0.163 A 
ATOM     21  C   UNL     1       4.764  -6.987   1.399  0.00  0.00    +0.073 A 
BRANCH  20  22
ATOM     22  O   UNL     1       6.008  -8.908   2.044  0.00  0.00    -0.491 OA
ATOM     23  C   UNL     1       4.786  -9.639   1.921  0.00  0.00    +0.277 C 
ENDBRANCH  20  22
BRANCH  19  24
ATOM     24  O   UNL     1       8.290  -7.381   2.240  0.00  0.00    -0.491 OA
ATOM     25  C   UNL     1       9.434  -6.528   2.321  0.00  0.00    +0.277 C 
ENDBRANCH  19  24
ENDBRANCH   4  16
BRANCH   2  26
ATOM     26  C   UNL     1       0.714  -3.365   2.416  0.00  0.00    +0.339 C 
ATOM     27  O   UNL     1       1.108  -3.323   3.566  0.00  0.00    -0.245 OA
BRANCH  26  28
ATOM     28  O   UNL     1      -0.509  -2.889   2.103  0.00  0.00    -0.459 OA
BRANCH  28  29
ATOM     29  C   UNL     1      -1.288  -2.349   3.173  0.00  0.00    +0.171 C 
ATOM     30  C   UNL     1      -2.205  -1.250   2.633  0.00  0.00    +0.052 C 
ATOM     31  C   UNL     1      -2.135  -3.459   3.798  0.00  0.00    +0.052 C 
ENDBRANCH  28  29
ENDBRANCH  26  28
ENDBRANCH   2  26
TORSDOF 7
