REMARK  Name = ZINC24713393
REMARK  10 active torsions:
REMARK  status: ('A' for Active; 'I' for Inactive)
REMARK    1  A    between atoms: C_1  and  C_2
REMARK    2  A    between atoms: C_2  and  O_3
REMARK    3  A    between atoms: O_3  and  C_4
REMARK    4  A    between atoms: C_4  and  C_6
REMARK    5  A    between atoms: C_7  and  C_28
REMARK    6  A    between atoms: C_9  and  N_14
REMARK    7  A    between atoms: C_10  and  C_11
REMARK    8  A    between atoms: C_15  and  C_17
REMARK    9  A    between atoms: C_17  and  S_18
REMARK   10  A    between atoms: S_18  and  C_19
REMARK                            x       y       z     vdW  Elec       q    Type
REMARK                         _______ _______ _______ _____ _____    ______ ____
ROOT
ATOM      1  C   UNL     1       2.124   0.822  -0.014  0.00  0.00    +0.114 A 
ATOM      2  C   UNL     1       1.224   1.841   0.000  0.00  0.00    +0.119 A 
ATOM      3  O   UNL     1      -0.016   1.336   0.009  0.00  0.00    -0.445 OA
ATOM      4  C   UNL     1       0.002  -0.004   0.002  0.00  0.00    +0.206 A 
ATOM      5  C   UNL     1       1.320  -0.422  -0.013  0.00  0.00    +0.111 A 
ATOM      6  C   UNL     1       1.568   3.308   0.004  0.00  0.00    +0.087 C 
ENDROOT
BRANCH   5   7
ATOM      7  C   UNL     1       1.815  -1.802  -0.024  0.00  0.00    +0.247 C 
ATOM      8  O   UNL     1       2.011  -2.370  -1.083  0.00  0.00    -0.270 OA
ATOM      9  N   UNL     1       2.054  -2.442   1.138  0.00  0.00    -0.325 N 
ATOM     10  H   UNL     1       2.425  -3.477   1.129  0.00  0.00    +0.145 HD
ATOM     11  H   UNL     1       1.877  -1.929   2.095  0.00  0.00    +0.145 HD
ENDBRANCH   5   7
BRANCH   4  12
ATOM     12  N   UNL     1      -1.108  -0.828   0.008  0.00  0.00    -0.255 N 
ATOM     13  C   UNL     1      -2.344  -0.292   0.022  0.00  0.00    +0.230 C 
ATOM     14  O   UNL     1      -2.483   0.913   0.030  0.00  0.00    -0.274 OA
ATOM     15  H   UNL     1      -0.982  -1.920   0.002  0.00  0.00    +0.158 HD
BRANCH  13  16
ATOM     16  C   UNL     1      -3.555  -1.190   0.029  0.00  0.00    +0.172 C 
BRANCH  16  17
ATOM     17  S   UNL     1      -5.056  -0.179   0.048  0.00  0.00    -0.095 S 
BRANCH  17  18
ATOM     18  C   UNL     1      -6.279  -1.448   0.053  0.00  0.00    +0.115 A 
ATOM     19  C   UNL     1      -7.628  -1.134   0.067  0.00  0.00    +0.069 A 
ATOM     20  C   UNL     1      -8.612  -2.146   0.071  0.00  0.00    +0.082 A 
ATOM     21  C   UNL     1      -9.942  -1.691   0.086  0.00  0.00    +0.036 A 
ATOM     22  C   UNL     1     -10.206  -0.371   0.095  0.00  0.00    +0.048 A 
ATOM     23  S   UNL     1      -8.578   0.362   0.084  0.00  0.00    -0.092 S 
ATOM     24  N   UNL     1      -8.143  -3.419   0.060  0.00  0.00    -0.235 NA
ATOM     25  C   UNL     1      -6.860  -3.673   0.047  0.00  0.00    +0.223 A 
ATOM     26  N   UNL     1      -5.929  -2.735   0.038  0.00  0.00    -0.228 NA
ENDBRANCH  17  18
ENDBRANCH  16  17
ENDBRANCH  13  16
ENDBRANCH   4  12
BRANCH   1  27
ATOM     27  C   UNL     1       3.590   0.932  -0.028  0.00  0.00    +0.343 C 
ATOM     28  O   UNL     1       4.186   0.983  -1.086  0.00  0.00    -0.245 OA
BRANCH  27  29
ATOM     29  O   UNL     1       4.274   0.976   1.133  0.00  0.00    -0.461 OA
BRANCH  29  31
ATOM     30  C   UNL     1       6.317   1.120   2.451  0.00  0.00    +0.048 C 
ATOM     31  C   UNL     1       5.719   1.085   1.043  0.00  0.00    +0.229 C 
ENDBRANCH  29  31
ENDBRANCH  27  29
ENDBRANCH   1  27
TORSDOF 8
