REMARK  Name = ZINC63619667
REMARK  5 active torsions:
REMARK  status: ('A' for Active; 'I' for Inactive)
REMARK    1  A    between atoms: C_1  and  N_2
REMARK    2  A    between atoms: C_3  and  C_19
REMARK    3  A    between atoms: C_7  and  S_8
REMARK    4  A    between atoms: S_8  and  C_9
REMARK    5  A    between atoms: C_9  and  C_10
REMARK                            x       y       z     vdW  Elec       q    Type
REMARK                         _______ _______ _______ _____ _____    ______ ____
ROOT
ATOM      1  C   UNL     1      -0.012   1.458   0.005  0.00  0.00    +0.133 C 
ATOM      2  N   UNL     1       0.004  -0.007  -0.000  0.00  0.00    -0.288 N 
ATOM      3  C   UNL     1      -1.161  -0.901   0.105  0.00  0.00    +0.208 C 
ATOM      4  N   UNL     1      -0.578  -2.252   0.048  0.00  0.00    -0.242 N 
ATOM      5  N   UNL     1       0.805  -2.074  -0.080  0.00  0.00    -0.162 NA
ATOM      6  C   UNL     1       1.120  -0.823  -0.112  0.00  0.00    +0.175 C 
ATOM      7  H   UNL     1      -1.055  -3.095   0.090  0.00  0.00    +0.170 HD
ENDROOT
BRANCH   3   8
ATOM      8  C   UNL     1      -2.104  -0.679  -1.050  0.00  0.00    -0.005 A 
ATOM      9  C   UNL     1      -1.717  -0.974  -2.348  0.00  0.00    +0.027 A 
ATOM     10  C   UNL     1      -2.608  -0.757  -3.382  0.00  0.00    +0.111 A 
ATOM     11  N   UNL     1      -3.813  -0.277  -3.144  0.00  0.00    -0.263 NA
ATOM     12  C   UNL     1      -4.215   0.014  -1.922  0.00  0.00    +0.111 A 
ATOM     13  C   UNL     1      -3.381  -0.182  -0.838  0.00  0.00    +0.027 A 
ENDBRANCH   3   8
BRANCH   6  14
ATOM     14  S   UNL     1       2.769  -0.224  -0.273  0.00  0.00    -0.085 S 
BRANCH  14  15
ATOM     15  C   UNL     1       3.775  -1.730  -0.375  0.00  0.00    +0.124 C 
BRANCH  15  16
ATOM     16  C   UNL     1       5.250  -1.349  -0.519  0.00  0.00    +0.184 C 
ATOM     17  N   UNL     1       5.663  -0.497   0.604  0.00  0.00    -0.363 N 
ATOM     18  C   UNL     1       6.050   0.642   0.108  0.00  0.00    +0.060 A 
ATOM     19  C   UNL     1       6.564   1.875   0.720  0.00  0.00    +0.027 A 
ATOM     20  C   UNL     1       6.892   2.921  -0.065  0.00  0.00    +0.002 A 
ATOM     21  C   UNL     1       6.763   2.888  -1.465  0.00  0.00    +0.002 A 
ATOM     22  C   UNL     1       6.302   1.808  -2.127  0.00  0.00    +0.027 A 
ATOM     23  C   UNL     1       5.914   0.607  -1.374  0.00  0.00    +0.060 A 
ATOM     24  N   UNL     1       5.448  -0.553  -1.737  0.00  0.00    -0.363 N 
ATOM     25  H   UNL     1       5.649  -0.740   1.543  0.00  0.00    +0.162 HD
ATOM     26  H   UNL     1       5.266  -0.840  -2.646  0.00  0.00    +0.162 HD
ENDBRANCH  15  16
ENDBRANCH  14  15
ENDBRANCH   6  14
TORSDOF 4
