REMARK  Name = ZINC01241660
REMARK  13 active torsions:
REMARK  status: ('A' for Active; 'I' for Inactive)
REMARK    1  A    between atoms: C_1  and  C_2
REMARK    2  A    between atoms: C_2  and  C_3
REMARK    3  A    between atoms: C_2  and  C_4
REMARK    4  A    between atoms: C_4  and  C_5
REMARK    5  A    between atoms: C_5  and  O_6
REMARK    6  A    between atoms: O_6  and  C_7
REMARK    7  A    between atoms: C_10  and  C_13
REMARK    8  A    between atoms: C_14  and  C_24
REMARK    9  A    between atoms: N_16  and  C_18
REMARK   10  A    between atoms: C_25  and  C_26
REMARK   11  A    between atoms: C_25  and  C_28
REMARK   12  A    between atoms: N_30  and  C_31
REMARK   13  A    between atoms: C_31  and  C_32
REMARK                            x       y       z     vdW  Elec       q    Type
REMARK                         _______ _______ _______ _____ _____    ______ ____
ROOT
ATOM      1  C   UNL     1       2.982   0.379  -0.722  0.00  0.00    +0.100 A 
ATOM      2  C   UNL     1       3.993   1.162  -1.446  0.00  0.00    +0.022 A 
ATOM      3  C   UNL     1       4.978   0.265  -1.829  0.00  0.00    +0.123 A 
ATOM      4  N   UNL     1       4.613  -0.954  -1.396  0.00  0.00    -0.239 N 
ATOM      5  N   UNL     1       3.392  -0.869  -0.721  0.00  0.00    -0.166 NA
ENDROOT
BRANCH   1   9
ATOM      6  C   UNL     1      -0.598   1.868   1.023  0.00  0.00    +0.121 A 
ATOM      7  C   UNL     1      -0.583   0.607   0.442  0.00  0.00    +0.046 A 
ATOM      8  C   UNL     1       0.578   0.119  -0.120  0.00  0.00    +0.013 A 
ATOM      9  C   UNL     1       1.735   0.898  -0.114  0.00  0.00    +0.003 A 
ATOM     10  C   UNL     1       1.715   2.166   0.466  0.00  0.00    +0.013 A 
ATOM     11  C   UNL     1       0.552   2.646   1.031  0.00  0.00    +0.046 A 
BRANCH   6  12
ATOM     12  O   UNL     1      -1.742   2.344   1.580  0.00  0.00    -0.492 OA
BRANCH  12  13
ATOM     13  C   UNL     1      -2.888   1.491   1.536  0.00  0.00    +0.229 C 
BRANCH  13  14
ATOM     14  C   UNL     1      -4.071   2.192   2.207  0.00  0.00    +0.044 C 
BRANCH  14  16
ATOM     15  C   UNL     1      -5.037   0.030   3.005  0.00  0.00    +0.007 C 
ATOM     16  C   UNL     1      -5.298   1.280   2.160  0.00  0.00    -0.014 C 
ATOM     17  C   UNL     1      -6.511   2.027   2.718  0.00  0.00    +0.007 C 
ENDBRANCH  14  16
ENDBRANCH  13  14
ENDBRANCH  12  13
ENDBRANCH   6  12
ENDBRANCH   1   9
BRANCH   4  18
ATOM     18  C   UNL     1       5.345  -2.131  -1.591  0.00  0.00    +0.065 A 
ATOM     19  C   UNL     1       6.548  -2.096  -2.285  0.00  0.00    +0.028 A 
ATOM     20  C   UNL     1       7.271  -3.258  -2.471  0.00  0.00    +0.002 A 
ATOM     21  C   UNL     1       6.792  -4.458  -1.977  0.00  0.00    +0.000 A 
ATOM     22  C   UNL     1       5.592  -4.497  -1.291  0.00  0.00    +0.002 A 
ATOM     23  C   UNL     1       4.868  -3.338  -1.096  0.00  0.00    +0.028 A 
ENDBRANCH   4  18
BRANCH   2  24
ATOM     24  C   UNL     1       3.968   2.558  -1.700  0.00  0.00    +0.035 C 
ATOM     25  C   UNL     1       5.098   3.320  -1.477  0.00  0.00    +0.114 C 
BRANCH  25  26
ATOM     26  C   UNL     1       6.237   2.749  -0.746  0.00  0.00    +0.255 C 
ATOM     27  O   UNL     1       6.139   1.653  -0.226  0.00  0.00    -0.269 OA
ATOM     28  N   UNL     1       7.391   3.439  -0.650  0.00  0.00    -0.304 N 
ATOM     29  H   UNL     1       7.469   4.313  -1.064  0.00  0.00    +0.149 HD
BRANCH  28  30
ATOM     30  C   UNL     1       8.527   2.870   0.079  0.00  0.00    +0.179 C 
BRANCH  30  31
ATOM     31  C   UNL     1       9.684   3.834   0.037  0.00  0.00    +0.122 A 
ATOM     32  C   UNL     1       9.933   4.805   0.934  0.00  0.00    +0.046 A 
ATOM     33  C   UNL     1      11.110   5.463   0.510  0.00  0.00    +0.041 A 
ATOM     34  C   UNL     1      11.510   4.855  -0.621  0.00  0.00    +0.195 A 
ATOM     35  O   UNL     1      10.646   3.865  -0.900  0.00  0.00    -0.466 OA
ENDBRANCH  30  31
ENDBRANCH  28  30
ENDBRANCH  25  26
BRANCH  25  36
ATOM     36  C   UNL     1       5.159   4.667  -1.960  0.00  0.00    +0.104 C 
ATOM     37  N   UNL     1       5.207   5.735  -2.342  0.00  0.00    -0.191 NA
ENDBRANCH  25  36
ENDBRANCH   2  24
TORSDOF 11
