REMARK  Name = ZINC41303725
REMARK  7 active torsions:
REMARK  status: ('A' for Active; 'I' for Inactive)
REMARK    1  A    between atoms: C_1  and  C_2
REMARK    2  A    between atoms: C_2  and  N_3
REMARK    3  A    between atoms: C_10  and  C_24
REMARK    4  A    between atoms: C_11  and  C_13
REMARK    5  A    between atoms: N_15  and  C_16
REMARK    6  A    between atoms: C_18  and  C_23
REMARK    7  A    between atoms: C_21  and  O_22
REMARK                            x       y       z     vdW  Elec       q    Type
REMARK                         _______ _______ _______ _____ _____    ______ ____
ROOT
ATOM      1  N   UNL     1       0.681  -0.531  -1.185  0.00  0.00    -0.299 N 
ATOM      2  C   UNL     1      -0.037  -0.750  -2.314  0.00  0.00    +0.203 A 
ATOM      3  N   UNL     1       0.523  -1.163  -3.418  0.00  0.00    -0.230 NA
ATOM      4  C   UNL     1       1.828  -1.389  -3.495  0.00  0.00    +0.116 A 
ATOM      5  C   UNL     1       2.684  -1.196  -2.386  0.00  0.00    +0.076 A 
ATOM      6  C   UNL     1       2.014  -0.724  -1.153  0.00  0.00    +0.262 A 
ATOM      7  O   UNL     1       2.651  -0.519  -0.135  0.00  0.00    -0.267 OA
ATOM      8  C   UNL     1       4.035  -1.472  -2.607  0.00  0.00    -0.017 A 
ATOM      9  C   UNL     1       4.450  -1.898  -3.834  0.00  0.00    +0.080 A 
ATOM     10  S   UNL     1       2.932  -1.936  -4.772  0.00  0.00    -0.064 S 
ATOM     11  C   UNL     1       5.033  -1.299  -1.490  0.00  0.00    +0.046 C 
ENDROOT
BRANCH   9  12
ATOM     12  C   UNL     1       5.806  -2.240  -4.274  0.00  0.00    +0.255 C 
ATOM     13  O   UNL     1       6.738  -2.157  -3.496  0.00  0.00    -0.269 OA
ATOM     14  N   UNL     1       6.021  -2.646  -5.541  0.00  0.00    -0.278 N 
ATOM     15  H   UNL     1       5.271  -2.775  -6.143  0.00  0.00    +0.155 HD
BRANCH  14  16
ATOM     16  C   UNL     1       7.327  -2.883  -5.989  0.00  0.00    +0.076 A 
ATOM     17  C   UNL     1       8.276  -3.404  -5.121  0.00  0.00    +0.030 A 
ATOM     18  C   UNL     1       9.564  -3.636  -5.565  0.00  0.00    -0.048 A 
ATOM     19  C   UNL     1       9.910  -3.350  -6.873  0.00  0.00    +0.007 A 
ATOM     20  C   UNL     1       8.970  -2.831  -7.743  0.00  0.00    +0.047 A 
ATOM     21  C   UNL     1       7.675  -2.601  -7.308  0.00  0.00    +0.138 A 
ATOM     22  C   UNL     1      10.594  -4.202  -4.621  0.00  0.00    +0.044 C 
BRANCH  21  23
ATOM     23  O   UNL     1       6.748  -2.096  -8.165  0.00  0.00    -0.505 OA
ATOM     24  H   UNL     1       6.708  -1.130  -8.177  0.00  0.00    +0.292 HD
ENDBRANCH  21  23
ENDBRANCH  14  16
ENDBRANCH   9  12
BRANCH   1  26
ATOM     25  C   UNL     1      -0.037   1.462   0.038  0.00  0.00    +0.027 C 
ATOM     26  C   UNL     1      -0.006  -0.068   0.024  0.00  0.00    +0.123 C 
ENDBRANCH   1  26
TORSDOF 4
