REMARK  Name = ZINC03160834
REMARK  1 active torsions:
REMARK  status: ('A' for Active; 'I' for Inactive)
REMARK    1  A    between atoms: C_7  and  C_14
REMARK                            x       y       z     vdW  Elec       q    Type
REMARK                         _______ _______ _______ _____ _____    ______ ____
ROOT
ATOM      1  C   UNL     1      -0.013   1.076   0.008  0.00  0.00    +0.001 A 
ATOM      2  C   UNL     1       1.180   1.783   0.000  0.00  0.00    +0.002 A 
ATOM      3  C   UNL     1       1.179   3.162   0.007  0.00  0.00    +0.026 A 
ATOM      4  C   UNL     1      -0.026   3.856   0.022  0.00  0.00    +0.051 A 
ATOM      5  C   UNL     1      -1.231   3.139   0.030  0.00  0.00    +0.009 A 
ATOM      6  C   UNL     1      -1.217   1.747   0.017  0.00  0.00    +0.010 A 
ATOM      7  C   UNL     1      -2.311   4.146   0.046  0.00  0.00    +0.029 A 
ATOM      8  C   UNL     1      -1.683   5.389   0.047  0.00  0.00    +0.108 A 
ATOM      9  N   UNL     1      -0.331   5.207   0.033  0.00  0.00    -0.328 N 
ATOM     10  C   UNL     1       0.644   6.310   0.030  0.00  0.00    +0.125 C 
ATOM     11  C   UNL     1      -0.105   7.598  -0.337  0.00  0.00    +0.040 C 
ATOM     12  C   UNL     1      -1.392   7.673   0.491  0.00  0.00    +0.104 C 
ATOM     13  N   UNL     1      -2.314   6.612   0.060  0.00  0.00    -0.330 N 
ATOM     14  H   UNL     1      -2.712   6.823  -0.843  0.00  0.00    +0.147 HD
ENDROOT
BRANCH   7  15
ATOM     15  C   UNL     1      -3.696   3.900   0.058  0.00  0.00    +0.064 C 
ATOM     16  S   UNL     1      -4.279   2.290   0.055  0.00  0.00    -0.060 S 
ENDBRANCH   7  15
TORSDOF 1
