REMARK  Name = ZINC40377459
REMARK  6 active torsions:
REMARK  status: ('A' for Active; 'I' for Inactive)
REMARK    1  A    between atoms: C_4  and  C_7
REMARK    2  A    between atoms: C_7  and  C_9
REMARK    3  A    between atoms: C_7  and  N_13
REMARK    4  A    between atoms: N_10  and  O_11
REMARK    5  A    between atoms: N_13  and  S_14
REMARK    6  A    between atoms: S_14  and  C_17
REMARK                            x       y       z     vdW  Elec       q    Type
REMARK                         _______ _______ _______ _____ _____    ______ ____
ROOT
ATOM      1  C   UNL     1       3.672  -0.782   0.023  0.00  0.00    +0.172 C 
ENDROOT
BRANCH   1   5
ATOM      2  C   UNL     1       0.391   1.938  -0.269  0.00  0.00    +0.000 A 
ATOM      3  C   UNL     1       1.680   2.421  -0.138  0.00  0.00    +0.000 A 
ATOM      4  C   UNL     1       2.741   1.541  -0.044  0.00  0.00    +0.005 A 
ATOM      5  C   UNL     1       2.514   0.177  -0.079  0.00  0.00    -0.022 A 
ATOM      6  C   UNL     1       1.226  -0.305  -0.208  0.00  0.00    +0.005 A 
ATOM      7  C   UNL     1       0.164   0.575  -0.305  0.00  0.00    +0.000 A 
ENDBRANCH   1   5
BRANCH   1   8
ATOM      8  C   UNL     1       3.767  -1.306   1.433  0.00  0.00    +0.155 C 
ATOM      9  N   UNL     1       3.775  -2.579   1.650  0.00  0.00    -0.075 NA
ATOM     10  N   UNL     1       3.846  -0.427   2.490  0.00  0.00    -0.342 N 
ATOM     11  H   UNL     1       3.840   0.529   2.328  0.00  0.00    +0.144 HD
ATOM     12  H   UNL     1       3.907  -0.764   3.398  0.00  0.00    +0.144 HD
BRANCH   9  13
ATOM     13  O   UNL     1       3.864  -3.071   2.975  0.00  0.00    -0.408 OA
ATOM     14  H   UNL     1       3.863  -4.036   3.037  0.00  0.00    +0.328 HD
ENDBRANCH   9  13
ENDBRANCH   1   8
BRANCH   1  15
ATOM     15  N   UNL     1       3.462  -1.900  -0.900  0.00  0.00    -0.180 NA
ATOM     16  H   UNL     1       2.568  -2.245  -1.048  0.00  0.00    +0.149 HD
BRANCH  15  17
ATOM     17  S   UNL     1       4.752  -2.575  -1.690  0.00  0.00    +0.033 S 
ATOM     18  O   UNL     1       5.702  -2.845  -0.668  0.00  0.00    -0.158 OA
ATOM     19  O   UNL     1       4.194  -3.631  -2.459  0.00  0.00    -0.158 OA
BRANCH  17  20
ATOM     20  C   UNL     1       5.367  -1.264  -2.783  0.00  0.00    +0.148 C 
ATOM     21  C   UNL     1       4.250  -0.826  -3.732  0.00  0.00    +0.028 C 
ATOM     22  C   UNL     1       4.768   0.280  -4.654  0.00  0.00    +0.002 C 
ATOM     23  C   UNL     1       5.952  -0.248  -5.468  0.00  0.00    +0.000 C 
ATOM     24  C   UNL     1       7.069  -0.686  -4.518  0.00  0.00    +0.002 C 
ATOM     25  C   UNL     1       6.550  -1.791  -3.596  0.00  0.00    +0.028 C 
ENDBRANCH  17  20
ENDBRANCH  15  17
ENDBRANCH   1  15
TORSDOF 6
