REMARK  Name = ZINC02358961
REMARK  11 active torsions:
REMARK  status: ('A' for Active; 'I' for Inactive)
REMARK    1  A    between atoms: C_1  and  C_2
REMARK    2  A    between atoms: C_2  and  C_3
REMARK    3  A    between atoms: C_3  and  C_4
REMARK    4  A    between atoms: C_4  and  C_5
REMARK    5  A    between atoms: C_5  and  O_6
REMARK    6  A    between atoms: O_6  and  C_7
REMARK    7  A    between atoms: C_10  and  C_13
REMARK    8  A    between atoms: C_16  and  C_34
REMARK    9  A    between atoms: N_18  and  C_25
REMARK   10  A    between atoms: C_30  and  C_32
REMARK   11  A    between atoms: C_30  and  C_33
REMARK                            x       y       z     vdW  Elec       q    Type
REMARK                         _______ _______ _______ _____ _____    ______ ____
ROOT
ATOM      1  C   UNL     1       3.933  -6.706  -6.569  0.00  0.00    +0.112 C 
ATOM      2  C   UNL     1       2.972  -7.479  -7.417  0.00  0.00    +0.032 A 
ATOM      3  C   UNL     1       1.599  -7.157  -7.475  0.00  0.00    +0.066 A 
ATOM      4  N   UNL     1       1.009  -7.991  -8.283  0.00  0.00    -0.174 NA
ATOM      5  N   UNL     1       1.970  -8.875  -8.772  0.00  0.00    -0.247 N 
ATOM      6  C   UNL     1       3.180  -8.540  -8.227  0.00  0.00    +0.128 A 
ATOM      7  N   UNL     1       4.319  -9.244  -8.542  0.00  0.00    -0.270 N 
ATOM      8  C   UNL     1       5.560  -9.198  -8.162  0.00  0.00    +0.228 C 
ATOM      9  O   UNL     1       6.263 -10.081  -8.607  0.00  0.00    -0.275 OA
ATOM     10  C   UNL     1       6.253  -8.241  -7.274  0.00  0.00    +0.166 C 
ATOM     11  S   UNL     1       5.243  -7.721  -5.880  0.00  0.00    -0.138 S 
ATOM     12  C   UNL     1       0.928  -6.035  -6.726  0.00  0.00    +0.068 C 
ATOM     13  H   UNL     1       4.157  -9.937  -9.201  0.00  0.00    +0.156 HD
ENDROOT
BRANCH   5  14
ATOM     14  C   UNL     1       1.726  -9.974  -9.710  0.00  0.00    +0.114 C 
ATOM     15  C   UNL     1       1.156  -9.415 -11.017  0.00  0.00    +0.055 C 
ATOM     16  C   UNL     1       0.830 -10.576 -11.960  0.00  0.00    +0.162 C 
ATOM     17  O   UNL     1      -0.090 -11.463 -11.322  0.00  0.00    -0.374 OA
ATOM     18  C   UNL     1       0.406 -12.053 -10.119  0.00  0.00    +0.066 C 
ATOM     19  C   UNL     1       0.716 -10.952  -9.101  0.00  0.00    +0.061 C 
ATOM     20  C   UNL     1      -0.648 -13.000  -9.542  0.00  0.00    +0.041 C 
ATOM     21  C   UNL     1       1.684 -12.837 -10.425  0.00  0.00    +0.041 C 
ENDBRANCH   5  14
BRANCH   1  25
ATOM     22  C   UNL     1       1.774  -4.887  -3.361  0.00  0.00    +0.121 A 
ATOM     23  C   UNL     1       2.271  -4.106  -4.395  0.00  0.00    +0.046 A 
ATOM     24  C   UNL     1       2.969  -4.697  -5.431  0.00  0.00    +0.008 A 
ATOM     25  C   UNL     1       3.172  -6.065  -5.438  0.00  0.00    -0.030 A 
ATOM     26  C   UNL     1       2.678  -6.845  -4.409  0.00  0.00    +0.008 A 
ATOM     27  C   UNL     1       1.985  -6.258  -3.368  0.00  0.00    +0.046 A 
BRANCH  22  28
ATOM     28  O   UNL     1       1.088  -4.308  -2.341  0.00  0.00    -0.492 OA
BRANCH  28  29
ATOM     29  C   UNL     1       0.910  -2.892  -2.400  0.00  0.00    +0.229 C 
BRANCH  29  30
ATOM     30  C   UNL     1       0.120  -2.425  -1.175  0.00  0.00    +0.041 C 
BRANCH  30  31
ATOM     31  C   UNL     1      -0.070  -0.909  -1.238  0.00  0.00    +0.003 C 
BRANCH  31  33
ATOM     32  C   UNL     1      -1.051   1.074  -0.077  0.00  0.00    +0.004 C 
ATOM     33  C   UNL     1      -0.860  -0.443  -0.013  0.00  0.00    -0.003 C 
ENDBRANCH  31  33
ENDBRANCH  30  31
ENDBRANCH  29  30
ENDBRANCH  28  29
ENDBRANCH  22  28
ENDBRANCH   1  25
TORSDOF 7
