REMARK  Name = ZINC52740484
REMARK  9 active torsions:
REMARK  status: ('A' for Active; 'I' for Inactive)
REMARK    1  A    between atoms: C_1  and  C_2
REMARK    2  A    between atoms: C_7  and  C_9
REMARK    3  A    between atoms: C_7  and  N_27
REMARK    4  A    between atoms: C_9  and  N_10
REMARK    5  A    between atoms: C_11  and  C_13
REMARK    6  A    between atoms: N_15  and  C_16
REMARK    7  A    between atoms: C_20  and  C_22
REMARK    8  A    between atoms: N_27  and  C_28
REMARK    9  A    between atoms: N_27  and  C_29
REMARK                            x       y       z     vdW  Elec       q    Type
REMARK                         _______ _______ _______ _____ _____    ______ ____
ROOT
ATOM      1  N   UNL     1      -0.724  -4.083   1.385  0.00  0.00    -0.309 N 
ATOM      2  C   UNL     1      -1.866  -4.710   1.040  0.00  0.00    +0.299 C 
ATOM      3  O   UNL     1      -2.864  -4.063   0.800  0.00  0.00    -0.265 OA
ATOM      4  H   UNL     1       0.074  -4.600   1.577  0.00  0.00    +0.149 HD
ENDROOT
BRANCH   2   5
ATOM      5  C   UNL     1      -1.903  -6.200   0.954  0.00  0.00    +0.303 C 
ATOM      6  O   UNL     1      -0.904  -6.847   1.194  0.00  0.00    -0.265 OA
ATOM      7  N   UNL     1      -3.045  -6.827   0.609  0.00  0.00    -0.278 N 
ATOM      8  H   UNL     1      -3.861  -6.317   0.490  0.00  0.00    +0.155 HD
BRANCH   7   9
ATOM      9  C   UNL     1      -3.054  -8.212   0.424  0.00  0.00    +0.034 A 
ATOM     10  C   UNL     1      -4.189  -8.949   0.740  0.00  0.00    +0.023 A 
ATOM     11  C   UNL     1      -4.202 -10.319   0.559  0.00  0.00    +0.002 A 
ATOM     12  C   UNL     1      -3.088 -10.965   0.062  0.00  0.00    +0.012 A 
ATOM     13  C   UNL     1      -1.942 -10.234  -0.258  0.00  0.00    +0.021 A 
ATOM     14  C   UNL     1      -1.931  -8.851  -0.081  0.00  0.00    +0.035 A 
BRANCH  13  15
ATOM     15  C   UNL     1      -0.747 -10.924  -0.788  0.00  0.00    +0.155 A 
ATOM     16  C   UNL     1      -0.618 -12.255  -1.022  0.00  0.00    +0.160 A 
ATOM     17  N   UNL     1       0.618 -12.463  -1.501  0.00  0.00    -0.224 NA
ATOM     18  C   UNL     1       1.242 -11.320  -1.568  0.00  0.00    +0.308 A 
ATOM     19  O   UNL     1       0.424 -10.349  -1.140  0.00  0.00    -0.442 OA
ENDBRANCH  13  15
ENDBRANCH   7   9
ENDBRANCH   2   5
BRANCH   1  20
ATOM     20  C   UNL     1      -0.687  -2.621   1.470  0.00  0.00    +0.093 C 
BRANCH  20  26
ATOM     21  C   UNL     1       0.270   1.562   0.905  0.00  0.00    +0.007 C 
ATOM     22  C   UNL     1       0.252   0.046   0.700  0.00  0.00    -0.015 C 
ATOM     23  C   UNL     1       1.156  -0.320  -0.479  0.00  0.00    +0.003 C 
ATOM     24  C   UNL     1       1.138  -1.837  -0.683  0.00  0.00    -0.001 C 
ATOM     25  C   UNL     1       1.647  -2.528   0.583  0.00  0.00    -0.010 C 
ATOM     26  C   UNL     1       0.743  -2.162   1.762  0.00  0.00    -0.050 C 
ATOM     27  C   UNL     1       0.761  -0.646   1.967  0.00  0.00    -0.007 C 
BRANCH  26  28
ATOM     28  N   UNL     1       1.231  -2.826   2.978  0.00  0.00    +0.381 N 
ATOM     29  C   UNL     1       2.570  -2.320   3.308  0.00  0.00    -0.096 C 
ATOM     30  C   UNL     1       0.314  -2.546   4.091  0.00  0.00    -0.096 C 
ATOM     31  H   UNL     1       1.277  -3.822   2.822  0.00  0.00    -0.082 HD
ENDBRANCH  26  28
ENDBRANCH  20  26
ENDBRANCH   1  20
TORSDOF 6
