REMARK  Name = ZINC47264802
REMARK  6 active torsions:
REMARK  status: ('A' for Active; 'I' for Inactive)
REMARK    1  A    between atoms: C_1  and  C_2
REMARK    2  A    between atoms: C_4  and  C_8
REMARK    3  A    between atoms: C_13  and  N_14
REMARK    4  A    between atoms: C_15  and  C_17
REMARK    5  A    between atoms: C_18  and  C_19
REMARK    6  A    between atoms: N_22  and  C_24
REMARK                            x       y       z     vdW  Elec       q    Type
REMARK                         _______ _______ _______ _____ _____    ______ ____
ROOT
ATOM      1  N   UNL     1      -0.175  -1.743  -3.653  0.00  0.00    -0.281 N 
ATOM      2  C   UNL     1      -0.378  -1.608  -4.979  0.00  0.00    +0.241 C 
ATOM      3  O   UNL     1      -0.554  -2.594  -5.671  0.00  0.00    -0.270 OA
ATOM      4  H   UNL     1      -0.113  -0.957  -3.089  0.00  0.00    +0.155 HD
ENDROOT
BRANCH   1  10
ATOM      5  C   UNL     1      -0.548  -3.265  -1.804  0.00  0.00    +0.040 A 
ATOM      6  C   UNL     1      -0.427  -4.542  -1.256  0.00  0.00    +0.013 A 
ATOM      7  C   UNL     1       0.179  -5.547  -1.979  0.00  0.00    +0.001 A 
ATOM      8  C   UNL     1       0.670  -5.296  -3.249  0.00  0.00    +0.002 A 
ATOM      9  C   UNL     1       0.557  -4.036  -3.804  0.00  0.00    +0.024 A 
ATOM     10  C   UNL     1      -0.055  -3.015  -3.092  0.00  0.00    +0.044 A 
BRANCH   5  14
ATOM     11  C   UNL     1      -2.252   1.242  -0.521  0.00  0.00    +0.090 C 
ATOM     12  C   UNL     1      -1.943  -0.232  -0.463  0.00  0.00    +0.148 A 
ATOM     13  N   UNL     1      -1.297  -0.921  -1.400  0.00  0.00    -0.212 NA
ATOM     14  C   UNL     1      -1.198  -2.184  -1.034  0.00  0.00    +0.158 A 
ATOM     15  N   UNL     1      -1.796  -2.312   0.173  0.00  0.00    -0.258 N 
ATOM     16  H   UNL     1      -1.882  -3.125   0.696  0.00  0.00    +0.191 HD
ATOM     17  N   UNL     1      -2.263  -1.034   0.518  0.00  0.00    -0.157 NA
ENDBRANCH   5  14
ENDBRANCH   1  10
BRANCH   2  18
ATOM     18  C   UNL     1      -0.385  -0.318  -5.567  0.00  0.00    +0.068 C 
ATOM     19  C   UNL     1      -0.588  -0.183  -6.895  0.00  0.00    +0.016 C 
BRANCH  19  20
ATOM     20  C   UNL     1      -0.596   1.154  -7.505  0.00  0.00    +0.013 A 
ATOM     21  C   UNL     1      -0.401   2.385  -6.834  0.00  0.00    +0.142 A 
ATOM     22  N   UNL     1      -0.479   3.343  -7.715  0.00  0.00    -0.174 NA
ATOM     23  N   UNL     1      -0.725   2.785  -8.975  0.00  0.00    -0.239 N 
ATOM     24  C   UNL     1      -0.790   1.446  -8.843  0.00  0.00    +0.122 A 
BRANCH  23  25
ATOM     25  C   UNL     1      -0.872   3.498 -10.172  0.00  0.00    +0.065 A 
ATOM     26  C   UNL     1      -1.120   2.821 -11.359  0.00  0.00    +0.028 A 
ATOM     27  C   UNL     1      -1.266   3.526 -12.537  0.00  0.00    +0.002 A 
ATOM     28  C   UNL     1      -1.164   4.905 -12.536  0.00  0.00    +0.000 A 
ATOM     29  C   UNL     1      -0.916   5.582 -11.356  0.00  0.00    +0.002 A 
ATOM     30  C   UNL     1      -0.776   4.883 -10.174  0.00  0.00    +0.028 A 
ENDBRANCH  23  25
ENDBRANCH  19  20
ENDBRANCH   2  18
TORSDOF 5
