REMARK  Name = ZINC16183085
REMARK  4 active torsions:
REMARK  status: ('A' for Active; 'I' for Inactive)
REMARK    1  A    between atoms: C_4  and  C_7
REMARK    2  A    between atoms: C_13  and  C_14
REMARK    3  A    between atoms: C_17  and  C_19
REMARK    4  A    between atoms: C_23  and  N_25
REMARK                            x       y       z     vdW  Elec       q    Type
REMARK                         _______ _______ _______ _____ _____    ______ ____
ROOT
ATOM      1  C   UNL     1       3.838  -0.539   1.664  0.00  0.00    +0.130 C 
ATOM      2  N   UNL     1       3.989  -1.792   1.307  0.00  0.00    -0.164 NA
ATOM      3  N   UNL     1       5.229  -2.288   0.964  0.00  0.00    -0.152 N 
ATOM      4  C   UNL     1       5.491  -3.587   0.479  0.00  0.00    +0.153 C 
ATOM      5  N   UNL     1       4.586  -4.335  -0.099  0.00  0.00    -0.283 NA
ATOM      6  C   UNL     1       6.898  -4.022   0.687  0.00  0.00    +0.084 C 
ATOM      7  C   UNL     1       7.224  -5.348   0.932  0.00  0.00    +0.063 C 
ATOM      8  C   UNL     1       7.933  -2.966   0.620  0.00  0.00    +0.273 C 
ATOM      9  O   UNL     1       9.086  -3.234   0.323  0.00  0.00    -0.268 OA
ATOM     10  N   UNL     1       7.565  -1.698   0.894  0.00  0.00    -0.152 NA
ATOM     11  C   UNL     1       6.298  -1.426   1.081  0.00  0.00    +0.181 C 
ATOM     12  S   UNL     1       5.507   0.090   1.551  0.00  0.00    -0.033 S 
ATOM     13  H   UNL     1       3.681  -4.003  -0.210  0.00  0.00    +0.188 HD
ENDROOT
BRANCH   1  17
ATOM     14  C   UNL     1       0.286   1.506   2.782  0.00  0.00    +0.000 A 
ATOM     15  C   UNL     1       1.492   2.182   2.759  0.00  0.00    +0.001 A 
ATOM     16  C   UNL     1       2.649   1.524   2.397  0.00  0.00    +0.010 A 
ATOM     17  C   UNL     1       2.601   0.173   2.054  0.00  0.00    +0.009 A 
ATOM     18  C   UNL     1       1.382  -0.504   2.079  0.00  0.00    +0.010 A 
ATOM     19  C   UNL     1       0.231   0.166   2.442  0.00  0.00    +0.001 A 
ENDBRANCH   1  17
BRANCH   7  20
ATOM     20  C   UNL     1       6.208  -6.289   1.167  0.00  0.00    +0.129 A 
ATOM     21  C   UNL     1       6.381  -7.660   1.292  0.00  0.00    +0.050 A 
ATOM     22  C   UNL     1       5.119  -8.207   1.517  0.00  0.00    +0.050 A 
ATOM     23  C   UNL     1       4.220  -7.160   1.524  0.00  0.00    +0.136 A 
ATOM     24  O   UNL     1       4.894  -6.015   1.317  0.00  0.00    -0.455 OA
BRANCH  23  25
ATOM     25  C   UNL     1       2.764  -7.277   1.728  0.00  0.00    +0.020 A 
ATOM     26  C   UNL     1       2.184  -8.530   1.945  0.00  0.00    +0.013 A 
ATOM     27  C   UNL     1       0.823  -8.632   2.136  0.00  0.00    +0.023 A 
ATOM     28  C   UNL     1       0.030  -7.496   2.114  0.00  0.00    +0.071 A 
ATOM     29  C   UNL     1       0.598  -6.252   1.899  0.00  0.00    +0.145 A 
ATOM     30  C   UNL     1       1.959  -6.135   1.712  0.00  0.00    +0.045 A 
ATOM     31 CL   UNL     1      -1.684  -7.634   2.355  0.00  0.00    -0.081 Cl
BRANCH  29  32
ATOM     32  N   UNL     1      -0.257  -5.043   1.877  0.00  0.00    +0.058 N 
ATOM     33  O   UNL     1       0.238  -3.956   1.690  0.00  0.00    -0.126 OA
ATOM     34  O   UNL     1      -1.450  -5.144   2.046  0.00  0.00    -0.126 OA
ENDBRANCH  29  32
ENDBRANCH  23  25
ENDBRANCH   7  20
TORSDOF 4
