REMARK  Name = ZINC19205187
REMARK  4 active torsions:
REMARK  status: ('A' for Active; 'I' for Inactive)
REMARK    1  A    between atoms: C_1  and  C_2
REMARK    2  A    between atoms: C_3  and  C_23
REMARK    3  A    between atoms: C_11  and  N_15
REMARK    4  A    between atoms: C_20  and  C_22
REMARK                            x       y       z     vdW  Elec       q    Type
REMARK                         _______ _______ _______ _____ _____    ______ ____
ROOT
ATOM      1  C   UNL     1       1.830   5.208   0.247  0.00  0.00    +0.045 C 
ATOM      2  C   UNL     1       0.737   4.174   0.177  0.00  0.00    -0.030 A 
ATOM      3  C   UNL     1      -0.585   4.575   0.182  0.00  0.00    -0.004 A 
ATOM      4  C   UNL     1      -1.599   3.630   0.120  0.00  0.00    +0.134 A 
ATOM      5  C   UNL     1      -1.263   2.268   0.052  0.00  0.00    +0.059 A 
ATOM      6  C   UNL     1       0.075   1.873   0.051  0.00  0.00    +0.030 A 
ATOM      7  C   UNL     1       1.068   2.829   0.110  0.00  0.00    +0.022 A 
ATOM      8 BR   UNL     1       2.885   2.304   0.101  0.00  0.00    -0.050 Br
ATOM      9  C   UNL     1      -2.344   1.267   0.007  0.00  0.00    +0.157 C 
ATOM     10  O   UNL     1      -2.127   0.085   0.171  0.00  0.00    -0.294 OA
ATOM     11  C   UNL     1      -3.743   1.793  -0.259  0.00  0.00    +0.043 C 
ATOM     12  C   UNL     1      -3.895   3.099   0.534  0.00  0.00    +0.222 C 
ATOM     13  O   UNL     1      -2.893   4.026   0.117  0.00  0.00    -0.492 OA
ATOM     14  C   UNL     1      -0.925   6.041   0.256  0.00  0.00    +0.048 C 
ENDROOT
BRANCH  11  15
ATOM     15  N   UNL     1      -3.913   2.057  -1.694  0.00  0.00    +0.390 N 
ATOM     16  C   UNL     1      -2.801   2.860  -2.217  0.00  0.00    -0.077 C 
ATOM     17  C   UNL     1      -2.935   2.992  -3.736  0.00  0.00    -0.019 C 
ATOM     18  C   UNL     1      -4.272   3.660  -4.069  0.00  0.00    -0.003 C 
ATOM     19  C   UNL     1      -5.411   2.829  -3.472  0.00  0.00    -0.016 C 
ATOM     20  C   UNL     1      -5.205   2.702  -1.961  0.00  0.00    -0.071 C 
ATOM     21  C   UNL     1      -6.331   1.856  -1.363  0.00  0.00    -0.013 C 
ATOM     22  H   UNL     1      -3.906   1.091  -2.220  0.00  0.00    -0.080 HD
ENDBRANCH  11  15
TORSDOF 1
