REMARK  Name = ZINC29589206
REMARK  4 active torsions:
REMARK  status: ('A' for Active; 'I' for Inactive)
REMARK    1  A    between atoms: C_3  and  N_8
REMARK    2  A    between atoms: C_12  and  S_13
REMARK    3  A    between atoms: S_13  and  C_14
REMARK    4  A    between atoms: C_14  and  C_15
REMARK                            x       y       z     vdW  Elec       q    Type
REMARK                         _______ _______ _______ _____ _____    ______ ____
ROOT
ATOM      1  C   UNL     1       6.548  -0.016   3.882  0.00  0.00    +0.143 A 
ATOM      2  N   UNL     1       6.213   0.324   5.114  0.00  0.00    -0.216 NA
ATOM      3  C   UNL     1       6.570  -0.395   6.166  0.00  0.00    +0.128 A 
ATOM      4  C   UNL     1       7.340  -1.575   5.968  0.00  0.00    +0.051 A 
ATOM      5  C   UNL     1       7.845  -2.518   6.968  0.00  0.00    -0.025 A 
ATOM      6  C   UNL     1       8.557  -3.569   6.512  0.00  0.00    -0.004 A 
ATOM      7  S   UNL     1       8.597  -3.372   4.751  0.00  0.00    -0.073 S 
ATOM      8  C   UNL     1       7.657  -1.873   4.628  0.00  0.00    +0.114 A 
ATOM      9  N   UNL     1       7.255  -1.101   3.636  0.00  0.00    -0.224 NA
ATOM     10  C   UNL     1       9.179  -4.664   7.324  0.00  0.00    +0.043 C 
ATOM     11  C   UNL     1       9.207  -4.222   8.794  0.00  0.00    +0.005 C 
ATOM     12  C   UNL     1       7.827  -3.673   9.168  0.00  0.00    +0.005 C 
ATOM     13  C   UNL     1       7.591  -2.338   8.462  0.00  0.00    +0.037 C 
ATOM     14  N   UNL     1       6.200  -0.005   7.440  0.00  0.00    -0.343 N 
ATOM     15  H   UNL     1       5.497   0.653   7.561  0.00  0.00    +0.144 HD
ATOM     16  H   UNL     1       6.643  -0.389   8.213  0.00  0.00    +0.144 HD
ENDROOT
BRANCH   1  17
ATOM     17  C   UNL     1       6.107   0.853   2.732  0.00  0.00    +0.153 C 
BRANCH  17  18
ATOM     18  S   UNL     1       4.488   0.292   2.138  0.00  0.00    -0.078 S 
BRANCH  18  23
ATOM     19  N   UNL     1       2.990   1.378   0.035  0.00  0.00    -0.277 N 
ATOM     20  C   UNL     1       3.141   2.412  -0.851  0.00  0.00    +0.230 A 
ATOM     21  N   UNL     1       4.287   2.977  -0.596  0.00  0.00    -0.137 NA
ATOM     22  N   UNL     1       4.868   2.378   0.382  0.00  0.00    -0.122 NA
ATOM     23  C   UNL     1       4.116   1.392   0.812  0.00  0.00    +0.196 A 
BRANCH  19  26
ATOM     24  C   UNL     1      -0.458   0.114   0.268  0.00  0.00    +0.003 A 
ATOM     25  C   UNL     1       0.609   0.987   0.176  0.00  0.00    +0.026 A 
ATOM     26  C   UNL     1       1.906   0.494   0.129  0.00  0.00    +0.051 A 
ATOM     27  C   UNL     1       2.127  -0.876   0.175  0.00  0.00    +0.046 A 
ATOM     28  C   UNL     1       1.056  -1.745   0.268  0.00  0.00    +0.043 A 
ATOM     29  C   UNL     1      -0.235  -1.250   0.314  0.00  0.00    +0.020 A 
ATOM     30 CL   UNL     1       1.332  -3.458   0.325  0.00  0.00    -0.083 Cl
ENDBRANCH  19  26
ENDBRANCH  18  23
ENDBRANCH  17  18
ENDBRANCH   1  17
TORSDOF 4
