REMARK  Name = ZINC25724708
REMARK  10 active torsions:
REMARK  status: ('A' for Active; 'I' for Inactive)
REMARK    1  A    between atoms: C_1  and  C_2
REMARK    2  A    between atoms: C_3  and  C_26
REMARK    3  A    between atoms: N_9  and  C_25
REMARK    4  A    between atoms: C_10  and  S_12
REMARK    5  A    between atoms: S_12  and  C_13
REMARK    6  A    between atoms: C_13  and  C_15
REMARK    7  A    between atoms: C_13  and  C_16
REMARK    8  A    between atoms: N_21  and  C_22
REMARK    9  A    between atoms: C_22  and  C_23
REMARK   10  A    between atoms: C_22  and  C_24
REMARK                            x       y       z     vdW  Elec       q    Type
REMARK                         _______ _______ _______ _____ _____    ______ ____
ROOT
ATOM      1  S   UNL     1      -0.753   3.389   1.277  0.00  0.00    -0.075 S 
ENDROOT
BRANCH   1  11
ATOM      2  C   UNL     1      -4.633   5.508  -4.101  0.00  0.00    +0.045 C 
ATOM      3  C   UNL     1      -4.193   4.191  -3.517  0.00  0.00    -0.026 A 
ATOM      4  C   UNL     1      -4.576   3.037  -4.082  0.00  0.00    -0.008 A 
ATOM      5  S   UNL     1      -3.817   1.797  -3.050  0.00  0.00    -0.073 S 
ATOM      6  C   UNL     1      -3.006   2.866  -1.888  0.00  0.00    +0.117 A 
ATOM      7  C   UNL     1      -3.348   4.156  -2.336  0.00  0.00    +0.075 A 
ATOM      8  C   UNL     1      -2.819   5.242  -1.569  0.00  0.00    +0.263 A 
ATOM      9  O   UNL     1      -3.062   6.395  -1.881  0.00  0.00    -0.267 OA
ATOM     10  N   UNL     1      -2.054   4.973  -0.495  0.00  0.00    -0.290 N 
ATOM     11  C   UNL     1      -1.766   3.689  -0.134  0.00  0.00    +0.173 A 
ATOM     12  N   UNL     1      -2.240   2.671  -0.822  0.00  0.00    -0.216 NA
ATOM     13  C   UNL     1      -1.515   6.081   0.298  0.00  0.00    +0.154 C 
ATOM     14  C   UNL     1      -5.442   2.835  -5.300  0.00  0.00    +0.052 C 
ENDBRANCH   1  11
BRANCH   1  15
ATOM     15  C   UNL     1      -0.729   1.579   1.267  0.00  0.00    +0.137 C 
ATOM     16  C   UNL     1      -0.013   1.086   0.008  0.00  0.00    +0.029 C 
BRANCH  15  17
ATOM     17  C   UNL     1       0.000   1.080   2.488  0.00  0.00    +0.233 C 
ATOM     18  O   UNL     1       0.757   1.815   3.085  0.00  0.00    -0.274 OA
ATOM     19  N   UNL     1      -0.190  -0.184   2.916  0.00  0.00    -0.239 N 
ATOM     20  C   UNL     1       0.462  -0.630   4.008  0.00  0.00    +0.306 C 
ATOM     21  O   UNL     1       1.221   0.107   4.606  0.00  0.00    -0.252 OA
ATOM     22  N   UNL     1       0.273  -1.894   4.436  0.00  0.00    -0.297 N 
ATOM     23  H   UNL     1      -0.876  -0.851   2.374  0.00  0.00    +0.159 HD
ATOM     24  H   UNL     1      -0.414  -2.561   3.894  0.00  0.00    +0.151 HD
BRANCH  22  25
ATOM     25  C   UNL     1       0.981  -2.379   5.623  0.00  0.00    +0.068 C 
ATOM     26  C   UNL     1       0.198  -1.992   6.879  0.00  0.00    +0.027 C 
ATOM     27  C   UNL     1       1.111  -3.902   5.552  0.00  0.00    +0.027 C 
ENDBRANCH  22  25
ENDBRANCH  15  17
ENDBRANCH   1  15
TORSDOF 4
