REMARK  Name = ZINC16158255
REMARK  8 active torsions:
REMARK  status: ('A' for Active; 'I' for Inactive)
REMARK    1  A    between atoms: C_4  and  S_7
REMARK    2  A    between atoms: S_7  and  O_10
REMARK    3  A    between atoms: O_10  and  C_11
REMARK    4  A    between atoms: C_14  and  C_17
REMARK    5  A    between atoms: C_18  and  C_19
REMARK    6  A    between atoms: C_18  and  C_21
REMARK    7  A    between atoms: N_23  and  C_24
REMARK    8  A    between atoms: C_29  and  C_30
REMARK                            x       y       z     vdW  Elec       q    Type
REMARK                         _______ _______ _______ _____ _____    ______ ____
ROOT
ATOM      1  C   UNL     1      -0.011   1.093   0.055  0.00  0.00    +0.032 C 
ATOM      2  C   UNL     1      -1.130   1.620   0.664  0.00  0.00    +0.114 C 
ENDROOT
BRANCH   1   6
ATOM      3  C   UNL     1       3.615   3.265   0.057  0.00  0.00    +0.157 A 
ATOM      4  C   UNL     1       3.639   1.877   0.147  0.00  0.00    +0.049 A 
ATOM      5  C   UNL     1       2.470   1.170   0.147  0.00  0.00    +0.011 A 
ATOM      6  C   UNL     1       1.245   1.846   0.056  0.00  0.00    -0.023 A 
ATOM      7  C   UNL     1       1.228   3.245  -0.041  0.00  0.00    +0.011 A 
ATOM      8  C   UNL     1       2.403   3.942  -0.034  0.00  0.00    +0.049 A 
BRANCH   3   9
ATOM      9  O   UNL     1       4.779   3.962   0.058  0.00  0.00    -0.342 OA
BRANCH   9  10
ATOM     10  S   UNL     1       5.364   4.192  -1.328  0.00  0.00    +0.151 S 
ATOM     11  O   UNL     1       6.661   4.740  -1.136  0.00  0.00    -0.131 OA
ATOM     12  O   UNL     1       5.144   2.997  -2.065  0.00  0.00    -0.131 OA
BRANCH  10  16
ATOM     13  C   UNL     1       2.880   7.412  -3.315  0.00  0.00    +0.000 A 
ATOM     14  C   UNL     1       3.989   7.758  -2.565  0.00  0.00    +0.002 A 
ATOM     15  C   UNL     1       4.747   6.775  -1.958  0.00  0.00    +0.030 A 
ATOM     16  C   UNL     1       4.397   5.445  -2.102  0.00  0.00    +0.128 A 
ATOM     17  C   UNL     1       3.292   5.099  -2.856  0.00  0.00    +0.030 A 
ATOM     18  C   UNL     1       2.530   6.083  -3.458  0.00  0.00    +0.002 A 
ENDBRANCH  10  16
ENDBRANCH   9  10
ENDBRANCH   3   9
ENDBRANCH   1   6
BRANCH   2  19
ATOM     19  C   UNL     1      -2.368   0.829   0.737  0.00  0.00    +0.259 C 
ATOM     20  O   UNL     1      -2.404  -0.289   0.261  0.00  0.00    -0.269 OA
ATOM     21  N   UNL     1      -3.462   1.344   1.332  0.00  0.00    -0.280 N 
ATOM     22  H   UNL     1      -3.461   2.266   1.636  0.00  0.00    +0.155 HD
BRANCH  21  23
ATOM     23  C   UNL     1      -4.594   0.555   1.511  0.00  0.00    +0.048 A 
ATOM     24  C   UNL     1      -4.476  -0.827   1.586  0.00  0.00    +0.024 A 
ATOM     25  C   UNL     1      -5.598  -1.608   1.769  0.00  0.00    +0.002 A 
ATOM     26  C   UNL     1      -6.851  -1.024   1.869  0.00  0.00    +0.001 A 
ATOM     27  C   UNL     1      -6.989   0.345   1.791  0.00  0.00    +0.017 A 
ATOM     28  C   UNL     1      -5.861   1.150   1.611  0.00  0.00    +0.084 A 
BRANCH  28  29
ATOM     29  C   UNL     1      -6.001   2.614   1.527  0.00  0.00    +0.388 C 
ATOM     30  O   UNL     1      -5.033   3.304   1.273  0.00  0.00    -0.241 OA
ATOM     31  O   UNL     1      -7.202   3.189   1.732  0.00  0.00    -0.241 OA
ENDBRANCH  28  29
ENDBRANCH  21  23
ENDBRANCH   2  19
BRANCH   2  32
ATOM     32  C   UNL     1      -1.087   2.937   1.224  0.00  0.00    +0.104 C 
ATOM     33  N   UNL     1      -1.053   3.982   1.669  0.00  0.00    -0.191 NA
ENDBRANCH   2  32
TORSDOF 8
