REMARK  Name = ZINC05644998
REMARK  8 active torsions:
REMARK  status: ('A' for Active; 'I' for Inactive)
REMARK    1  A    between atoms: C_1  and  C_2
REMARK    2  A    between atoms: C_2  and  O_3
REMARK    3  A    between atoms: O_3  and  C_4
REMARK    4  A    between atoms: C_7  and  C_10
REMARK    5  A    between atoms: N_17  and  C_24
REMARK    6  A    between atoms: C_20  and  O_23
REMARK    7  A    between atoms: C_29  and  C_31
REMARK    8  A    between atoms: C_29  and  C_32
REMARK                            x       y       z     vdW  Elec       q    Type
REMARK                         _______ _______ _______ _____ _____    ______ ____
ROOT
ATOM      1  C   UNL     1      -2.001  -6.092  -0.011  0.00  0.00    +0.116 C 
ATOM      2  C   UNL     1      -2.733  -6.487  -1.258  0.00  0.00    +0.079 A 
ATOM      3  C   UNL     1      -2.697  -5.703  -2.436  0.00  0.00    +0.271 A 
ATOM      4  O   UNL     1      -2.094  -4.653  -2.574  0.00  0.00    -0.266 OA
ATOM      5  N   UNL     1      -3.439  -6.311  -3.374  0.00  0.00    -0.261 N 
ATOM      6  H   UNL     1      -3.587  -5.992  -4.278  0.00  0.00    +0.190 HD
ATOM      7  N   UNL     1      -3.960  -7.482  -2.823  0.00  0.00    -0.263 N 
ATOM      8  C   UNL     1      -3.519  -7.582  -1.505  0.00  0.00    +0.161 A 
ATOM      9  N   UNL     1      -3.876  -8.607  -0.737  0.00  0.00    -0.197 NA
ATOM     10  C   UNL     1      -3.682  -8.976   0.448  0.00  0.00    +0.199 C 
ATOM     11  C   UNL     1      -2.838  -8.378   1.505  0.00  0.00    +0.165 C 
ATOM     12  S   UNL     1      -2.865  -6.579   1.487  0.00  0.00    -0.138 S 
ENDROOT
BRANCH   7  13
ATOM     13  C   UNL     1      -4.824  -8.442  -3.514  0.00  0.00    +0.112 C 
ATOM     14  C   UNL     1      -6.107  -7.741  -3.971  0.00  0.00    +0.055 C 
ATOM     15  C   UNL     1      -6.968  -8.732  -4.759  0.00  0.00    +0.162 C 
ATOM     16  O   UNL     1      -6.219  -9.235  -5.868  0.00  0.00    -0.374 OA
ATOM     17  C   UNL     1      -5.033  -9.941  -5.499  0.00  0.00    +0.066 C 
ATOM     18  C   UNL     1      -4.094  -9.000  -4.739  0.00  0.00    +0.061 C 
ATOM     19  C   UNL     1      -5.402 -11.124  -4.602  0.00  0.00    +0.041 C 
ATOM     20  C   UNL     1      -4.332 -10.454  -6.758  0.00  0.00    +0.041 C 
ENDBRANCH   7  13
BRANCH   1  24
ATOM     21  C   UNL     1      -1.498  -1.848   0.006  0.00  0.00    +0.121 A 
ATOM     22  C   UNL     1      -0.388  -2.679  -0.003  0.00  0.00    +0.046 A 
ATOM     23  C   UNL     1      -0.553  -4.051  -0.008  0.00  0.00    +0.008 A 
ATOM     24  C   UNL     1      -1.823  -4.596  -0.005  0.00  0.00    -0.030 A 
ATOM     25  C   UNL     1      -2.932  -3.769   0.004  0.00  0.00    +0.008 A 
ATOM     26  C   UNL     1      -2.772  -2.397   0.016  0.00  0.00    +0.046 A 
BRANCH  21  27
ATOM     27  O   UNL     1      -1.339  -0.499   0.012  0.00  0.00    -0.492 OA
BRANCH  27  29
ATOM     28  C   UNL     1      -0.019   1.526   0.010  0.00  0.00    +0.048 C 
ATOM     29  C   UNL     1       0.002  -0.004   0.002  0.00  0.00    +0.225 C 
ENDBRANCH  27  29
ENDBRANCH  21  27
ENDBRANCH   1  24
BRANCH  10  30
ATOM     30  O   UNL     1      -4.345 -10.087   0.812  0.00  0.00    -0.495 OA
ATOM     31  H   UNL     1      -4.892 -10.466   0.111  0.00  0.00    +0.293 HD
ENDBRANCH  10  30
TORSDOF 5
