REMARK  Name = ZINC41726407
REMARK  11 active torsions:
REMARK  status: ('A' for Active; 'I' for Inactive)
REMARK    1  A    between atoms: C_1  and  C_2
REMARK    2  A    between atoms: C_5  and  C_28
REMARK    3  A    between atoms: N_8  and  C_10
REMARK    4  A    between atoms: C_10  and  C_11
REMARK    5  A    between atoms: C_11  and  N_12
REMARK    6  A    between atoms: C_13  and  C_15
REMARK    7  A    between atoms: N_17  and  C_18
REMARK    8  A    between atoms: C_23  and  O_24
REMARK    9  A    between atoms: O_24  and  C_25
REMARK   10  A    between atoms: C_25  and  C_26
REMARK   11  A    between atoms: C_25  and  C_27
REMARK                            x       y       z     vdW  Elec       q    Type
REMARK                         _______ _______ _______ _____ _____    ______ ____
ROOT
ATOM      1  N   UNL     1       3.029  -0.275   4.703  0.00  0.00    -0.309 N 
ATOM      2  C   UNL     1       4.259   0.214   4.954  0.00  0.00    +0.299 C 
ATOM      3  O   UNL     1       4.779   0.980   4.169  0.00  0.00    -0.265 OA
ATOM      4  H   UNL     1       2.613  -0.887   5.331  0.00  0.00    +0.149 HD
ENDROOT
BRANCH   2   5
ATOM      5  C   UNL     1       4.982  -0.184   6.198  0.00  0.00    +0.303 C 
ATOM      6  O   UNL     1       4.462  -0.949   6.984  0.00  0.00    -0.265 OA
ATOM      7  N   UNL     1       6.212   0.306   6.449  0.00  0.00    -0.275 N 
ATOM      8  H   UNL     1       6.654   0.867   5.793  0.00  0.00    +0.155 HD
BRANCH   7   9
ATOM      9  C   UNL     1       6.852   0.005   7.656  0.00  0.00    +0.076 A 
ATOM     10  C   UNL     1       6.668  -1.235   8.252  0.00  0.00    +0.027 A 
ATOM     11  C   UNL     1       7.301  -1.530   9.443  0.00  0.00    +0.002 A 
ATOM     12  C   UNL     1       8.120  -0.592  10.046  0.00  0.00    +0.004 A 
ATOM     13  C   UNL     1       8.308   0.646   9.460  0.00  0.00    +0.047 A 
ATOM     14  C   UNL     1       7.681   0.948   8.262  0.00  0.00    +0.142 A 
BRANCH  14  15
ATOM     15  O   UNL     1       7.870   2.162   7.681  0.00  0.00    -0.488 OA
BRANCH  15  16
ATOM     16  C   UNL     1       8.832   3.029   8.286  0.00  0.00    +0.167 C 
ATOM     17  C   UNL     1       9.525   3.858   7.203  0.00  0.00    +0.051 C 
ATOM     18  C   UNL     1       8.127   3.964   9.271  0.00  0.00    +0.051 C 
ENDBRANCH  15  16
ENDBRANCH  14  15
ENDBRANCH   7   9
ENDBRANCH   2   5
BRANCH   1  19
ATOM     19  C   UNL     1       2.320   0.116   3.482  0.00  0.00    +0.086 C 
BRANCH  19  20
ATOM     20  C   UNL     1       0.956  -0.576   3.441  0.00  0.00    -0.060 C 
BRANCH  20  26
ATOM     21  C   UNL     1       0.258   1.322  -0.262  0.00  0.00    +0.005 C 
ATOM     22  C   UNL     1       0.285  -0.207  -0.233  0.00  0.00    -0.031 C 
ATOM     23  C   UNL     1      -1.149  -0.744  -0.260  0.00  0.00    +0.003 C 
ATOM     24  C   UNL     1      -1.882  -0.280   1.002  0.00  0.00    -0.031 C 
ATOM     25  C   UNL     1      -1.109  -0.752   2.236  0.00  0.00    -0.076 C 
ATOM     26  N   UNL     1       0.244  -0.184   2.217  0.00  0.00    +0.381 N 
ATOM     27  C   UNL     1       0.978  -0.682   1.046  0.00  0.00    -0.076 C 
ATOM     28  C   UNL     1      -3.291  -0.874   1.023  0.00  0.00    +0.005 C 
ATOM     29  H   UNL     1       0.185   0.822   2.173  0.00  0.00    -0.082 HD
ENDBRANCH  20  26
ENDBRANCH  19  20
ENDBRANCH   1  19
TORSDOF 7
