REMARK  Name = ZINC14023607
REMARK  8 active torsions:
REMARK  status: ('A' for Active; 'I' for Inactive)
REMARK    1  A    between atoms: C_1  and  C_2
REMARK    2  A    between atoms: C_2  and  C_4
REMARK    3  A    between atoms: C_2  and  N_41
REMARK    4  A    between atoms: C_11  and  C_12
REMARK    5  A    between atoms: C_11  and  N_41
REMARK    6  A    between atoms: C_15  and  C_17
REMARK    7  A    between atoms: C_20  and  O_23
REMARK    8  A    between atoms: O_23  and  C_24
REMARK                            x       y       z     vdW  Elec       q    Type
REMARK                         _______ _______ _______ _____ _____    ______ ____
ROOT
ATOM      1  C   UNL     1       1.353   1.550  -0.003  0.00  0.00    +0.018 C 
ENDROOT
BRANCH   1   2
ATOM      2  C   UNL     1       2.125   0.993   1.166  0.00  0.00    +0.201 A 
ATOM      3  N   UNL     1       2.832  -0.102   1.169  0.00  0.00    -0.114 NA
ATOM      4  N   UNL     1       3.357  -0.272   2.332  0.00  0.00    -0.107 NA
ATOM      5  C   UNL     1       2.991   0.713   3.119  0.00  0.00    +0.248 A 
ATOM      6  O   UNL     1       2.203   1.532   2.395  0.00  0.00    -0.422 OA
BRANCH   5   7
ATOM      7  C   UNL     1       3.372   0.889   4.536  0.00  0.00    +0.039 A 
ATOM      8  C   UNL     1       2.910   1.995   5.253  0.00  0.00    +0.017 A 
ATOM      9  C   UNL     1       3.263   2.154   6.575  0.00  0.00    +0.046 A 
ATOM     10  C   UNL     1       4.087   1.221   7.192  0.00  0.00    +0.120 A 
ATOM     11  C   UNL     1       4.553   0.122   6.482  0.00  0.00    +0.046 A 
ATOM     12  C   UNL     1       4.199  -0.046   5.160  0.00  0.00    +0.017 A 
BRANCH  10  13
ATOM     13  O   UNL     1       4.437   1.383   8.495  0.00  0.00    -0.495 OA
ATOM     14  C   UNL     1       3.923   2.535   9.166  0.00  0.00    +0.277 C 
ENDBRANCH  10  13
ENDBRANCH   5   7
ENDBRANCH   1   2
BRANCH   1  15
ATOM     15  N   UNL     1      -0.015   0.998   0.015  0.00  0.00    +0.389 N 
ATOM     16  H   UNL     1       0.032  -0.025  -0.054  0.00  0.00    -0.084 HD
ATOM     17  H   UNL     1      -0.475   1.261   0.894  0.00  0.00    -0.084 HD
BRANCH  15  19
ATOM     18  C   UNL     1      -1.403   2.878  -0.736  0.00  0.00    -0.009 C 
ATOM     19  C   UNL     1      -0.795   1.527  -1.120  0.00  0.00    -0.042 C 
BRANCH  19  20
ATOM     20  C   UNL     1      -1.899   0.557  -1.456  0.00  0.00    -0.048 A 
ATOM     21  C   UNL     1      -2.380  -0.306  -0.489  0.00  0.00    +0.003 A 
ATOM     22  C   UNL     1      -3.392  -1.195  -0.797  0.00  0.00    +0.000 A 
ATOM     23  C   UNL     1      -3.925  -1.221  -2.073  0.00  0.00    +0.001 A 
ATOM     24  C   UNL     1      -3.445  -0.359  -3.040  0.00  0.00    +0.015 A 
ATOM     25  C   UNL     1      -2.435   0.534  -2.731  0.00  0.00    +0.019 A 
ATOM     26 BR   UNL     1      -1.783   1.720  -4.052  0.00  0.00    -0.050 Br
ENDBRANCH  19  20
ENDBRANCH  15  19
ENDBRANCH   1  15
TORSDOF 6
