REMARK  Name = ZINC56064659
REMARK  9 active torsions:
REMARK  status: ('A' for Active; 'I' for Inactive)
REMARK    1  A    between atoms: C_1  and  C_2
REMARK    2  A    between atoms: N_8  and  C_9
REMARK    3  A    between atoms: C_9  and  C_10
REMARK    4  A    between atoms: C_15  and  C_16
REMARK    5  A    between atoms: C_16  and  N_17
REMARK    6  A    between atoms: N_17  and  S_18
REMARK    7  A    between atoms: S_18  and  C_21
REMARK    8  A    between atoms: C_26  and  O_27
REMARK    9  A    between atoms: O_27  and  C_28
REMARK                            x       y       z     vdW  Elec       q    Type
REMARK                         _______ _______ _______ _____ _____    ______ ____
ROOT
ATOM      1  C   UNL     1       0.865  -0.347   3.613  0.00  0.00    -0.059 A 
ATOM      2  C   UNL     1       0.458  -1.417   4.388  0.00  0.00    +0.002 A 
ATOM      3  C   UNL     1       1.190  -1.781   5.503  0.00  0.00    +0.000 A 
ATOM      4  C   UNL     1       2.329  -1.075   5.843  0.00  0.00    +0.000 A 
ATOM      5  C   UNL     1       2.736  -0.005   5.067  0.00  0.00    +0.005 A 
ATOM      6  C   UNL     1       2.007   0.356   3.950  0.00  0.00    -0.031 A 
ENDROOT
BRANCH   1   7
ATOM      7  C   UNL     1       0.067   0.050   2.397  0.00  0.00    -0.042 C 
BRANCH   7  14
ATOM      8  C   UNL     1      -0.019   1.526   0.010  0.00  0.00    -0.013 C 
ATOM      9  C   UNL     1       0.002  -0.004   0.002  0.00  0.00    -0.071 C 
ATOM     10  C   UNL     1       0.717  -0.497  -1.258  0.00  0.00    -0.016 C 
ATOM     11  C   UNL     1       0.735  -2.028  -1.262  0.00  0.00    -0.003 C 
ATOM     12  C   UNL     1       1.410  -2.524   0.020  0.00  0.00    -0.019 C 
ATOM     13  C   UNL     1       0.669  -1.956   1.232  0.00  0.00    -0.078 C 
ATOM     14  N   UNL     1       0.711  -0.490   1.192  0.00  0.00    +0.384 N 
ATOM     15  H   UNL     1       1.671  -0.182   1.159  0.00  0.00    -0.081 HD
ENDBRANCH   7  14
ENDBRANCH   1   7
BRANCH   6  16
ATOM     16  C   UNL     1       2.454   1.518   3.102  0.00  0.00    +0.141 C 
BRANCH  16  17
ATOM     17  N   UNL     1       1.666   2.705   3.445  0.00  0.00    -0.186 NA
ATOM     18  H   UNL     1       0.849   2.612   3.960  0.00  0.00    +0.148 HD
BRANCH  17  19
ATOM     19  S   UNL     1       2.171   4.204   2.955  0.00  0.00    +0.062 S 
ATOM     20  O   UNL     1       1.196   5.131   3.413  0.00  0.00    -0.153 OA
ATOM     21  O   UNL     1       3.544   4.306   3.308  0.00  0.00    -0.153 OA
BRANCH  19  22
ATOM     22  C   UNL     1       2.100   4.228   1.195  0.00  0.00    +0.147 A 
ATOM     23  C   UNL     1       1.222   5.078   0.550  0.00  0.00    +0.032 A 
ATOM     24  C   UNL     1       1.166   5.097  -0.832  0.00  0.00    +0.002 A 
ATOM     25  C   UNL     1       1.988   4.266  -1.571  0.00  0.00    +0.004 A 
ATOM     26  C   UNL     1       2.868   3.415  -0.931  0.00  0.00    +0.047 A 
ATOM     27  C   UNL     1       2.930   3.398   0.456  0.00  0.00    +0.146 A 
BRANCH  27  28
ATOM     28  O   UNL     1       3.799   2.566   1.088  0.00  0.00    -0.493 OA
ATOM     29  C   UNL     1       4.623   1.740   0.263  0.00  0.00    +0.277 C 
ENDBRANCH  27  28
ENDBRANCH  19  22
ENDBRANCH  17  19
ENDBRANCH  16  17
ENDBRANCH   6  16
TORSDOF 7
