REMARK  Name = ZINC12403027
REMARK  5 active torsions:
REMARK  status: ('A' for Active; 'I' for Inactive)
REMARK    1  A    between atoms: C_1  and  C_2
REMARK    2  A    between atoms: C_2  and  C_3
REMARK    3  A    between atoms: C_2  and  C_4
REMARK    4  A    between atoms: C_2  and  N_5
REMARK    5  A    between atoms: C_6  and  C_8
REMARK                            x       y       z     vdW  Elec       q    Type
REMARK                         _______ _______ _______ _____ _____    ______ ____
ROOT
ATOM      1  N   UNL     1      -2.256   1.303   1.027  0.00  0.00    -0.310 N 
ATOM      2  C   UNL     1      -0.958   1.664   1.030  0.00  0.00    +0.217 C 
ATOM      3  O   UNL     1      -0.550   2.453   1.855  0.00  0.00    -0.275 OA
ATOM      4  H   UNL     1      -2.626   0.586   0.279  0.00  0.00    +0.149 HD
ENDROOT
BRANCH   2   5
ATOM      5  C   UNL     1      -0.013   1.086   0.008  0.00  0.00    +0.084 C 
ATOM      6  C   UNL     1       1.457   0.970   0.487  0.00  0.00    +0.019 C 
ATOM      7  C   UNL     1       1.309   0.288   1.891  0.00  0.00    +0.006 C 
ATOM      8  C   UNL     1       0.250  -0.797   1.530  0.00  0.00    +0.006 C 
ATOM      9  C   UNL     1       0.058  -0.463   0.011  0.00  0.00    +0.019 C 
ATOM     10  C   UNL     1       1.469  -0.164  -0.583  0.00  0.00    +0.088 C 
ATOM     11 CL   UNL     1       2.690  -1.456  -0.283  0.00  0.00    -0.121 Cl
ENDBRANCH   2   5
BRANCH   1  13
ATOM     12  C   UNL     1      -3.214   3.387   1.875  0.00  0.00    +0.031 C 
ATOM     13  C   UNL     1      -3.175   1.864   2.020  0.00  0.00    +0.026 C 
ATOM     14  C   UNL     1      -4.577   1.295   1.798  0.00  0.00    +0.031 C 
ATOM     15  C   UNL     1      -2.693   1.498   3.425  0.00  0.00    +0.031 C 
ENDBRANCH   1  13
TORSDOF 2
