REMARK  Name = ZINC13319562
REMARK  6 active torsions:
REMARK  status: ('A' for Active; 'I' for Inactive)
REMARK    1  A    between atoms: C_9  and  C_28
REMARK    2  A    between atoms: C_10  and  O_11
REMARK    3  A    between atoms: O_11  and  C_12
REMARK    4  A    between atoms: C_12  and  C_13
REMARK    5  A    between atoms: N_15  and  C_16
REMARK    6  A    between atoms: C_16  and  C_17
REMARK                            x       y       z     vdW  Elec       q    Type
REMARK                         _______ _______ _______ _____ _____    ______ ____
ROOT
ATOM      1  C   UNL     1       1.087  10.033  -1.355  0.00  0.00    +0.324 C 
ENDROOT
BRANCH   1   2
ATOM      2  C   UNL     1       0.040   9.330  -0.530  0.00  0.00    +0.251 C 
ATOM      3  O   UNL     1      -0.595   9.947   0.299  0.00  0.00    -0.272 OA
ATOM      4  N   UNL     1      -0.191   8.015  -0.714  0.00  0.00    -0.309 N 
ATOM      5  H   UNL     1       0.317   7.521  -1.377  0.00  0.00    +0.149 HD
BRANCH   4   6
ATOM      6  C   UNL     1      -1.208   7.331   0.088  0.00  0.00    +0.152 C 
BRANCH   6   7
ATOM      7  C   UNL     1      -1.270   5.856  -0.315  0.00  0.00    +0.228 C 
ATOM      8  C   UNL     1      -2.417   5.163   0.432  0.00  0.00    +0.275 C 
ATOM      9  O   UNL     1      -2.437   3.785   0.043  0.00  0.00    -0.485 OA
ATOM     10  C   UNL     1      -1.241   3.136   0.031  0.00  0.00    +0.162 A 
ATOM     11  C   UNL     1      -1.219   1.749   0.017  0.00  0.00    +0.049 A 
ATOM     12  C   UNL     1      -0.013   1.076   0.008  0.00  0.00    +0.004 A 
ATOM     13  C   UNL     1       1.176   1.782   0.000  0.00  0.00    +0.004 A 
ATOM     14  C   UNL     1       1.161   3.164   0.009  0.00  0.00    +0.049 A 
ATOM     15  C   UNL     1      -0.046   3.846   0.026  0.00  0.00    +0.163 A 
ATOM     16  O   UNL     1      -0.045   5.207   0.043  0.00  0.00    -0.480 OA
ENDBRANCH   6   7
ENDBRANCH   4   6
ENDBRANCH   1   2
BRANCH   1  17
ATOM     17  O   UNL     1       1.144  11.411  -0.979  0.00  0.00    -0.481 OA
BRANCH  17  27
ATOM     18  C   UNL     1       5.939  12.649  -0.187  0.00  0.00    +0.001 A 
ATOM     19  C   UNL     1       5.032  11.843   0.497  0.00  0.00    +0.001 A 
ATOM     20  C   UNL     1       3.758  11.682   0.042  0.00  0.00    +0.012 A 
ATOM     21  C   UNL     1       3.350  12.339  -1.130  0.00  0.00    +0.025 A 
ATOM     22  C   UNL     1       4.273  13.156  -1.828  0.00  0.00    -0.014 A 
ATOM     23  C   UNL     1       5.578  13.298  -1.329  0.00  0.00    +0.008 A 
ATOM     24  C   UNL     1       3.872  13.814  -3.007  0.00  0.00    +0.009 A 
ATOM     25  C   UNL     1       2.608  13.666  -3.475  0.00  0.00    +0.019 A 
ATOM     26  C   UNL     1       1.677  12.856  -2.799  0.00  0.00    +0.105 A 
ATOM     27  C   UNL     1       2.040  12.190  -1.630  0.00  0.00    +0.143 A 
BRANCH  26  28
ATOM     28  C   UNL     1       0.311  12.712  -3.329  0.00  0.00    +0.390 C 
ATOM     29  O   UNL     1      -0.496  12.013  -2.748  0.00  0.00    -0.240 OA
ATOM     30  O   UNL     1      -0.044  13.355  -4.459  0.00  0.00    -0.240 OA
ENDBRANCH  26  28
ENDBRANCH  17  27
ENDBRANCH   1  17
TORSDOF 6
