REMARK  Name = ZINC43143856
REMARK  8 active torsions:
REMARK  status: ('A' for Active; 'I' for Inactive)
REMARK    1  A    between atoms: C_1  and  C_2
REMARK    2  A    between atoms: C_5  and  N_9
REMARK    3  A    between atoms: C_7  and  C_8
REMARK    4  A    between atoms: N_12  and  C_13
REMARK    5  A    between atoms: C_13  and  C_15
REMARK    6  A    between atoms: C_13  and  C_16
REMARK    7  A    between atoms: C_20  and  S_22
REMARK    8  A    between atoms: S_22  and  N_25
REMARK                            x       y       z     vdW  Elec       q    Type
REMARK                         _______ _______ _______ _____ _____    ______ ____
ROOT
ATOM      1  N   UNL     1       0.058  -4.170  -0.021  0.00  0.00    -0.269 N 
ATOM      2  C   UNL     1      -0.041  -4.839  -1.187  0.00  0.00    +0.304 C 
ATOM      3  O   UNL     1      -0.054  -4.229  -2.239  0.00  0.00    -0.252 OA
ATOM      4  N   UNL     1      -0.124  -6.184  -1.187  0.00  0.00    -0.293 N 
ATOM      5  H   UNL     1       0.146  -4.658   0.812  0.00  0.00    +0.156 HD
ATOM      6  H   UNL     1      -0.114  -6.671  -0.348  0.00  0.00    +0.151 HD
ENDROOT
BRANCH   1  11
ATOM      7  C   UNL     1      -0.045   1.502   0.014  0.00  0.00    +0.044 C 
ATOM      8  C   UNL     1      -0.018  -0.004   0.004  0.00  0.00    -0.047 A 
ATOM      9  C   UNL     1      -0.754  -0.702  -0.935  0.00  0.00    +0.005 A 
ATOM     10  C   UNL     1      -0.731  -2.083  -0.946  0.00  0.00    +0.023 A 
ATOM     11  C   UNL     1       0.033  -2.771  -0.013  0.00  0.00    +0.035 A 
ATOM     12  C   UNL     1       0.771  -2.067   0.929  0.00  0.00    +0.027 A 
ATOM     13  C   UNL     1       0.749  -0.686   0.932  0.00  0.00    -0.046 A 
ATOM     14  C   UNL     1       1.555   0.078   1.950  0.00  0.00    +0.044 C 
ENDBRANCH   1  11
BRANCH   4  15
ATOM     15  C   UNL     1      -0.231  -6.911  -2.454  0.00  0.00    +0.102 C 
ATOM     16  C   UNL     1       1.168  -7.144  -3.028  0.00  0.00    +0.033 C 
BRANCH  15  17
ATOM     17  C   UNL     1      -0.905  -8.238  -2.217  0.00  0.00    -0.026 A 
ATOM     18  C   UNL     1      -0.606  -8.972  -1.084  0.00  0.00    +0.005 A 
ATOM     19  C   UNL     1      -1.223 -10.189  -0.866  0.00  0.00    +0.002 A 
ATOM     20  C   UNL     1      -2.140 -10.673  -1.781  0.00  0.00    +0.028 A 
ATOM     21  C   UNL     1      -2.440  -9.938  -2.913  0.00  0.00    +0.105 A 
ATOM     22  C   UNL     1      -1.825  -8.719  -3.129  0.00  0.00    +0.034 A 
BRANCH  21  23
ATOM     23  S   UNL     1      -3.608 -10.555  -4.079  0.00  0.00    +0.056 S 
ATOM     24  O   UNL     1      -3.307  -9.936  -5.322  0.00  0.00    -0.153 OA
ATOM     25  O   UNL     1      -3.637 -11.966  -3.918  0.00  0.00    -0.153 OA
BRANCH  23  26
ATOM     26  N   UNL     1      -5.098  -9.996  -3.621  0.00  0.00    -0.204 NA
ATOM     27  H   UNL     1      -5.781  -9.832  -4.290  0.00  0.00    +0.144 HD
ATOM     28  H   UNL     1      -5.288  -9.832  -2.684  0.00  0.00    +0.144 HD
ENDBRANCH  23  26
ENDBRANCH  21  23
ENDBRANCH  15  17
ENDBRANCH   4  15
TORSDOF 5
