REMARK  Name = ZINC13500796
REMARK  12 active torsions:
REMARK  status: ('A' for Active; 'I' for Inactive)
REMARK    1  A    between atoms: C_1  and  C_2
REMARK    2  A    between atoms: C_2  and  C_3
REMARK    3  A    between atoms: C_3  and  C_4
REMARK    4  A    between atoms: C_4  and  C_6
REMARK    5  A    between atoms: C_4  and  N_16
REMARK    6  A    between atoms: N_10  and  C_11
REMARK    7  A    between atoms: N_16  and  C_17
REMARK    8  A    between atoms: N_16  and  C_24
REMARK    9  A    between atoms: C_17  and  C_18
REMARK   10  A    between atoms: C_24  and  C_25
REMARK   11  A    between atoms: C_29  and  C_38
REMARK   12  A    between atoms: C_31  and  C_37
REMARK                            x       y       z     vdW  Elec       q    Type
REMARK                         _______ _______ _______ _____ _____    ______ ____
ROOT
ATOM      1  N   UNL     1       1.417  -2.188   0.185  0.00  0.00    -0.284 NA
ENDROOT
BRANCH   1   2
ATOM      2  C   UNL     1       0.685  -2.255   1.457  0.00  0.00    +0.127 C 
BRANCH   2   3
ATOM      3  C   UNL     1       0.261  -0.868   1.866  0.00  0.00    +0.169 A 
ATOM      4  N   UNL     1      -0.315   0.031   1.104  0.00  0.00    -0.112 NA
ATOM      5  N   UNL     1      -0.520   1.084   1.817  0.00  0.00    -0.023 NA
ATOM      6  N   UNL     1      -0.090   0.881   3.014  0.00  0.00    -0.044 NA
ATOM      7  N   UNL     1       0.393  -0.313   3.085  0.00  0.00    -0.225 N 
BRANCH   7   8
ATOM      8  C   UNL     1       0.980  -0.945   4.269  0.00  0.00    +0.111 C 
ATOM      9  C   UNL     1      -0.040  -0.949   5.426  0.00  0.00    +0.027 C 
ATOM     10  C   UNL     1       0.818  -0.694   6.690  0.00  0.00    +0.002 C 
ATOM     11  C   UNL     1       1.867   0.330   6.190  0.00  0.00    +0.002 C 
ATOM     12  C   UNL     1       2.192  -0.132   4.755  0.00  0.00    +0.027 C 
ENDBRANCH   7   8
ENDBRANCH   2   3
BRANCH   2  13
ATOM     13  C   UNL     1      -0.553  -3.138   1.287  0.00  0.00    +0.026 C 
BRANCH  13  15
ATOM     14  C   UNL     1      -1.348  -5.474   0.900  0.00  0.00    +0.004 C 
ATOM     15  C   UNL     1      -0.119  -4.565   0.947  0.00  0.00    -0.001 C 
ENDBRANCH  13  15
ENDBRANCH   2  13
ENDBRANCH   1   2
BRANCH   1  16
ATOM     16  C   UNL     1       2.721  -1.534   0.361  0.00  0.00    +0.120 C 
BRANCH  16  17
ATOM     17  C   UNL     1       3.677  -2.492   1.025  0.00  0.00    -0.033 A 
ATOM     18  C   UNL     1       3.727  -2.574   2.404  0.00  0.00    +0.005 A 
ATOM     19  C   UNL     1       4.604  -3.452   3.013  0.00  0.00    +0.000 A 
ATOM     20  C   UNL     1       5.431  -4.248   2.242  0.00  0.00    +0.000 A 
ATOM     21  C   UNL     1       5.380  -4.166   0.863  0.00  0.00    +0.000 A 
ATOM     22  C   UNL     1       4.500  -3.291   0.254  0.00  0.00    +0.005 A 
ENDBRANCH  16  17
ENDBRANCH   1  16
BRANCH   1  23
ATOM     23  C   UNL     1       0.622  -1.507  -0.845  0.00  0.00    +0.126 C 
BRANCH  23  24
ATOM     24  C   UNL     1       1.190  -1.817  -2.206  0.00  0.00    +0.031 A 
ATOM     25  C   UNL     1       0.695  -2.854  -2.925  0.00  0.00    +0.020 A 
ATOM     26  C   UNL     1       1.269  -3.129  -4.243  0.00  0.00    -0.001 A 
ATOM     27  C   UNL     1       0.799  -4.185  -5.031  0.00  0.00    +0.013 A 
ATOM     28  C   UNL     1       1.355  -4.414  -6.257  0.00  0.00    -0.050 A 
ATOM     29  C   UNL     1       2.384  -3.609  -6.729  0.00  0.00    +0.008 A 
ATOM     30  C   UNL     1       2.862  -2.563  -5.969  0.00  0.00    -0.026 A 
ATOM     31  C   UNL     1       2.311  -2.310  -4.718  0.00  0.00    +0.052 A 
ATOM     32  N   UNL     1       2.769  -1.270  -3.937  0.00  0.00    -0.322 N 
ATOM     33  H   UNL     1       3.488  -0.707  -4.266  0.00  0.00    +0.169 HD
ATOM     34  C   UNL     1       2.232  -1.022  -2.730  0.00  0.00    +0.254 A 
ATOM     35  O   UNL     1       2.660  -0.091  -2.069  0.00  0.00    -0.268 OA
ATOM     36  C   UNL     1       3.980  -1.698  -6.493  0.00  0.00    +0.046 C 
ATOM     37  C   UNL     1       0.849  -5.552  -7.106  0.00  0.00    +0.044 C 
ENDBRANCH  23  24
ENDBRANCH   1  23
TORSDOF 9
