REMARK  Name = ZINC14836494
REMARK  13 active torsions:
REMARK  status: ('A' for Active; 'I' for Inactive)
REMARK    1  A    between atoms: C_1  and  C_2
REMARK    2  A    between atoms: C_2  and  C_3
REMARK    3  A    between atoms: C_3  and  C_5
REMARK    4  A    between atoms: C_3  and  N_6
REMARK    5  A    between atoms: C_7  and  C_9
REMARK    6  A    between atoms: C_13  and  N_15
REMARK    7  A    between atoms: N_15  and  C_16
REMARK    8  A    between atoms: C_16  and  N_18
REMARK    9  A    between atoms: C_19  and  C_21
REMARK   10  A    between atoms: C_26  and  O_27
REMARK   11  A    between atoms: O_27  and  C_28
REMARK   12  A    between atoms: C_28  and  C_29
REMARK   13  A    between atoms: C_28  and  C_30
REMARK                            x       y       z     vdW  Elec       q    Type
REMARK                         _______ _______ _______ _____ _____    ______ ____
ROOT
ATOM      1  C   UNL     1      -1.246   2.359   0.019  0.00  0.00    +0.141 C 
ATOM      2  S   UNL     1      -2.608   1.447  -0.474  0.00  0.00    -0.018 S 
ENDROOT
BRANCH   1   3
ATOM      3  N   UNL     1      -0.008   1.837  -0.093  0.00  0.00    -0.263 N 
ATOM      4  C   UNL     1       0.157   0.597  -0.594  0.00  0.00    +0.253 C 
ATOM      5  O   UNL     1      -0.810  -0.053  -0.939  0.00  0.00    -0.270 OA
ATOM      6  H   UNL     1       0.764   2.356   0.182  0.00  0.00    +0.157 HD
BRANCH   4   7
ATOM      7  C   UNL     1       1.511   0.028  -0.722  0.00  0.00    +0.080 A 
ATOM      8  C   UNL     1       2.627   0.774  -0.332  0.00  0.00    +0.032 A 
ATOM      9  C   UNL     1       3.890   0.235  -0.451  0.00  0.00    +0.019 A 
ATOM     10  C   UNL     1       4.060  -1.041  -0.965  0.00  0.00    +0.019 A 
ATOM     11  C   UNL     1       2.966  -1.787  -1.359  0.00  0.00    +0.047 A 
ATOM     12  C   UNL     1       1.688  -1.262  -1.242  0.00  0.00    +0.133 A 
ATOM     13 BR   UNL     1       5.398   1.242   0.085  0.00  0.00    -0.050 Br
BRANCH  12  14
ATOM     14  O   UNL     1       0.613  -1.993  -1.629  0.00  0.00    -0.489 OA
BRANCH  14  15
ATOM     15  C   UNL     1       0.872  -3.287  -2.178  0.00  0.00    +0.167 C 
ATOM     16  C   UNL     1      -0.374  -4.162  -2.032  0.00  0.00    +0.051 C 
ATOM     17  C   UNL     1       1.228  -3.149  -3.660  0.00  0.00    +0.051 C 
ENDBRANCH  14  15
ENDBRANCH  12  14
ENDBRANCH   4   7
ENDBRANCH   1   3
BRANCH   1  18
ATOM     18  N   UNL     1      -1.411   3.600   0.519  0.00  0.00    -0.297 N 
ATOM     19  H   UNL     1      -0.637   4.139   0.745  0.00  0.00    +0.154 HD
BRANCH  18  24
ATOM     20  C   UNL     1      -4.949   4.449  -0.069  0.00  0.00    +0.038 A 
ATOM     21  C   UNL     1      -5.250   5.131   1.111  0.00  0.00    +0.013 A 
ATOM     22  C   UNL     1      -4.280   5.297   2.079  0.00  0.00    +0.003 A 
ATOM     23  C   UNL     1      -3.009   4.790   1.883  0.00  0.00    +0.023 A 
ATOM     24  C   UNL     1      -2.699   4.111   0.712  0.00  0.00    +0.033 A 
ATOM     25  C   UNL     1      -3.665   3.943  -0.269  0.00  0.00    +0.036 A 
BRANCH  20  27
ATOM     26  N   UNL     1      -7.226   4.765  -0.915  0.00  0.00    -0.309 N 
ATOM     27  C   UNL     1      -5.987   4.270  -1.107  0.00  0.00    +0.244 C 
ATOM     28  O   UNL     1      -5.723   3.676  -2.134  0.00  0.00    -0.270 OA
ATOM     29  H   UNL     1      -7.436   5.239  -0.095  0.00  0.00    +0.149 HD
BRANCH  26  30
ATOM     30  C   UNL     1      -8.254   4.587  -1.943  0.00  0.00    +0.070 C 
ATOM     31  C   UNL     1      -8.928   3.226  -1.760  0.00  0.00    +0.028 C 
BRANCH  30  33
ATOM     32  C   UNL     1      -8.651   7.047  -2.122  0.00  0.00    +0.005 C 
ATOM     33  C   UNL     1      -9.300   5.696  -1.816  0.00  0.00    +0.018 C 
ENDBRANCH  30  33
ENDBRANCH  26  30
ENDBRANCH  20  27
ENDBRANCH  18  24
ENDBRANCH   1  18
TORSDOF 9
