REMARK  Name = ZINC31829144
REMARK  8 active torsions:
REMARK  status: ('A' for Active; 'I' for Inactive)
REMARK    1  A    between atoms: C_1  and  C_2
REMARK    2  A    between atoms: N_13  and  C_16
REMARK    3  A    between atoms: C_16  and  C_17
REMARK    4  A    between atoms: N_19  and  N_20
REMARK    5  A    between atoms: C_21  and  C_22
REMARK    6  A    between atoms: C_25  and  C_28
REMARK    7  A    between atoms: C_28  and  C_29
REMARK    8  A    between atoms: C_28  and  C_30
REMARK                            x       y       z     vdW  Elec       q    Type
REMARK                         _______ _______ _______ _____ _____    ______ ____
ROOT
ATOM      1  C   UNL     1      -1.652   7.442   3.411  0.00  0.00    +0.223 C 
ENDROOT
BRANCH   1  13
ATOM      2  C   UNL     1       3.055  13.635   8.355  0.00  0.00    +0.008 C 
ATOM      3  C   UNL     1       2.236  12.907   7.287  0.00  0.00    -0.009 C 
ATOM      4  C   UNL     1       2.203  11.408   7.598  0.00  0.00    +0.008 C 
ATOM      5  C   UNL     1       1.604  10.645   6.417  0.00  0.00    +0.037 C 
ATOM      6  C   UNL     1       0.260  11.272   6.056  0.00  0.00    -0.023 A 
ATOM      7  C   UNL     1      -0.051  12.519   6.469  0.00  0.00    -0.004 A 
ATOM      8  S   UNL     1      -1.675  12.823   5.826  0.00  0.00    -0.073 S 
ATOM      9  C   UNL     1      -1.930  11.271   5.003  0.00  0.00    +0.116 A 
ATOM     10  C   UNL     1      -0.742  10.568   5.257  0.00  0.00    +0.076 A 
ATOM     11  C   UNL     1      -0.670   9.250   4.698  0.00  0.00    +0.263 A 
ATOM     12  O   UNL     1       0.321   8.560   4.863  0.00  0.00    -0.267 OA
ATOM     13  N   UNL     1      -1.716   8.788   3.987  0.00  0.00    -0.290 N 
ATOM     14  C   UNL     1      -2.825   9.544   3.787  0.00  0.00    +0.203 A 
ATOM     15  N   UNL     1      -2.922  10.747   4.289  0.00  0.00    -0.230 NA
ATOM     16  C   UNL     1       0.796  13.441   7.291  0.00  0.00    +0.046 C 
ENDBRANCH   1  13
BRANCH   1  17
ATOM     17  C   UNL     1      -2.201   6.446   4.400  0.00  0.00    +0.252 C 
ATOM     18  O   UNL     1      -2.606   6.823   5.479  0.00  0.00    -0.272 OA
ATOM     19  N   UNL     1      -2.243   5.136   4.084  0.00  0.00    -0.206 N 
ATOM     20  H   UNL     1      -1.876   4.794   3.105  0.00  0.00    +0.177 HD
BRANCH  19  21
ATOM     21  N   UNL     1      -2.753   4.210   5.003  0.00  0.00    -0.188 NA
ATOM     22  C   UNL     1      -2.677   2.939   4.754  0.00  0.00    +0.138 C 
BRANCH  22  23
ATOM     23  C   UNL     1      -1.620   2.424   3.864  0.00  0.00    -0.005 A 
ATOM     24  C   UNL     1      -0.526   3.228   3.535  0.00  0.00    +0.010 A 
ATOM     25  C   UNL     1       0.459   2.740   2.702  0.00  0.00    +0.004 A 
ATOM     26  C   UNL     1       0.366   1.456   2.194  0.00  0.00    -0.045 A 
ATOM     27  C   UNL     1      -0.717   0.656   2.511  0.00  0.00    +0.004 A 
ATOM     28  C   UNL     1      -1.707   1.129   3.347  0.00  0.00    +0.010 A 
BRANCH  26  29
ATOM     29  C   UNL     1       1.446   0.930   1.284  0.00  0.00    +0.013 C 
ATOM     30  C   UNL     1       0.838   0.563  -0.071  0.00  0.00    +0.012 C 
ATOM     31  C   UNL     1       2.080  -0.313   1.912  0.00  0.00    +0.012 C 
ENDBRANCH  26  29
ENDBRANCH  22  23
ENDBRANCH  19  21
ENDBRANCH   1  17
TORSDOF 5
