REMARK  Name = ZINC13122206
REMARK  5 active torsions:
REMARK  status: ('A' for Active; 'I' for Inactive)
REMARK    1  A    between atoms: C_4  and  C_7
REMARK    2  A    between atoms: C_7  and  N_8
REMARK    3  A    between atoms: N_16  and  N_17
REMARK    4  A    between atoms: N_17  and  C_18
REMARK    5  A    between atoms: C_25  and  O_27
REMARK                            x       y       z     vdW  Elec       q    Type
REMARK                         _______ _______ _______ _____ _____    ______ ____
ROOT
ATOM      1  N   UNL     1       4.095  -0.913   1.367  0.00  0.00    -0.261 N 
ATOM      2  C   UNL     1       5.100  -0.185   1.995  0.00  0.00    +0.046 A 
ATOM      3  C   UNL     1       5.804   0.948   1.601  0.00  0.00    +0.024 A 
ATOM      4  C   UNL     1       6.771   1.484   2.427  0.00  0.00    +0.002 A 
ATOM      5  C   UNL     1       7.052   0.904   3.653  0.00  0.00    +0.001 A 
ATOM      6  C   UNL     1       6.364  -0.222   4.060  0.00  0.00    +0.012 A 
ATOM      7  C   UNL     1       5.387  -0.768   3.235  0.00  0.00    +0.028 A 
ATOM      8  C   UNL     1       4.487  -1.938   3.365  0.00  0.00    +0.152 C 
ATOM      9  N   UNL     1       4.410  -2.779   4.370  0.00  0.00    -0.181 NA
ATOM     10  C   UNL     1       3.693  -1.948   2.124  0.00  0.00    +0.272 C 
ATOM     11  O   UNL     1       2.827  -2.753   1.835  0.00  0.00    -0.268 OA
ENDROOT
BRANCH   9  12
ATOM     12  N   UNL     1       5.094  -2.567   5.443  0.00  0.00    -0.261 N 
ATOM     13  H   UNL     1       5.594  -1.742   5.545  0.00  0.00    +0.168 HD
BRANCH  12  14
ATOM     14  C   UNL     1       5.117  -3.573   6.508  0.00  0.00    +0.140 C 
ATOM     15  C   UNL     1       3.937  -3.302   7.468  0.00  0.00    +0.192 C 
ATOM     16  S   UNL     1       4.690  -3.734   9.096  0.00  0.00    -0.027 S 
ATOM     17  O   UNL     1       4.639  -5.143   9.280  0.00  0.00    -0.174 OA
ATOM     18  O   UNL     1       4.168  -2.873  10.099  0.00  0.00    -0.174 OA
ATOM     19  C   UNL     1       6.421  -3.232   8.697  0.00  0.00    +0.199 C 
ATOM     20  C   UNL     1       6.479  -3.531   7.186  0.00  0.00    +0.159 C 
BRANCH  20  21
ATOM     21  O   UNL     1       7.273  -2.526   6.553  0.00  0.00    -0.388 OA
ATOM     22  H   UNL     1       8.160  -2.433   6.925  0.00  0.00    +0.210 HD
ENDBRANCH  20  21
ENDBRANCH  12  14
ENDBRANCH   9  12
BRANCH   1  23
ATOM     23  C   UNL     1       3.541  -0.590   0.050  0.00  0.00    +0.149 C 
BRANCH  23  27
ATOM     24  C   UNL     1       0.233   2.073   0.510  0.00  0.00    +0.000 A 
ATOM     25  C   UNL     1       1.510   2.578   0.355  0.00  0.00    +0.000 A 
ATOM     26  C   UNL     1       2.581   1.717   0.206  0.00  0.00    +0.005 A 
ATOM     27  C   UNL     1       2.374   0.350   0.213  0.00  0.00    -0.030 A 
ATOM     28  C   UNL     1       1.097  -0.155   0.370  0.00  0.00    +0.005 A 
ATOM     29  C   UNL     1       0.026   0.706   0.517  0.00  0.00    +0.000 A 
ENDBRANCH  23  27
ENDBRANCH   1  23
TORSDOF 5
