REMARK  Name = ZINC39711084
REMARK  14 active torsions:
REMARK  status: ('A' for Active; 'I' for Inactive)
REMARK    1  A    between atoms: C_1  and  C_2
REMARK    2  A    between atoms: C_2  and  C_3
REMARK    3  A    between atoms: C_3  and  C_4
REMARK    4  A    between atoms: C_3  and  C_5
REMARK    5  A    between atoms: C_3  and  N_6
REMARK    6  A    between atoms: C_7  and  C_12
REMARK    7  A    between atoms: C_12  and  C_14
REMARK    8  A    between atoms: C_12  and  N_28
REMARK    9  A    between atoms: C_19  and  C_27
REMARK   10  A    between atoms: C_21  and  C_26
REMARK   11  A    between atoms: N_28  and  C_29
REMARK   12  A    between atoms: N_28  and  C_37
REMARK   13  A    between atoms: C_29  and  C_30
REMARK   14  A    between atoms: C_37  and  C_38
REMARK                            x       y       z     vdW  Elec       q    Type
REMARK                         _______ _______ _______ _____ _____    ______ ____
ROOT
ATOM      1  C   UNL     1       4.596  -3.275  -1.334  0.00  0.00    -0.010 C 
ENDROOT
BRANCH   1   2
ATOM      2  C   UNL     1       5.091  -3.355   0.111  0.00  0.00    +0.088 C 
ATOM      3  C   UNL     1       6.312  -2.465   0.235  0.00  0.00    -0.006 C 
ATOM      4  C   UNL     1       7.471  -3.047   0.655  0.00  0.00    -0.007 A 
ATOM      5  C   UNL     1       8.696  -2.261   0.801  0.00  0.00    +0.012 A 
ATOM      6  C   UNL     1       9.827  -2.883   1.222  0.00  0.00    -0.050 A 
ATOM      7  C   UNL     1       9.840  -4.247   1.515  0.00  0.00    +0.008 A 
ATOM      8  C   UNL     1       8.737  -5.032   1.400  0.00  0.00    -0.028 A 
ATOM      9  C   UNL     1       7.513  -4.485   0.971  0.00  0.00    +0.043 A 
ATOM     10  N   UNL     1       6.437  -5.264   0.862  0.00  0.00    -0.284 N 
ATOM     11  C   UNL     1       5.259  -4.816   0.464  0.00  0.00    +0.223 C 
ATOM     12  O   UNL     1       4.313  -5.576   0.383  0.00  0.00    -0.275 OA
ATOM     13  C   UNL     1       8.824  -6.499   1.734  0.00  0.00    +0.046 C 
ATOM     14  C   UNL     1      11.095  -2.084   1.377  0.00  0.00    +0.044 C 
ATOM     15  H   UNL     1       6.523  -6.205   1.084  0.00  0.00    +0.155 HD
ENDBRANCH   1   2
BRANCH   1  17
ATOM     16  N   UNL     1       2.428  -2.475  -0.452  0.00  0.00    -0.211 N 
ATOM     17  C   UNL     1       3.075  -3.440  -1.362  0.00  0.00    +0.183 C 
ATOM     18  N   UNL     1       2.677  -4.743  -0.796  0.00  0.00    -0.229 N 
ATOM     19  N   UNL     1       1.885  -4.450   0.321  0.00  0.00    -0.064 NA
ATOM     20  N   UNL     1       1.757  -3.243   0.507  0.00  0.00    -0.061 NA
ATOM     21  H   UNL     1       2.915  -5.623  -1.129  0.00  0.00    +0.172 HD
BRANCH  16  22
ATOM     22  C   UNL     1       2.483  -1.014  -0.533  0.00  0.00    +0.050 C 
ATOM     23  C   UNL     1       1.964  -0.558  -1.899  0.00  0.00    +0.033 C 
ATOM     24  C   UNL     1       3.929  -0.546  -0.354  0.00  0.00    +0.033 C 
BRANCH  22  26
ATOM     25  C   UNL     1       1.668   1.117   0.487  0.00  0.00    +0.006 C 
ATOM     26  C   UNL     1       1.612  -0.409   0.571  0.00  0.00    +0.023 C 
ENDBRANCH  22  26
ENDBRANCH  16  22
ENDBRANCH   1  17
BRANCH   1  27
ATOM     27  N   UNL     1       5.219  -4.345  -2.125  0.00  0.00    +0.392 N 
ATOM     28  H   UNL     1       5.054  -5.234  -1.678  0.00  0.00    -0.080 HD
BRANCH  27  29
ATOM     29  C   UNL     1       6.665  -4.105  -2.220  0.00  0.00    -0.042 C 
BRANCH  29  30
ATOM     30  C   UNL     1       7.333  -5.301  -2.847  0.00  0.00    -0.064 A 
ATOM     31  C   UNL     1       7.661  -6.396  -2.070  0.00  0.00    +0.004 A 
ATOM     32  C   UNL     1       8.273  -7.494  -2.644  0.00  0.00    +0.038 A 
ATOM     33  C   UNL     1       8.557  -7.497  -3.999  0.00  0.00    +0.123 A 
ATOM     34  C   UNL     1       8.229  -6.399  -4.777  0.00  0.00    +0.038 A 
ATOM     35  C   UNL     1       7.612  -5.305  -4.201  0.00  0.00    +0.004 A 
ATOM     36  F   UNL     1       9.156  -8.569  -4.562  0.00  0.00    -0.205 F 
ENDBRANCH  29  30
ENDBRANCH  27  29
BRANCH  27  37
ATOM     37  C   UNL     1       4.636  -4.359  -3.473  0.00  0.00    -0.002 C 
BRANCH  37  38
ATOM     38  C   UNL     1       4.746  -2.986  -4.083  0.00  0.00    +0.089 A 
ATOM     39  C   UNL     1       5.721  -2.569  -4.912  0.00  0.00    +0.042 A 
ATOM     40  C   UNL     1       5.432  -1.224  -5.238  0.00  0.00    +0.041 A 
ATOM     41  C   UNL     1       4.299  -0.899  -4.591  0.00  0.00    +0.195 A 
ATOM     42  O   UNL     1       3.885  -1.972  -3.897  0.00  0.00    -0.470 OA
ENDBRANCH  37  38
ENDBRANCH  27  37
ENDBRANCH   1  27
TORSDOF 9
