REMARK  Name = ZINC02977481
REMARK  6 active torsions:
REMARK  status: ('A' for Active; 'I' for Inactive)
REMARK    1  A    between atoms: C_2  and  C_3
REMARK    2  A    between atoms: C_3  and  S_4
REMARK    3  A    between atoms: S_4  and  C_5
REMARK    4  A    between atoms: C_18  and  C_21
REMARK    5  A    between atoms: C_24  and  O_28
REMARK    6  A    between atoms: C_25  and  O_27
REMARK                            x       y       z     vdW  Elec       q    Type
REMARK                         _______ _______ _______ _____ _____    ______ ____
ROOT
ATOM      1  C   UNL     1      -0.553  -2.280   1.412  0.00  0.00    +0.213 A 
ATOM      2  N   UNL     1      -0.946  -3.142   2.345  0.00  0.00    -0.184 NA
ATOM      3  C   UNL     1      -0.893  -4.438   2.091  0.00  0.00    +0.248 A 
ATOM      4  C   UNL     1      -0.413  -4.865   0.832  0.00  0.00    +0.156 A 
ATOM      5  N   UNL     1      -0.040  -3.955  -0.054  0.00  0.00    -0.141 NA
ATOM      6  N   UNL     1      -0.116  -2.701   0.232  0.00  0.00    -0.122 NA
ATOM      7  C   UNL     1      -0.334  -6.310   0.533  0.00  0.00    +0.028 A 
ATOM      8  C   UNL     1      -0.808  -6.832  -0.664  0.00  0.00    +0.012 A 
ATOM      9  C   UNL     1      -0.687  -8.184  -0.920  0.00  0.00    +0.001 A 
ATOM     10  C   UNL     1      -0.096  -9.022   0.010  0.00  0.00    +0.002 A 
ATOM     11  C   UNL     1       0.375  -8.517   1.208  0.00  0.00    +0.024 A 
ATOM     12  C   UNL     1       0.256  -7.167   1.481  0.00  0.00    +0.039 A 
ATOM     13  N   UNL     1       0.707  -6.624   2.688  0.00  0.00    -0.305 N 
ATOM     14  C   UNL     1      -0.276  -6.124   3.644  0.00  0.00    +0.294 C 
ATOM     15  O   UNL     1      -1.289  -5.354   3.007  0.00  0.00    -0.449 OA
ATOM     16  H   UNL     1       1.655  -6.582   2.886  0.00  0.00    +0.150 HD
ENDROOT
BRANCH  14  17
ATOM     17  C   UNL     1      -0.917  -7.293   4.347  0.00  0.00    +0.015 A 
ATOM     18  C   UNL     1      -0.160  -8.405   4.666  0.00  0.00    +0.013 A 
ATOM     19  C   UNL     1      -0.744  -9.480   5.311  0.00  0.00    +0.049 A 
ATOM     20  C   UNL     1      -2.089  -9.444   5.639  0.00  0.00    +0.158 A 
ATOM     21  C   UNL     1      -2.851  -8.325   5.318  0.00  0.00    +0.159 A 
ATOM     22  C   UNL     1      -2.259  -7.248   4.676  0.00  0.00    +0.058 A 
BRANCH  21  23
ATOM     23  O   UNL     1      -4.172  -8.284   5.638  0.00  0.00    -0.503 OA
ATOM     24  H   UNL     1      -4.354  -7.913   6.512  0.00  0.00    +0.292 HD
ENDBRANCH  21  23
BRANCH  20  25
ATOM     25  O   UNL     1      -2.664 -10.501   6.273  0.00  0.00    -0.503 OA
ATOM     26  H   UNL     1      -2.631 -10.446   7.238  0.00  0.00    +0.292 HD
ENDBRANCH  20  25
ENDBRANCH  14  17
BRANCH   1  27
ATOM     27  S   UNL     1      -0.621  -0.551   1.744  0.00  0.00    -0.080 S 
BRANCH  27  28
ATOM     28  C   UNL     1       0.011   0.096   0.177  0.00  0.00    +0.104 C 
BRANCH  28  30
ATOM     29  C   UNL     1       1.189   2.235   0.180  0.00  0.00    +0.005 C 
ATOM     30  C   UNL     1       0.043   1.602   0.231  0.00  0.00    -0.023 C 
ENDBRANCH  28  30
ENDBRANCH  27  28
ENDBRANCH   1  27
TORSDOF 6
