REMARK  Name = ZINC09495685
REMARK  6 active torsions:
REMARK  status: ('A' for Active; 'I' for Inactive)
REMARK    1  A    between atoms: C_1  and  O_2
REMARK    2  A    between atoms: O_2  and  C_3
REMARK    3  A    between atoms: C_6  and  C_11
REMARK    4  A    between atoms: C_8  and  O_9
REMARK    5  A    between atoms: O_9  and  C_10
REMARK    6  A    between atoms: C_14  and  C_21
REMARK                            x       y       z     vdW  Elec       q    Type
REMARK                         _______ _______ _______ _____ _____    ______ ____
ROOT
ATOM      1  C   UNL     1      -4.987  -2.627   0.035  0.00  0.00    +0.148 C 
ATOM      2  C   UNL     1      -5.797  -2.213  -1.200  0.00  0.00    +0.088 C 
ATOM      3  C   UNL     1      -6.391  -0.844  -1.025  0.00  0.00    +0.061 C 
ATOM      4  N   UNL     1      -6.791  -0.390   0.140  0.00  0.00    -0.213 NA
ATOM      5  C   UNL     1      -6.593  -1.159   1.240  0.00  0.00    +0.270 A 
ATOM      6  N   UNL     1      -5.741  -2.236   1.223  0.00  0.00    -0.202 N 
ATOM      7  N   UNL     1      -5.793  -2.778   2.502  0.00  0.00    -0.042 NA
ATOM      8  N   UNL     1      -6.605  -2.038   3.185  0.00  0.00    -0.021 NA
ATOM      9  N   UNL     1      -7.072  -1.079   2.455  0.00  0.00    -0.088 NA
ENDROOT
BRANCH   1  13
ATOM     10  C   UNL     1      -1.201  -0.638   0.010  0.00  0.00    +0.162 A 
ATOM     11  C   UNL     1      -2.374   0.099   0.019  0.00  0.00    +0.050 A 
ATOM     12  C   UNL     1      -3.596  -0.546   0.027  0.00  0.00    +0.009 A 
ATOM     13  C   UNL     1      -3.652  -1.928   0.026  0.00  0.00    -0.019 A 
ATOM     14  C   UNL     1      -2.485  -2.669   0.017  0.00  0.00    +0.055 A 
ATOM     15  C   UNL     1      -1.257  -2.028   0.003  0.00  0.00    +0.162 A 
BRANCH  10  17
ATOM     16  C   UNL     1      -0.017   1.425   0.010  0.00  0.00    +0.277 C 
ATOM     17  O   UNL     1       0.002  -0.004   0.002  0.00  0.00    -0.491 OA
ENDBRANCH  10  17
BRANCH  15  18
ATOM     18  O   UNL     1      -0.108  -2.756  -0.012  0.00  0.00    -0.491 OA
ATOM     19  C   UNL     1      -0.242  -4.179  -0.018  0.00  0.00    +0.277 C 
ENDBRANCH  15  18
ENDBRANCH   1  13
BRANCH   3  20
ATOM     20  C   UNL     1      -6.523  -0.011  -2.160  0.00  0.00    +0.035 A 
ATOM     21  C   UNL     1      -7.031   1.281  -2.244  0.00  0.00    +0.018 A 
ATOM     22  C   UNL     1      -7.031   1.839  -3.499  0.00  0.00    +0.023 A 
ATOM     23  C   UNL     1      -6.550   1.116  -4.543  0.00  0.00    +0.055 A 
ATOM     24  S   UNL     1      -6.076  -0.340  -3.854  0.00  0.00    -0.080 S 
ATOM     25 BR   UNL     1      -6.433   1.634  -6.358  0.00  0.00    -0.043 Br
ENDBRANCH   3  20
TORSDOF 4
