REMARK  Name = ZINC28498840
REMARK  6 active torsions:
REMARK  status: ('A' for Active; 'I' for Inactive)
REMARK    1  A    between atoms: C_3  and  O_32
REMARK    2  A    between atoms: C_6  and  N_7
REMARK    3  A    between atoms: N_10  and  C_13
REMARK    4  A    between atoms: C_16  and  S_22
REMARK    5  A    between atoms: C_18  and  N_19
REMARK    6  A    between atoms: S_22  and  N_25
REMARK                            x       y       z     vdW  Elec       q    Type
REMARK                         _______ _______ _______ _____ _____    ______ ____
ROOT
ATOM      1  C   UNL     1       0.498  -3.574  -1.497  0.00  0.00    +0.060 A 
ATOM      2  C   UNL     1       0.241  -2.623  -2.477  0.00  0.00    +0.027 A 
ATOM      3  C   UNL     1      -0.890  -1.836  -2.393  0.00  0.00    +0.030 A 
ATOM      4  C   UNL     1      -1.761  -1.986  -1.329  0.00  0.00    +0.108 A 
ATOM      5  C   UNL     1      -1.509  -2.931  -0.352  0.00  0.00    +0.063 A 
ATOM      6  C   UNL     1      -0.382  -3.726  -0.433  0.00  0.00    +0.149 A 
ENDROOT
BRANCH   1  10
ATOM      7  N   UNL     1       4.079  -5.279  -2.737  0.00  0.00    -0.327 N 
ATOM      8  C   UNL     1       2.857  -6.090  -2.834  0.00  0.00    +0.124 C 
ATOM      9  C   UNL     1       1.635  -5.170  -2.817  0.00  0.00    +0.124 C 
ATOM     10  N   UNL     1       1.639  -4.375  -1.581  0.00  0.00    -0.325 N 
ATOM     11  C   UNL     1       2.861  -3.564  -1.484  0.00  0.00    +0.124 C 
ATOM     12  C   UNL     1       4.084  -4.484  -1.500  0.00  0.00    +0.124 C 
BRANCH   7  18
ATOM     13  C   UNL     1       5.096  -7.457  -2.971  0.00  0.00    +0.027 A 
ATOM     14  C   UNL     1       6.225  -8.247  -3.060  0.00  0.00    +0.047 A 
ATOM     15  C   UNL     1       7.484  -7.670  -2.988  0.00  0.00    +0.117 A 
ATOM     16  C   UNL     1       7.611  -6.298  -2.834  0.00  0.00    +0.047 A 
ATOM     17  C   UNL     1       6.483  -5.505  -2.751  0.00  0.00    +0.027 A 
ATOM     18  C   UNL     1       5.222  -6.082  -2.821  0.00  0.00    +0.030 A 
BRANCH  15  19
ATOM     19  O   UNL     1       8.595  -8.450  -3.070  0.00  0.00    -0.507 OA
ATOM     20  H   UNL     1       9.594  -7.993  -3.014  0.00  0.00    +0.292 HD
ENDBRANCH  15  19
ENDBRANCH   7  18
ENDBRANCH   1  10
BRANCH   6  21
ATOM     21  N   UNL     1      -0.112  -4.737   0.614  0.00  0.00    +0.058 N 
ATOM     22  O   UNL     1      -0.883  -4.869   1.547  0.00  0.00    -0.126 OA
ATOM     23  O   UNL     1       0.883  -5.437   0.542  0.00  0.00    -0.126 OA
ENDBRANCH   6  21
BRANCH   4  24
ATOM     24  S   UNL     1      -3.200  -0.975  -1.222  0.00  0.00    +0.061 S 
ATOM     25  O   UNL     1      -4.139  -1.686  -0.427  0.00  0.00    -0.153 OA
ATOM     26  O   UNL     1      -3.493  -0.544  -2.544  0.00  0.00    -0.153 OA
BRANCH  24  27
ATOM     27  N   UNL     1      -2.784   0.380  -0.365  0.00  0.00    -0.177 NA
ATOM     28  C   UNL     1      -2.281   1.542  -1.038  0.00  0.00    +0.109 C 
ATOM     29  C   UNL     1      -0.749   1.592  -1.257  0.00  0.00    +0.017 C 
ATOM     30  C   UNL     1      -0.013   1.086   0.008  0.00  0.00    +0.001 C 
ATOM     31  C   UNL     1      -0.703   1.564   1.253  0.00  0.00    +0.001 C 
ATOM     32  C   UNL     1      -1.581   0.401   1.701  0.00  0.00    +0.017 C 
ATOM     33  C   UNL     1      -2.928   0.411   1.129  0.00  0.00    +0.109 C 
ENDBRANCH  24  27
ENDBRANCH   4  24
TORSDOF 6
