REMARK  Name = ZINC14508206
REMARK  5 active torsions:
REMARK  status: ('A' for Active; 'I' for Inactive)
REMARK    1  A    between atoms: C_1  and  C_2
REMARK    2  A    between atoms: C_2  and  N_3
REMARK    3  A    between atoms: C_13  and  C_15
REMARK    4  A    between atoms: C_15  and  C_16
REMARK    5  A    between atoms: C_16  and  C_17
REMARK                            x       y       z     vdW  Elec       q    Type
REMARK                         _______ _______ _______ _____ _____    ______ ____
ROOT
ATOM      1  N   UNL     1      -1.027   2.329   0.019  0.00  0.00    -0.312 N 
ATOM      2  C   UNL     1      -0.017   1.383   0.010  0.00  0.00    +0.070 A 
ATOM      3  C   UNL     1       0.002  -0.004   0.002  0.00  0.00    +0.028 A 
ATOM      4  C   UNL     1       1.208  -0.674  -0.013  0.00  0.00    +0.002 A 
ATOM      5  C   UNL     1       2.403   0.030  -0.021  0.00  0.00    +0.002 A 
ATOM      6  C   UNL     1       2.403   1.406  -0.014  0.00  0.00    +0.030 A 
ATOM      7  C   UNL     1       1.191   2.100   0.002  0.00  0.00    +0.091 A 
ATOM      8  N   UNL     1       0.871   3.421   0.012  0.00  0.00    -0.214 NA
ATOM      9  C   UNL     1      -0.431   3.557   0.025  0.00  0.00    +0.203 A 
ATOM     10  N   UNL     1      -1.103   4.768   0.038  0.00  0.00    -0.256 N 
ATOM     11  C   UNL     1      -0.410   5.924   0.037  0.00  0.00    +0.219 C 
ATOM     12  O   UNL     1       0.802   5.904   0.025  0.00  0.00    -0.275 OA
ATOM     13  H   UNL     1      -2.073   4.784   0.048  0.00  0.00    +0.158 HD
ENDROOT
BRANCH   1  15
ATOM     14  C   UNL     1      -2.963   1.962   1.466  0.00  0.00    +0.027 C 
ATOM     15  C   UNL     1      -2.467   2.063   0.023  0.00  0.00    +0.122 C 
ENDBRANCH   1  15
BRANCH  11  16
ATOM     16  C   UNL     1      -1.142   7.241   0.051  0.00  0.00    +0.097 C 
BRANCH  16  17
ATOM     17  C   UNL     1      -0.129   8.387   0.047  0.00  0.00    +0.022 C 
BRANCH  17  18
ATOM     18  C   UNL     1      -0.872   9.725   0.062  0.00  0.00    +0.080 C 
ATOM     19  C   UNL     1       0.138  10.866   0.191  0.00  0.00    +0.049 C 
ATOM     20  C   UNL     1      -0.547  12.181  -0.079  0.00  0.00    -0.025 A 
ATOM     21  C   UNL     1      -0.132  13.322   0.580  0.00  0.00    +0.005 A 
ATOM     22  C   UNL     1      -0.732  14.537   0.305  0.00  0.00    +0.000 A 
ATOM     23  C   UNL     1      -1.746  14.615  -0.633  0.00  0.00    +0.002 A 
ATOM     24  C   UNL     1      -2.169  13.476  -1.289  0.00  0.00    +0.023 A 
ATOM     25  C   UNL     1      -1.582  12.250  -1.001  0.00  0.00    +0.037 A 
ATOM     26  N   UNL     1      -2.015  11.095  -1.657  0.00  0.00    -0.285 N 
ATOM     27  C   UNL     1      -1.652   9.877  -1.217  0.00  0.00    +0.221 C 
ATOM     28  O   UNL     1      -1.957   8.893  -1.856  0.00  0.00    -0.275 OA
ATOM     29  H   UNL     1      -2.585  11.172  -2.438  0.00  0.00    +0.155 HD
ENDBRANCH  17  18
ENDBRANCH  16  17
ENDBRANCH  11  16
TORSDOF 4
