REMARK  Name = ZINC59383091
REMARK  3 active torsions:
REMARK  status: ('A' for Active; 'I' for Inactive)
REMARK    1  A    between atoms: C_1  and  C_2
REMARK    2  A    between atoms: C_9  and  N_11
REMARK    3  A    between atoms: C_12  and  C_13
REMARK                            x       y       z     vdW  Elec       q    Type
REMARK                         _______ _______ _______ _____ _____    ______ ____
ROOT
ATOM      1  C   UNL     1      -0.018   1.503   0.010  0.00  0.00    +0.044 C 
ATOM      2  C   UNL     1       0.002  -0.004   0.002  0.00  0.00    -0.049 A 
ATOM      3  C   UNL     1       0.006  -0.698  -1.200  0.00  0.00    +0.005 A 
ATOM      4  C   UNL     1       0.024  -2.057  -1.240  0.00  0.00    +0.027 A 
ATOM      5  C   UNL     1       0.040  -2.818  -0.045  0.00  0.00    +0.055 A 
ATOM      6  C   UNL     1       0.036  -2.081   1.163  0.00  0.00    +0.039 A 
ATOM      7  C   UNL     1       0.023  -0.709   1.192  0.00  0.00    +0.020 A 
ATOM      8  S   UNL     1       0.060  -3.365   2.391  0.00  0.00    -0.050 S 
ATOM      9  C   UNL     1       0.073  -4.753   1.264  0.00  0.00    +0.171 A 
ATOM     10  N   UNL     1       0.059  -4.158   0.087  0.00  0.00    -0.333 N 
ATOM     11  H   UNL     1       0.062  -4.706  -0.714  0.00  0.00    +0.168 HD
ENDROOT
BRANCH   9  12
ATOM     12  N   UNL     1       0.093  -6.081   1.547  0.00  0.00    -0.231 NA
ATOM     13  C   UNL     1       0.904  -6.542   2.463  0.00  0.00    +0.121 C 
BRANCH  13  14
ATOM     14  C   UNL     1       0.926  -7.978   2.770  0.00  0.00    -0.003 A 
ATOM     15  C   UNL     1       0.082  -8.857   2.079  0.00  0.00    +0.013 A 
ATOM     16  C   UNL     1       0.105 -10.203   2.369  0.00  0.00    +0.050 A 
ATOM     17  C   UNL     1       0.962 -10.694   3.345  0.00  0.00    +0.166 A 
ATOM     18  C   UNL     1       1.806  -9.824   4.038  0.00  0.00    +0.167 A 
ATOM     19  C   UNL     1       1.794  -8.474   3.750  0.00  0.00    +0.059 A 
ATOM     20  O   UNL     1       2.539 -10.550   4.933  0.00  0.00    -0.453 OA
ATOM     21  C   UNL     1       1.846 -11.805   5.068  0.00  0.00    +0.466 C 
ATOM     22  O   UNL     1       1.169 -11.960   3.807  0.00  0.00    -0.453 OA
ENDBRANCH  13  14
ENDBRANCH   9  12
TORSDOF 2
