REMARK  Name = ZINC66234974
REMARK  8 active torsions:
REMARK  status: ('A' for Active; 'I' for Inactive)
REMARK    1  A    between atoms: C_1  and  C_2
REMARK    2  A    between atoms: C_7  and  N_8
REMARK    3  A    between atoms: C_11  and  C_14
REMARK    4  A    between atoms: C_14  and  N_15
REMARK    5  A    between atoms: N_18  and  C_19
REMARK    6  A    between atoms: C_19  and  C_20
REMARK    7  A    between atoms: C_20  and  C_21
REMARK    8  A    between atoms: N_25  and  C_26
REMARK                            x       y       z     vdW  Elec       q    Type
REMARK                         _______ _______ _______ _____ _____    ______ ____
ROOT
ATOM      1  N   UNL     1       1.159   1.657   6.769  0.00  0.00    -0.299 N 
ATOM      2  C   UNL     1       1.780   2.481   7.635  0.00  0.00    +0.300 C 
ATOM      3  O   UNL     1       2.741   3.131   7.272  0.00  0.00    -0.253 OA
ATOM      4  N   UNL     1       1.336   2.584   8.903  0.00  0.00    -0.299 N 
ATOM      5  H   UNL     1       0.392   1.138   7.058  0.00  0.00    +0.150 HD
ATOM      6  H   UNL     1       0.570   2.065   9.193  0.00  0.00    +0.150 HD
ENDROOT
BRANCH   1   7
ATOM      7  C   UNL     1       1.641   1.545   5.390  0.00  0.00    +0.110 C 
BRANCH   7  11
ATOM      8  N   UNL     1       0.026  -0.016   2.415  0.00  0.00    -0.329 N 
ATOM      9  C   UNL     1      -1.167   0.386   3.175  0.00  0.00    +0.105 C 
ATOM     10  C   UNL     1      -0.678   1.094   4.456  0.00  0.00    +0.025 C 
ATOM     11  C   UNL     1       0.766   0.551   4.623  0.00  0.00    +0.025 C 
ATOM     12  C   UNL     1       1.225   0.425   3.151  0.00  0.00    +0.110 C 
BRANCH   8  19
ATOM     13  C   UNL     1      -0.018   1.503   0.010  0.00  0.00    +0.045 C 
ATOM     14  C   UNL     1       0.002  -0.004   0.002  0.00  0.00    -0.029 A 
ATOM     15  C   UNL     1       0.006  -0.689  -1.198  0.00  0.00    +0.006 A 
ATOM     16  C   UNL     1       0.024  -2.071  -1.207  0.00  0.00    +0.020 A 
ATOM     17  C   UNL     1       0.040  -2.774  -0.014  0.00  0.00    +0.043 A 
ATOM     18  C   UNL     1       0.035  -2.095   1.189  0.00  0.00    +0.043 A 
ATOM     19  C   UNL     1       0.023  -0.706   1.201  0.00  0.00    +0.034 A 
ATOM     20 CL   UNL     1       0.063  -4.509  -0.031  0.00  0.00    -0.083 Cl
ENDBRANCH   8  19
ENDBRANCH   7  11
ENDBRANCH   1   7
BRANCH   4  21
ATOM     21  C   UNL     1       2.012   3.480   9.845  0.00  0.00    +0.113 C 
BRANCH  21  22
ATOM     22  C   UNL     1       1.315   3.410  11.206  0.00  0.00    +0.091 C 
BRANCH  22  23
ATOM     23  C   UNL     1       2.010   4.331  12.174  0.00  0.00    +0.088 A 
ATOM     24  N   UNL     1       1.774   5.607  12.313  0.00  0.00    -0.350 N 
ATOM     25  C   UNL     1       2.577   6.104  13.265  0.00  0.00    +0.101 A 
ATOM     26  C   UNL     1       3.338   5.098  13.736  0.00  0.00    +0.104 A 
ATOM     27  N   UNL     1       2.975   3.972  13.047  0.00  0.00    -0.339 N 
ATOM     28  C   UNL     1       3.533   2.629  13.223  0.00  0.00    +0.150 C 
ATOM     29  H   UNL     1       1.122   6.116  11.806  0.00  0.00    +0.166 HD
ENDBRANCH  22  23
ENDBRANCH  21  22
ENDBRANCH   4  21
TORSDOF 6
