REMARK  Name = ZINC36167881
REMARK  10 active torsions:
REMARK  status: ('A' for Active; 'I' for Inactive)
REMARK    1  A    between atoms: C_5  and  C_7
REMARK    2  A    between atoms: C_7  and  N_8
REMARK    3  A    between atoms: N_8  and  C_9
REMARK    4  A    between atoms: N_8  and  C_15
REMARK    5  A    between atoms: C_9  and  C_10
REMARK    6  A    between atoms: C_15  and  C_16
REMARK    7  A    between atoms: C_19  and  C_21
REMARK    8  A    between atoms: C_21  and  C_22
REMARK    9  A    between atoms: C_21  and  C_29
REMARK   10  A    between atoms: C_21  and  O_36
REMARK                            x       y       z     vdW  Elec       q    Type
REMARK                         _______ _______ _______ _____ _____    ______ ____
ROOT
ATOM      1  C   UNL     1       0.647  -4.980   2.879  0.00  0.00    +0.089 A 
ATOM      2  C   UNL     1      -0.067  -5.505   3.891  0.00  0.00    +0.043 A 
ATOM      3  C   UNL     1       0.837  -5.734   4.954  0.00  0.00    +0.048 A 
ATOM      4  C   UNL     1       2.049  -5.337   4.528  0.00  0.00    +0.146 A 
ATOM      5  O   UNL     1       1.929  -4.886   3.268  0.00  0.00    -0.463 OA
ENDROOT
BRANCH   1   6
ATOM      6  C   UNL     1       0.102  -4.573   1.534  0.00  0.00    -0.002 C 
BRANCH   6   7
ATOM      7  N   UNL     1      -0.316  -3.166   1.581  0.00  0.00    +0.392 N 
ATOM      8  H   UNL     1      -0.971  -3.034   2.337  0.00  0.00    -0.080 HD
BRANCH   7   9
ATOM      9  C   UNL     1      -0.956  -2.803   0.309  0.00  0.00    -0.039 C 
BRANCH   9  14
ATOM     10  C   UNL     1      -3.477  -5.350  -0.877  0.00  0.00    +0.000 A 
ATOM     11  C   UNL     1      -4.591  -5.004  -0.135  0.00  0.00    +0.003 A 
ATOM     12  C   UNL     1      -4.531  -3.946   0.751  0.00  0.00    +0.038 A 
ATOM     13  C   UNL     1      -3.353  -3.232   0.896  0.00  0.00    +0.125 A 
ATOM     14  C   UNL     1      -2.238  -3.579   0.153  0.00  0.00    -0.029 A 
ATOM     15  C   UNL     1      -2.301  -4.638  -0.733  0.00  0.00    +0.004 A 
ATOM     16  F   UNL     1      -3.292  -2.197   1.762  0.00  0.00    -0.205 F 
ENDBRANCH   9  14
ENDBRANCH   7   9
BRANCH   7  17
ATOM     17  C   UNL     1       0.860  -2.313   1.798  0.00  0.00    -0.002 C 
BRANCH  17  18
ATOM     18  C   UNL     1       0.417  -0.884   1.984  0.00  0.00    +0.089 A 
ATOM     19  C   UNL     1       0.027  -0.327   3.144  0.00  0.00    +0.042 A 
ATOM     20  C   UNL     1      -0.299   1.020   2.862  0.00  0.00    +0.041 A 
ATOM     21  C   UNL     1      -0.088   1.204   1.546  0.00  0.00    +0.195 A 
ATOM     22  O   UNL     1       0.351   0.049   1.020  0.00  0.00    -0.470 OA
ENDBRANCH  17  18
ENDBRANCH   7  17
ENDBRANCH   6   7
ENDBRANCH   1   6
BRANCH   4  23
ATOM     23  C   UNL     1       3.326  -5.392   5.326  0.00  0.00    +0.174 C 
BRANCH  23  24
ATOM     24  C   UNL     1       4.494  -5.583   4.393  0.00  0.00    -0.002 A 
ATOM     25  C   UNL     1       5.214  -6.763   4.420  0.00  0.00    +0.007 A 
ATOM     26  C   UNL     1       6.286  -6.939   3.564  0.00  0.00    +0.003 A 
ATOM     27  C   UNL     1       6.638  -5.936   2.682  0.00  0.00    +0.038 A 
ATOM     28  C   UNL     1       5.918  -4.754   2.654  0.00  0.00    +0.124 A 
ATOM     29  C   UNL     1       4.841  -4.581   3.507  0.00  0.00    +0.045 A 
ATOM     30  F   UNL     1       6.262  -3.772   1.792  0.00  0.00    -0.205 F 
ENDBRANCH  23  24
BRANCH  23  31
ATOM     31  C   UNL     1       3.498  -4.104   6.090  0.00  0.00    -0.002 A 
ATOM     32  C   UNL     1       3.173  -2.900   5.494  0.00  0.00    +0.007 A 
ATOM     33  C   UNL     1       3.330  -1.717   6.193  0.00  0.00    +0.003 A 
ATOM     34  C   UNL     1       3.812  -1.738   7.488  0.00  0.00    +0.038 A 
ATOM     35  C   UNL     1       4.138  -2.944   8.085  0.00  0.00    +0.124 A 
ATOM     36  C   UNL     1       3.975  -4.128   7.386  0.00  0.00    +0.045 A 
ATOM     37  F   UNL     1       4.611  -2.966   9.351  0.00  0.00    -0.205 F 
ENDBRANCH  23  31
BRANCH  23  38
ATOM     38  O   UNL     1       3.266  -6.486   6.244  0.00  0.00    -0.372 OA
ATOM     39  H   UNL     1       2.537  -6.429   6.877  0.00  0.00    +0.212 HD
ENDBRANCH  23  38
ENDBRANCH   4  23
TORSDOF 10
