REMARK  Name = ZINC01747689
REMARK  9 active torsions:
REMARK  status: ('A' for Active; 'I' for Inactive)
REMARK    1  A    between atoms: C_1  and  C_2
REMARK    2  A    between atoms: C_2  and  N_48
REMARK    3  A    between atoms: C_3  and  C_4
REMARK    4  A    between atoms: C_3  and  N_48
REMARK    5  A    between atoms: C_5  and  C_6
REMARK    6  A    between atoms: C_5  and  N_48
REMARK    7  A    between atoms: C_7  and  O_29
REMARK    8  A    between atoms: C_13  and  C_25
REMARK    9  A    between atoms: C_14  and  C_17
REMARK                            x       y       z     vdW  Elec       q    Type
REMARK                         _______ _______ _______ _____ _____    ______ ____
ROOT
ATOM      1  C   UNL     1       0.898  -1.986   0.532  0.00  0.00    +0.020 A 
ATOM      2  C   UNL     1      -0.248  -2.725   0.769  0.00  0.00    +0.122 A 
ATOM      3  C   UNL     1      -1.435  -2.094   1.135  0.00  0.00    +0.046 A 
ATOM      4  C   UNL     1      -1.483  -0.735   1.265  0.00  0.00    +0.019 A 
ATOM      5  C   UNL     1      -0.336   0.023   1.028  0.00  0.00    +0.065 A 
ATOM      6  C   UNL     1       0.868  -0.603   0.658  0.00  0.00    +0.144 A 
ATOM      7  O   UNL     1       1.975   0.131   0.431  0.00  0.00    -0.450 OA
ATOM      8  C   UNL     1       2.007   1.462   0.538  0.00  0.00    +0.219 A 
ATOM      9  C   UNL     1       0.917   2.193   0.886  0.00  0.00    +0.078 A 
ATOM     10  C   UNL     1      -0.349   1.492   1.158  0.00  0.00    +0.201 A 
ATOM     11  O   UNL     1      -1.361   2.096   1.470  0.00  0.00    -0.286 OA
ENDROOT
BRANCH   9  12
ATOM     12  C   UNL     1       1.000   3.670   0.991  0.00  0.00    +0.008 A 
ATOM     13  C   UNL     1       1.344   4.267   2.202  0.00  0.00    +0.011 A 
ATOM     14  C   UNL     1       1.420   5.642   2.295  0.00  0.00    +0.021 A 
ATOM     15  C   UNL     1       1.156   6.429   1.187  0.00  0.00    +0.042 A 
ATOM     16  C   UNL     1       0.813   5.842  -0.019  0.00  0.00    +0.040 A 
ATOM     17  C   UNL     1       0.740   4.467  -0.124  0.00  0.00    +0.050 A 
ATOM     18 CL   UNL     1       0.318   3.731  -1.639  0.00  0.00    -0.083 Cl
ATOM     19 CL   UNL     1       1.253   8.158   1.310  0.00  0.00    -0.083 Cl
ENDBRANCH   9  12
BRANCH   8  20
ATOM     20  C   UNL     1       3.302   2.179   0.260  0.00  0.00    +0.451 C 
ATOM     21  F   UNL     1       4.037   2.292   1.445  0.00  0.00    -0.163 F 
ATOM     22  F   UNL     1       4.043   1.457  -0.682  0.00  0.00    -0.163 F 
ATOM     23  F   UNL     1       3.029   3.456  -0.243  0.00  0.00    -0.163 F 
ENDBRANCH   8  20
BRANCH   2  24
ATOM     24  O   UNL     1      -0.215  -4.076   0.644  0.00  0.00    -0.506 OA
ATOM     25  H   UNL     1       0.018  -4.541   1.459  0.00  0.00    +0.292 HD
ENDBRANCH   2  24
BRANCH   1  26
ATOM     26  C   UNL     1       2.176  -2.680   0.137  0.00  0.00    -0.036 C 
BRANCH  26  27
ATOM     27  N   UNL     1       2.924  -3.034   1.362  0.00  0.00    +0.382 N 
ATOM     28  H   UNL     1       2.300  -3.543   1.998  0.00  0.00    -0.081 HD
BRANCH  27  30
ATOM     29  C   UNL     1       3.555  -5.320   0.767  0.00  0.00    -0.017 C 
ATOM     30  C   UNL     1       4.071  -3.902   1.020  0.00  0.00    -0.082 C 
ENDBRANCH  27  30
BRANCH  27  31
ATOM     31  C   UNL     1       3.401  -1.808   2.035  0.00  0.00    -0.082 C 
ATOM     32  C   UNL     1       3.858  -2.170   3.450  0.00  0.00    -0.017 C 
ENDBRANCH  27  31
ENDBRANCH  26  27
ENDBRANCH   1  26
TORSDOF 7
