REMARK  Name = ZINC04425292
REMARK  11 active torsions:
REMARK  status: ('A' for Active; 'I' for Inactive)
REMARK    1  A    between atoms: C_1  and  C_2
REMARK    2  A    between atoms: N_4  and  C_5
REMARK    3  A    between atoms: C_7  and  O_31
REMARK    4  A    between atoms: C_9  and  O_30
REMARK    5  A    between atoms: C_11  and  C_28
REMARK    6  A    between atoms: C_14  and  O_16
REMARK    7  A    between atoms: O_16  and  C_17
REMARK    8  A    between atoms: C_17  and  C_18
REMARK    9  A    between atoms: C_18  and  O_19
REMARK   10  A    between atoms: O_19  and  C_20
REMARK   11  A    between atoms: C_28  and  O_29
REMARK                            x       y       z     vdW  Elec       q    Type
REMARK                         _______ _______ _______ _____ _____    ______ ____
ROOT
ATOM      1  C   UNL     1      -0.535  -4.262  -2.622  0.00  0.00    +0.160 C 
ATOM      2  C   UNL     1      -0.710  -5.777  -2.761  0.00  0.00    +0.171 C 
ATOM      3  C   UNL     1       0.670  -6.442  -2.763  0.00  0.00    +0.176 C 
ATOM      4  C   UNL     1       1.414  -6.058  -1.481  0.00  0.00    +0.178 C 
ATOM      5  O   UNL     1       1.515  -4.635  -1.398  0.00  0.00    -0.341 OA
ATOM      6  C   UNL     1       0.255  -3.963  -1.345  0.00  0.00    +0.273 C 
ENDROOT
BRANCH   1  10
ATOM      7  C   UNL     1      -3.349  -1.675  -2.832  0.00  0.00    +0.109 C 
ATOM      8  C   UNL     1      -1.996  -2.334  -2.911  0.00  0.00    +0.210 C 
ATOM      9  O   UNL     1      -1.038  -1.704  -3.306  0.00  0.00    -0.276 OA
ATOM     10  N   UNL     1      -1.851  -3.622  -2.544  0.00  0.00    -0.305 N 
ATOM     11  H   UNL     1      -2.617  -4.126  -2.228  0.00  0.00    +0.149 HD
ENDBRANCH   1  10
BRANCH   3  12
ATOM     12  O   UNL     1       0.516  -7.861  -2.821  0.00  0.00    -0.387 OA
ATOM     13  H   UNL     1       1.353  -8.347  -2.825  0.00  0.00    +0.210 HD
ENDBRANCH   3  12
BRANCH   2  14
ATOM     14  O   UNL     1      -1.383  -6.070  -3.987  0.00  0.00    -0.387 OA
ATOM     15  H   UNL     1      -1.528  -7.014  -4.141  0.00  0.00    +0.210 HD
ENDBRANCH   2  14
BRANCH   6  16
ATOM     16  O   UNL     1       0.471  -2.554  -1.237  0.00  0.00    -0.346 OA
BRANCH  16  17
ATOM     17  C   UNL     1       1.104  -2.155  -0.020  0.00  0.00    +0.204 C 
BRANCH  17  18
ATOM     18  C   UNL     1       1.284  -0.635  -0.014  0.00  0.00    +0.257 C 
BRANCH  18  19
ATOM     19  O   UNL     1       0.002  -0.004   0.002  0.00  0.00    -0.488 OA
BRANCH  19  20
ATOM     20  C   UNL     1      -0.016   1.355   0.009  0.00  0.00    +0.139 A 
ATOM     21  C   UNL     1       1.175   2.066   0.002  0.00  0.00    +0.048 A 
ATOM     22  C   UNL     1       1.154   3.447   0.009  0.00  0.00    +0.023 A 
ATOM     23  C   UNL     1      -0.054   4.123   0.024  0.00  0.00    +0.043 A 
ATOM     24  C   UNL     1      -1.243   3.416   0.031  0.00  0.00    +0.043 A 
ATOM     25  C   UNL     1      -1.227   2.034   0.019  0.00  0.00    +0.084 A 
ATOM     26 CL   UNL     1      -2.720   1.147   0.021  0.00  0.00    -0.080 Cl
ATOM     27 CL   UNL     1      -0.076   5.858   0.033  0.00  0.00    -0.083 Cl
ENDBRANCH  19  20
ENDBRANCH  18  19
ENDBRANCH  17  18
ENDBRANCH  16  17
ENDBRANCH   6  16
BRANCH   4  28
ATOM     28  C   UNL     1       2.816  -6.669  -1.502  0.00  0.00    +0.190 C 
BRANCH  28  29
ATOM     29  O   UNL     1       3.468  -6.410  -0.258  0.00  0.00    -0.392 OA
ATOM     30  H   UNL     1       4.364  -6.769  -0.200  0.00  0.00    +0.210 HD
ENDBRANCH  28  29
ENDBRANCH   4  28
TORSDOF 10
