REMARK  Name = ZINC08846561
REMARK  10 active torsions:
REMARK  status: ('A' for Active; 'I' for Inactive)
REMARK    1  A    between atoms: C_1  and  C_2
REMARK    2  A    between atoms: C_2  and  C_3
REMARK    3  A    between atoms: C_3  and  C_4
REMARK    4  A    between atoms: C_8  and  C_12
REMARK    5  A    between atoms: N_18  and  C_19
REMARK    6  A    between atoms: C_19  and  C_20
REMARK    7  A    between atoms: C_20  and  C_21
REMARK    8  A    between atoms: C_22  and  C_33
REMARK    9  A    between atoms: C_28  and  O_31
REMARK   10  A    between atoms: O_31  and  C_32
REMARK                            x       y       z     vdW  Elec       q    Type
REMARK                         _______ _______ _______ _____ _____    ______ ____
ROOT
ATOM      1  C   UNL     1      -0.472   1.406   3.681  0.00  0.00    +0.049 C 
ATOM      2  N   UNL     1      -0.020   1.094   2.454  0.00  0.00    -0.287 NA
ENDROOT
BRANCH   1   3
ATOM      3  C   UNL     1       0.199   0.946   4.806  0.00  0.00    +0.081 C 
ATOM      4  C   UNL     1      -0.246   1.261   6.179  0.00  0.00    +0.169 C 
ATOM      5  O   UNL     1      -1.423   1.287   6.479  0.00  0.00    -0.292 OA
ATOM      6  C   UNL     1       0.834   1.548   7.197  0.00  0.00    +0.088 C 
ATOM      7  C   UNL     1       1.891   0.443   7.127  0.00  0.00    +0.034 C 
ATOM      8  C   UNL     1       2.508   0.397   5.726  0.00  0.00    +0.088 C 
ATOM      9  C   UNL     1       1.415   0.111   4.717  0.00  0.00    +0.169 C 
ATOM     10  O   UNL     1       1.531  -0.759   3.879  0.00  0.00    -0.292 OA
BRANCH   7  11
ATOM     11  C   UNL     1       2.971   0.718   8.141  0.00  0.00    -0.043 A 
ATOM     12  C   UNL     1       3.715   1.879   8.060  0.00  0.00    +0.004 A 
ATOM     13  C   UNL     1       4.703   2.134   8.993  0.00  0.00    +0.000 A 
ATOM     14  C   UNL     1       4.953   1.222  10.001  0.00  0.00    +0.000 A 
ATOM     15  C   UNL     1       4.211   0.058  10.080  0.00  0.00    +0.000 A 
ATOM     16  C   UNL     1       3.221  -0.194   9.149  0.00  0.00    +0.004 A 
ENDBRANCH   7  11
ENDBRANCH   1   3
BRANCH   1  18
ATOM     17  C   UNL     1      -2.950   1.365   3.765  0.00  0.00    +0.010 C 
ATOM     18  C   UNL     1      -1.708   2.255   3.836  0.00  0.00    +0.052 C 
ENDBRANCH   1  18
BRANCH   2  19
ATOM     19  C   UNL     1      -0.729   1.579   1.267  0.00  0.00    +0.146 C 
BRANCH  19  20
ATOM     20  C   UNL     1      -0.013   1.086   0.008  0.00  0.00    +0.060 C 
BRANCH  20  21
ATOM     21  C   UNL     1      -0.742   1.585  -1.213  0.00  0.00    -0.018 A 
ATOM     22  C   UNL     1      -1.735   0.957  -1.862  0.00  0.00    +0.017 A 
ATOM     23  N   UNL     1      -2.153   1.715  -2.921  0.00  0.00    -0.358 N 
ATOM     24  H   UNL     1      -2.970   1.358  -3.565  0.00  0.00    +0.166 HD
ATOM     25  C   UNL     1      -1.412   2.876  -2.987  0.00  0.00    +0.047 A 
ATOM     26  C   UNL     1      -0.496   2.844  -1.920  0.00  0.00    +0.007 A 
ATOM     27  C   UNL     1       0.396   3.902  -1.733  0.00  0.00    +0.056 A 
ATOM     28  C   UNL     1       0.372   4.976  -2.602  0.00  0.00    +0.121 A 
ATOM     29  C   UNL     1      -0.535   5.004  -3.657  0.00  0.00    +0.047 A 
ATOM     30  C   UNL     1      -1.419   3.966  -3.851  0.00  0.00    +0.030 A 
ATOM     31  C   UNL     1      -2.308  -0.383  -1.478  0.00  0.00    +0.063 C 
BRANCH  28  32
ATOM     32  O   UNL     1       1.238   6.009  -2.425  0.00  0.00    -0.495 OA
ATOM     33  C   UNL     1       1.161   7.088  -3.359  0.00  0.00    +0.277 C 
ENDBRANCH  28  32
ENDBRANCH  20  21
ENDBRANCH  19  20
ENDBRANCH   2  19
TORSDOF 7
