REMARK  Name = ZINC35301487
REMARK  5 active torsions:
REMARK  status: ('A' for Active; 'I' for Inactive)
REMARK    1  A    between atoms: C_1  and  C_2
REMARK    2  A    between atoms: C_7  and  C_10
REMARK    3  A    between atoms: C_11  and  C_13
REMARK    4  A    between atoms: C_13  and  N_14
REMARK    5  A    between atoms: C_18  and  C_20
REMARK                            x       y       z     vdW  Elec       q    Type
REMARK                         _______ _______ _______ _____ _____    ______ ____
ROOT
ATOM      1  C   UNL     1      -1.109   1.597   0.943  0.00  0.00    +0.039 C 
ATOM      2  C   UNL     1      -0.875   0.097   0.754  0.00  0.00    +0.133 C 
ATOM      3  C   UNL     1      -2.224  -0.628   0.680  0.00  0.00    +0.139 C 
ATOM      4  N   UNL     1      -1.973  -2.078   0.687  0.00  0.00    -0.298 N 
ATOM      5  C   UNL     1      -1.095  -2.623   1.735  0.00  0.00    +0.139 C 
ATOM      6  C   UNL     1       0.199  -1.801   1.757  0.00  0.00    +0.133 C 
ATOM      7  O   UNL     1      -0.125  -0.413   1.860  0.00  0.00    -0.371 OA
ATOM      8  C   UNL     1       1.049  -2.219   2.959  0.00  0.00    +0.039 C 
ATOM      9  C   UNL     1      -2.530  -2.883  -0.239  0.00  0.00    +0.199 C 
ATOM     10  O   UNL     1      -3.251  -2.414  -1.095  0.00  0.00    -0.278 OA
ENDROOT
BRANCH   9  11
ATOM     11  C   UNL     1      -2.258  -4.365  -0.211  0.00  0.00    +0.020 C 
BRANCH  11  12
ATOM     12  N   UNL     1      -2.975  -5.015  -1.316  0.00  0.00    +0.394 N 
ATOM     13  C   UNL     1      -4.432  -4.947  -1.072  0.00  0.00    -0.077 C 
ATOM     14  C   UNL     1      -4.987  -6.288  -1.614  0.00  0.00    -0.020 C 
ATOM     15  C   UNL     1      -3.859  -7.277  -1.220  0.00  0.00    -0.006 C 
ATOM     16  C   UNL     1      -2.579  -6.433  -1.398  0.00  0.00    +0.047 C 
ATOM     17  H   UNL     1      -2.757  -4.550  -2.184  0.00  0.00    -0.080 HD
BRANCH  16  18
ATOM     18  C   UNL     1      -1.596  -6.755  -0.303  0.00  0.00    +0.343 C 
ATOM     19  O   UNL     1      -1.895  -6.556   0.863  0.00  0.00    -0.248 OA
ATOM     20  O   UNL     1      -0.501  -7.215  -0.581  0.00  0.00    -0.248 OA
ENDBRANCH  16  18
ENDBRANCH  11  12
ENDBRANCH   9  11
TORSDOF 3
