REMARK  Name = ZINC65146723
REMARK  7 active torsions:
REMARK  status: ('A' for Active; 'I' for Inactive)
REMARK    1  A    between atoms: C_1  and  C_2
REMARK    2  A    between atoms: C_5  and  C_9
REMARK    3  A    between atoms: C_6  and  C_8
REMARK    4  A    between atoms: C_10  and  C_11
REMARK    5  A    between atoms: N_13  and  N_14
REMARK    6  A    between atoms: N_17  and  C_18
REMARK    7  A    between atoms: C_18  and  C_19
REMARK                            x       y       z     vdW  Elec       q    Type
REMARK                         _______ _______ _______ _____ _____    ______ ____
ROOT
ATOM      1  C   UNL     1       0.080  -6.378  -1.201  0.00  0.00    +0.253 C 
ATOM      2  O   UNL     1       0.093  -6.992  -0.150  0.00  0.00    -0.269 OA
ATOM      3  N   UNL     1       0.082  -7.045  -2.372  0.00  0.00    -0.230 N 
ATOM      4  H   UNL     1       0.072  -6.555  -3.209  0.00  0.00    +0.173 HD
ENDROOT
BRANCH   3   5
ATOM      5  N   UNL     1       0.100  -8.446  -2.379  0.00  0.00    -0.218 N 
ATOM      6  C   UNL     1       0.103  -9.113  -3.550  0.00  0.00    +0.316 C 
ATOM      7  O   UNL     1       0.119 -10.329  -3.557  0.00  0.00    -0.251 OA
ATOM      8  N   UNL     1       0.088  -8.433  -4.713  0.00  0.00    -0.296 N 
ATOM      9  H   UNL     1       0.111  -8.935  -1.542  0.00  0.00    +0.174 HD
ATOM     10  H   UNL     1       0.076  -7.463  -4.708  0.00  0.00    +0.150 HD
BRANCH   8  11
ATOM     11  C   UNL     1       0.091  -9.159  -5.986  0.00  0.00    +0.137 C 
BRANCH  11  12
ATOM     12  C   UNL     1       0.072  -8.158  -7.144  0.00  0.00    +0.135 C 
ATOM     13  C   UNL     1      -0.041  -8.912  -8.486  0.00  0.00    +0.035 C 
ATOM     14  C   UNL     1       0.906  -8.093  -9.405  0.00  0.00    +0.031 C 
ATOM     15  C   UNL     1       1.999  -7.665  -8.394  0.00  0.00    +0.160 C 
ATOM     16  O   UNL     1       1.298  -7.417  -7.165  0.00  0.00    -0.375 OA
ENDBRANCH  11  12
ENDBRANCH   8  11
ENDBRANCH   3   5
BRANCH   1  18
ATOM     17  C   UNL     1       0.058  -4.246  -0.021  0.00  0.00    +0.013 C 
ATOM     18  C   UNL     1       0.061  -4.913  -1.192  0.00  0.00    +0.069 C 
BRANCH  17  23
ATOM     19  C   UNL     1      -0.018   1.503   0.010  0.00  0.00    +0.044 C 
ATOM     20  C   UNL     1       0.002  -0.004   0.002  0.00  0.00    -0.050 A 
ATOM     21  C   UNL     1       0.006  -0.686  -1.203  0.00  0.00    +0.004 A 
ATOM     22  C   UNL     1       0.024  -2.064  -1.218  0.00  0.00    +0.008 A 
ATOM     23  C   UNL     1       0.039  -2.774  -0.013  0.00  0.00    -0.022 A 
ATOM     24  C   UNL     1       0.036  -2.078   1.199  0.00  0.00    -0.043 A 
ATOM     25  C   UNL     1       0.023  -0.699   1.199  0.00  0.00    +0.007 A 
ATOM     26  C   UNL     1       0.052  -2.833   2.504  0.00  0.00    +0.044 C 
ENDBRANCH  17  23
ENDBRANCH   1  18
TORSDOF 5
