REMARK  Name = ZINC07713255
REMARK  6 active torsions:
REMARK  status: ('A' for Active; 'I' for Inactive)
REMARK    1  A    between atoms: C_1  and  C_2
REMARK    2  A    between atoms: C_2  and  C_3
REMARK    3  A    between atoms: C_3  and  N_4
REMARK    4  A    between atoms: N_9  and  C_12
REMARK    5  A    between atoms: C_16  and  C_17
REMARK    6  A    between atoms: C_18  and  C_22
REMARK                            x       y       z     vdW  Elec       q    Type
REMARK                         _______ _______ _______ _____ _____    ______ ____
ROOT
ATOM      1  N   UNL     1       6.056   4.016  -0.321  0.00  0.00    -0.281 N 
ATOM      2  C   UNL     1       5.722   2.683  -0.270  0.00  0.00    +0.123 A 
ATOM      3  C   UNL     1       6.749   1.740  -0.353  0.00  0.00    +0.126 A 
ATOM      4  C   UNL     1       8.127   2.206  -0.490  0.00  0.00    +0.269 A 
ATOM      5  O   UNL     1       9.049   1.414  -0.565  0.00  0.00    -0.267 OA
ATOM      6  N   UNL     1       8.353   3.537  -0.530  0.00  0.00    -0.263 N 
ATOM      7  C   UNL     1       7.333   4.407  -0.447  0.00  0.00    +0.333 A 
ATOM      8  O   UNL     1       7.577   5.597  -0.487  0.00  0.00    -0.246 OA
ATOM      9  C   UNL     1       9.724   4.037  -0.666  0.00  0.00    +0.157 C 
ATOM     10  C   UNL     1       6.135   0.414  -0.268  0.00  0.00    +0.216 C 
ATOM     11  O   UNL     1       6.698  -0.669  -0.298  0.00  0.00    -0.285 OA
ATOM     12  C   UNL     1       4.695   0.671  -0.142  0.00  0.00    +0.082 C 
ATOM     13  C   UNL     1       3.709  -0.267  -0.035  0.00  0.00    +0.042 C 
ATOM     14  N   UNL     1       4.526   2.054  -0.147  0.00  0.00    -0.297 N 
ATOM     15  H   UNL     1       3.671   2.505  -0.073  0.00  0.00    +0.154 HD
ENDROOT
BRANCH  13  16
ATOM     16  C   UNL     1       2.353   0.130  -0.037  0.00  0.00    +0.017 A 
ATOM     17  C   UNL     1       1.208  -0.661  -0.038  0.00  0.00    -0.036 A 
ATOM     18  C   UNL     1       0.002  -0.008  -0.040  0.00  0.00    +0.011 A 
ATOM     19  C   UNL     1      -0.018   1.352  -0.040  0.00  0.00    +0.046 A 
ATOM     20  S   UNL     1       1.663   1.774  -0.037  0.00  0.00    -0.097 S 
ATOM     21  C   UNL     1       1.289  -2.166  -0.038  0.00  0.00    +0.045 C 
ENDBRANCH  13  16
BRANCH   1  22
ATOM     22  C   UNL     1       4.998   5.026  -0.236  0.00  0.00    +0.128 C 
BRANCH  22  24
ATOM     23  C   UNL     1       3.662   6.455   1.318  0.00  0.00    +0.005 C 
ATOM     24  C   UNL     1       4.766   5.399   1.229  0.00  0.00    +0.018 C 
ENDBRANCH  22  24
ENDBRANCH   1  22
TORSDOF 3
