REMARK  Name = ZINC18526946
REMARK  8 active torsions:
REMARK  status: ('A' for Active; 'I' for Inactive)
REMARK    1  A    between atoms: C_3  and  C_6
REMARK    2  A    between atoms: C_9  and  S_12
REMARK    3  A    between atoms: N_10  and  N_11
REMARK    4  A    between atoms: S_12  and  C_13
REMARK    5  A    between atoms: C_13  and  C_14
REMARK    6  A    between atoms: N_16  and  C_17
REMARK    7  A    between atoms: C_19  and  C_29
REMARK    8  A    between atoms: C_22  and  N_23
REMARK                            x       y       z     vdW  Elec       q    Type
REMARK                         _______ _______ _______ _____ _____    ______ ____
ROOT
ATOM      1  C   UNL     1       3.761  10.753  -0.362  0.00  0.00    +0.228 C 
ATOM      2  O   UNL     1       4.931  10.552  -0.609  0.00  0.00    -0.275 OA
ATOM      3  N   UNL     1       3.356  11.976   0.035  0.00  0.00    -0.283 N 
ATOM      4  H   UNL     1       2.411  12.158   0.154  0.00  0.00    +0.155 HD
ENDROOT
BRANCH   3   5
ATOM      5  C   UNL     1       4.301  12.983   0.275  0.00  0.00    +0.055 A 
ATOM      6  C   UNL     1       5.604  12.648   0.612  0.00  0.00    +0.037 A 
ATOM      7  C   UNL     1       6.534  13.643   0.848  0.00  0.00    +0.057 A 
ATOM      8  C   UNL     1       6.170  14.973   0.749  0.00  0.00    +0.014 A 
ATOM      9  C   UNL     1       4.873  15.316   0.414  0.00  0.00    +0.025 A 
ATOM     10  C   UNL     1       3.935  14.324   0.170  0.00  0.00    +0.051 A 
BRANCH  10  11
ATOM     11  N   UNL     1       2.623  14.669  -0.174  0.00  0.00    -0.328 N 
ATOM     12  C   UNL     1       2.585  15.368  -1.465  0.00  0.00    +0.105 C 
ATOM     13  C   UNL     1       1.130  15.599  -1.878  0.00  0.00    +0.019 C 
ATOM     14  C   UNL     1       0.425  16.433  -0.804  0.00  0.00    +0.003 C 
ATOM     15  C   UNL     1       0.522  15.705   0.540  0.00  0.00    +0.019 C 
ATOM     16  C   UNL     1       1.995  15.471   0.883  0.00  0.00    +0.105 C 
ENDBRANCH  10  11
BRANCH   7  17
ATOM     17  C   UNL     1       7.949  13.277   1.214  0.00  0.00    +0.417 C 
ATOM     18  F   UNL     1       8.716  13.159   0.049  0.00  0.00    -0.166 F 
ATOM     19  F   UNL     1       8.493  14.273   2.031  0.00  0.00    -0.166 F 
ATOM     20  F   UNL     1       7.953  12.057   1.900  0.00  0.00    -0.166 F 
ENDBRANCH   7  17
ENDBRANCH   3   5
BRANCH   1  21
ATOM     21  C   UNL     1       2.759   9.636  -0.500  0.00  0.00    +0.173 C 
BRANCH  21  22
ATOM     22  S   UNL     1       3.605   8.131  -1.046  0.00  0.00    -0.075 S 
BRANCH  22  26
ATOM     23  C   UNL     1       0.984   5.252  -1.396  0.00  0.00    +0.188 A 
ATOM     24  N   UNL     1       0.248   6.269  -1.006  0.00  0.00    -0.126 NA
ATOM     25  N   UNL     1       0.987   7.307  -0.840  0.00  0.00    -0.121 NA
ATOM     26  C   UNL     1       2.238   7.022  -1.122  0.00  0.00    +0.209 A 
ATOM     27  N   UNL     1       2.282   5.705  -1.486  0.00  0.00    -0.223 N 
BRANCH  23  30
ATOM     28  C   UNL     1      -0.910   2.000  -1.751  0.00  0.00    +0.008 A 
ATOM     29  C   UNL     1      -0.686   3.301  -1.362  0.00  0.00    +0.019 A 
ATOM     30  C   UNL     1       0.510   3.889  -1.688  0.00  0.00    +0.058 A 
ATOM     31  S   UNL     1       1.342   2.571  -2.559  0.00  0.00    -0.093 S 
ATOM     32  C   UNL     1       0.059   1.337  -2.434  0.00  0.00    +0.046 A 
ENDBRANCH  23  30
BRANCH  27  33
ATOM     33  N   UNL     1       3.382   4.988  -1.861  0.00  0.00    -0.295 N 
ATOM     34  H   UNL     1       3.527   5.042  -2.858  0.00  0.00    +0.163 HD
ATOM     35  H   UNL     1       4.202   5.296  -1.359  0.00  0.00    +0.163 HD
ENDBRANCH  27  33
ENDBRANCH  22  26
ENDBRANCH  21  22
ENDBRANCH   1  21
TORSDOF 8
