REMARK  Name = ZINC65013438
REMARK  4 active torsions:
REMARK  status: ('A' for Active; 'I' for Inactive)
REMARK    1  A    between atoms: C_3  and  O_19
REMARK    2  A    between atoms: C_6  and  C_7
REMARK    3  A    between atoms: O_19  and  C_20
REMARK    4  A    between atoms: C_20  and  C_21
REMARK                            x       y       z     vdW  Elec       q    Type
REMARK                         _______ _______ _______ _____ _____    ______ ____
ROOT
ATOM      1  C   UNL     1      -1.293  -0.774   0.011  0.00  0.00    +0.190 C 
ATOM      2  N   UNL     1      -1.087  -2.066   0.677  0.00  0.00    -0.322 N 
ATOM      3  C   UNL     1      -0.993  -2.090   2.064  0.00  0.00    +0.041 A 
ATOM      4  C   UNL     1      -0.241  -3.041   2.731  0.00  0.00    +0.025 A 
ATOM      5  C   UNL     1      -0.177  -3.019   4.111  0.00  0.00    +0.022 A 
ATOM      6  C   UNL     1      -0.861  -2.051   4.833  0.00  0.00    +0.042 A 
ATOM      7  C   UNL     1      -1.616  -1.096   4.183  0.00  0.00    +0.035 A 
ATOM      8  C   UNL     1      -1.689  -1.109   2.792  0.00  0.00    +0.059 A 
ATOM      9  C   UNL     1      -2.487  -0.118   2.048  0.00  0.00    +0.247 C 
ATOM     10  O   UNL     1      -3.293   0.584   2.628  0.00  0.00    -0.270 OA
ATOM     11  N   UNL     1      -2.313   0.002   0.715  0.00  0.00    -0.289 N 
ATOM     12 CL   UNL     1      -0.766  -2.042   6.566  0.00  0.00    -0.084 Cl
ATOM     13  H   UNL     1      -1.018  -2.884   0.161  0.00  0.00    +0.148 HD
ATOM     14  H   UNL     1      -2.875   0.615   0.215  0.00  0.00    +0.151 HD
ENDROOT
BRANCH   1  20
ATOM     15  C   UNL     1      -0.017   1.378   0.010  0.00  0.00    +0.010 A 
ATOM     16  C   UNL     1       1.169   2.087   0.002  0.00  0.00    +0.046 A 
ATOM     17  C   UNL     1       2.380   1.409  -0.013  0.00  0.00    +0.121 A 
ATOM     18  C   UNL     1       2.396   0.022  -0.021  0.00  0.00    +0.046 A 
ATOM     19  C   UNL     1       1.207  -0.681  -0.013  0.00  0.00    +0.010 A 
ATOM     20  C   UNL     1       0.002  -0.004   0.002  0.00  0.00    -0.009 A 
BRANCH  17  21
ATOM     21  O   UNL     1       3.548   2.104  -0.021  0.00  0.00    -0.484 OA
BRANCH  21  22
ATOM     22  C   UNL     1       4.756   1.341  -0.036  0.00  0.00    +0.308 C 
BRANCH  22  23
ATOM     23  C   UNL     1       5.940   2.274  -0.043  0.00  0.00    +0.209 A 
ATOM     24  N   UNL     1       6.537   2.765  -1.135  0.00  0.00    -0.196 NA
ATOM     25  C   UNL     1       7.528   3.540  -0.793  0.00  0.00    +0.343 A 
ATOM     26  O   UNL     1       7.596   3.568   0.544  0.00  0.00    -0.341 OA
ATOM     27  N   UNL     1       6.544   2.737   1.013  0.00  0.00    -0.058 NA
ENDBRANCH  22  23
ENDBRANCH  21  22
ENDBRANCH  17  21
ENDBRANCH   1  20
TORSDOF 4
