REMARK  Name = ZINC05451492
REMARK  6 active torsions:
REMARK  status: ('A' for Active; 'I' for Inactive)
REMARK    1  A    between atoms: C_1  and  C_2
REMARK    2  A    between atoms: C_9  and  C_12
REMARK    3  A    between atoms: N_14  and  C_15
REMARK    4  A    between atoms: C_15  and  C_16
REMARK    5  A    between atoms: C_16  and  C_18
REMARK    6  A    between atoms: C_16  and  N_23
REMARK                            x       y       z     vdW  Elec       q    Type
REMARK                         _______ _______ _______ _____ _____    ______ ____
ROOT
ATOM      1  C   UNL     1      -1.382  -8.585   1.527  0.00  0.00    +0.252 C 
ATOM      2  O   UNL     1      -0.691  -7.922   0.777  0.00  0.00    -0.270 OA
ATOM      3  N   UNL     1      -1.102  -8.624   2.844  0.00  0.00    -0.312 N 
ATOM      4  H   UNL     1      -1.654  -9.152   3.442  0.00  0.00    +0.149 HD
ENDROOT
BRANCH   1  13
ATOM      5  C   UNL     1      -7.558 -12.742  -1.062  0.00  0.00    +0.044 C 
ATOM      6  C   UNL     1      -6.346 -11.863  -0.889  0.00  0.00    -0.049 A 
ATOM      7  C   UNL     1      -5.779 -11.229  -1.988  0.00  0.00    +0.004 A 
ATOM      8  C   UNL     1      -4.687 -10.431  -1.864  0.00  0.00    +0.011 A 
ATOM      9  C   UNL     1      -4.085 -10.216  -0.597  0.00  0.00    +0.008 A 
ATOM     10  C   UNL     1      -4.683 -10.874   0.503  0.00  0.00    +0.022 A 
ATOM     11  C   UNL     1      -5.795 -11.678   0.363  0.00  0.00    +0.019 A 
ATOM     12  S   UNL     1      -3.677 -10.378   1.879  0.00  0.00    -0.082 S 
ATOM     13  C   UNL     1      -2.523  -9.343   0.996  0.00  0.00    +0.093 A 
ATOM     14  C   UNL     1      -2.959  -9.428  -0.290  0.00  0.00    +0.068 A 
ATOM     15 CL   UNL     1      -2.131  -8.567  -1.549  0.00  0.00    -0.082 Cl
ENDBRANCH   1  13
BRANCH   3  16
ATOM     16  C   UNL     1       0.036  -7.867   3.374  0.00  0.00    +0.097 C 
BRANCH  16  17
ATOM     17  C   UNL     1       0.070  -7.998   4.898  0.00  0.00    +0.016 C 
BRANCH  17  18
ATOM     18  N   UNL     1       1.128  -7.135   5.439  0.00  0.00    +0.387 N 
ATOM     19  C   UNL     1       0.829  -5.710   5.143  0.00  0.00    -0.078 C 
ATOM     20  C   UNL     1       1.656  -4.946   6.207  0.00  0.00    -0.020 C 
ATOM     21  C   UNL     1       1.527  -5.845   7.457  0.00  0.00    -0.020 C 
ATOM     22  C   UNL     1       1.167  -7.240   6.914  0.00  0.00    -0.078 C 
ATOM     23  H   UNL     1       2.022  -7.392   5.048  0.00  0.00    -0.081 HD
ENDBRANCH  17  18
BRANCH  17  24
ATOM     24  C   UNL     1       0.350  -9.431   5.273  0.00  0.00    +0.093 A 
ATOM     25  C   UNL     1      -0.568 -10.338   5.653  0.00  0.00    +0.043 A 
ATOM     26  C   UNL     1       0.128 -11.542   5.909  0.00  0.00    +0.041 A 
ATOM     27  C   UNL     1       1.429 -11.299   5.669  0.00  0.00    +0.195 A 
ATOM     28  O   UNL     1       1.556 -10.020   5.278  0.00  0.00    -0.469 OA
ENDBRANCH  17  24
ENDBRANCH  16  17
ENDBRANCH   3  16
TORSDOF 5
