REMARK  Name = ZINC36500525
REMARK  17 active torsions:
REMARK  status: ('A' for Active; 'I' for Inactive)
REMARK    1  A    between atoms: C_1  and  C_2
REMARK    2  A    between atoms: C_2  and  C_3
REMARK    3  A    between atoms: C_2  and  C_4
REMARK    4  A    between atoms: C_2  and  C_5
REMARK    5  A    between atoms: C_5  and  C_6
REMARK    6  A    between atoms: C_6  and  C_7
REMARK    7  A    between atoms: C_6  and  C_8
REMARK    8  A    between atoms: C_6  and  N_9
REMARK    9  A    between atoms: C_10  and  C_12
REMARK   10  A    between atoms: C_12  and  C_14
REMARK   11  A    between atoms: C_12  and  N_21
REMARK   12  A    between atoms: C_19  and  O_20
REMARK   13  A    between atoms: N_21  and  C_22
REMARK   14  A    between atoms: C_22  and  C_23
REMARK   15  A    between atoms: C_28  and  C_30
REMARK   16  A    between atoms: C_31  and  O_37
REMARK   17  A    between atoms: C_35  and  O_36
REMARK                            x       y       z     vdW  Elec       q    Type
REMARK                         _______ _______ _______ _____ _____    ______ ____
ROOT
ATOM      1  C   UNL     1       4.769   0.717  -4.647  0.00  0.00    +0.196 C 
ENDROOT
BRANCH   1   2
ATOM      2  C   UNL     1       4.680  -0.657  -5.259  0.00  0.00    +0.023 A 
ATOM      3  C   UNL     1       5.819  -1.426  -5.402  0.00  0.00    +0.009 A 
ATOM      4  C   UNL     1       5.737  -2.687  -5.964  0.00  0.00    +0.001 A 
ATOM      5  C   UNL     1       4.516  -3.181  -6.386  0.00  0.00    +0.004 A 
ATOM      6  C   UNL     1       3.375  -2.416  -6.245  0.00  0.00    +0.046 A 
ATOM      7  C   UNL     1       3.453  -1.153  -5.676  0.00  0.00    +0.122 A 
BRANCH   7   8
ATOM      8  O   UNL     1       2.330  -0.401  -5.532  0.00  0.00    -0.506 OA
ATOM      9  H   UNL     1       2.136   0.166  -6.291  0.00  0.00    +0.292 HD
ENDBRANCH   7   8
ENDBRANCH   1   2
BRANCH   1  11
ATOM     10  N   UNL     1       3.233   0.179  -2.783  0.00  0.00    -0.308 N 
ATOM     11  C   UNL     1       4.439   0.634  -3.179  0.00  0.00    +0.239 C 
ATOM     12  O   UNL     1       5.258   0.977  -2.353  0.00  0.00    -0.273 OA
ATOM     13  H   UNL     1       2.578  -0.095  -3.444  0.00  0.00    +0.149 HD
BRANCH  10  14
ATOM     14  C   UNL     1       2.912   0.099  -1.356  0.00  0.00    +0.030 C 
ATOM     15  C   UNL     1       3.244   1.433  -0.683  0.00  0.00    +0.031 C 
ATOM     16  C   UNL     1       3.736  -1.017  -0.710  0.00  0.00    +0.031 C 
BRANCH  14  17
ATOM     17  C   UNL     1       1.422  -0.202  -1.185  0.00  0.00    +0.031 C 
BRANCH  17  19
ATOM     18  C   UNL     1       0.668   0.060  -3.553  0.00  0.00    +0.010 C 
ATOM     19  C   UNL     1       0.612   0.667  -2.149  0.00  0.00    -0.036 C 
ATOM     20  C   UNL     1       1.200   2.079  -2.180  0.00  0.00    +0.010 C 
ATOM     21  C   UNL     1      -0.843   0.731  -1.679  0.00  0.00    +0.010 C 
ENDBRANCH  17  19
ENDBRANCH  14  17
ENDBRANCH  10  14
ENDBRANCH   1  11
BRANCH   1  22
ATOM     22  N   UNL     1       6.128   1.238  -4.813  0.00  0.00    -0.274 N 
ATOM     23  C   UNL     1       7.123   0.791  -4.021  0.00  0.00    +0.255 C 
ATOM     24  O   UNL     1       6.907  -0.093  -3.214  0.00  0.00    -0.270 OA
BRANCH  23  25
ATOM     25  C   UNL     1       8.471   1.373  -4.134  0.00  0.00    +0.119 A 
ATOM     26  C   UNL     1       8.830   2.479  -3.350  0.00  0.00    +0.133 A 
ATOM     27  C   UNL     1      10.101   3.018  -3.463  0.00  0.00    +0.046 A 
ATOM     28  C   UNL     1      11.014   2.470  -4.345  0.00  0.00    +0.007 A 
ATOM     29  C   UNL     1      10.671   1.379  -5.122  0.00  0.00    +0.046 A 
ATOM     30  C   UNL     1       9.407   0.821  -5.021  0.00  0.00    +0.133 A 
BRANCH  30  31
ATOM     31  O   UNL     1       9.074  -0.253  -5.780  0.00  0.00    -0.506 OA
ATOM     32  H   UNL     1       8.691  -0.024  -6.638  0.00  0.00    +0.292 HD
ENDBRANCH  30  31
BRANCH  26  33
ATOM     33  O   UNL     1       7.936   3.020  -2.485  0.00  0.00    -0.506 OA
ATOM     34  H   UNL     1       7.963   2.634  -1.599  0.00  0.00    +0.292 HD
ENDBRANCH  26  33
ENDBRANCH  23  25
BRANCH  22  35
ATOM     35  C   UNL     1       6.405   2.246  -5.840  0.00  0.00    +0.183 C 
BRANCH  35  36
ATOM     36  C   UNL     1       6.068   3.614  -5.305  0.00  0.00    +0.122 A 
ATOM     37  C   UNL     1       6.937   4.476  -4.748  0.00  0.00    +0.046 A 
ATOM     38  C   UNL     1       6.199   5.628  -4.391  0.00  0.00    +0.041 A 
ATOM     39  C   UNL     1       4.923   5.400  -4.751  0.00  0.00    +0.195 A 
ATOM     40  O   UNL     1       4.851   4.181  -5.309  0.00  0.00    -0.466 OA
ENDBRANCH  35  36
ENDBRANCH  22  35
ENDBRANCH   1  22
TORSDOF 12
