REMARK  Name = ZINC35674748
REMARK  15 active torsions:
REMARK  status: ('A' for Active; 'I' for Inactive)
REMARK    1  A    between atoms: C_1  and  C_2
REMARK    2  A    between atoms: C_2  and  C_3
REMARK    3  A    between atoms: C_3  and  C_5
REMARK    4  A    between atoms: C_3  and  N_28
REMARK    5  A    between atoms: C_9  and  O_26
REMARK    6  A    between atoms: C_10  and  O_24
REMARK    7  A    between atoms: N_15  and  C_16
REMARK    8  A    between atoms: C_16  and  C_17
REMARK    9  A    between atoms: C_22  and  C_23
REMARK   10  A    between atoms: O_24  and  C_25
REMARK   11  A    between atoms: O_26  and  C_27
REMARK   12  A    between atoms: N_31  and  C_32
REMARK   13  A    between atoms: C_32  and  C_33
REMARK   14  A    between atoms: C_32  and  C_34
REMARK   15  A    between atoms: C_32  and  C_35
REMARK                            x       y       z     vdW  Elec       q    Type
REMARK                         _______ _______ _______ _____ _____    ______ ____
ROOT
ATOM      1  C   UNL     1       1.032  -2.372  -0.949  0.00  0.00    -0.016 C 
ATOM      2  C   UNL     1       2.099  -2.723  -1.953  0.00  0.00    -0.052 A 
ATOM      3  C   UNL     1       1.913  -2.345  -3.275  0.00  0.00    +0.051 A 
ATOM      4  C   UNL     1       2.867  -2.648  -4.230  0.00  0.00    +0.162 A 
ATOM      5  C   UNL     1       4.018  -3.339  -3.861  0.00  0.00    +0.162 A 
ATOM      6  C   UNL     1       4.199  -3.714  -2.542  0.00  0.00    +0.053 A 
ATOM      7  C   UNL     1       3.240  -3.405  -1.588  0.00  0.00    -0.044 A 
ATOM      8  C   UNL     1       3.482  -3.825  -0.161  0.00  0.00    +0.017 C 
ATOM      9  C   UNL     1       2.174  -3.758   0.628  0.00  0.00    -0.073 C 
ATOM     10  N   UNL     1       1.565  -2.436   0.414  0.00  0.00    +0.388 N 
ATOM     11  H   UNL     1       2.264  -1.719   0.537  0.00  0.00    -0.080 HD
ENDROOT
BRANCH   5  12
ATOM     12  O   UNL     1       4.960  -3.643  -4.793  0.00  0.00    -0.491 OA
ATOM     13  C   UNL     1       6.115  -4.353  -4.341  0.00  0.00    +0.277 C 
ENDBRANCH   5  12
BRANCH   4  14
ATOM     14  O   UNL     1       2.680  -2.275  -5.524  0.00  0.00    -0.491 OA
ATOM     15  C   UNL     1       1.426  -1.673  -5.851  0.00  0.00    +0.277 C 
ENDBRANCH   4  14
BRANCH   1  16
ATOM     16  C   UNL     1       0.525  -0.955  -1.227  0.00  0.00    +0.065 C 
BRANCH  16  17
ATOM     17  N   UNL     1      -0.625  -0.671  -0.365  0.00  0.00    -0.298 N 
ATOM     18  C   UNL     1      -1.819  -1.240  -0.625  0.00  0.00    +0.300 C 
ATOM     19  O   UNL     1      -1.920  -2.060  -1.517  0.00  0.00    -0.253 OA
ATOM     20  N   UNL     1      -2.900  -0.901   0.105  0.00  0.00    -0.295 N 
ATOM     21  H   UNL     1      -0.527  -0.072   0.392  0.00  0.00    +0.150 HD
ATOM     22  H   UNL     1      -2.834  -0.202   0.774  0.00  0.00    +0.151 HD
BRANCH  20  23
ATOM     23  C   UNL     1      -4.175  -1.588  -0.113  0.00  0.00    +0.028 C 
ATOM     24  C   UNL     1      -3.994  -3.088   0.129  0.00  0.00    +0.031 C 
ATOM     25  C   UNL     1      -5.223  -1.038   0.858  0.00  0.00    +0.031 C 
ATOM     26  C   UNL     1      -4.641  -1.356  -1.551  0.00  0.00    +0.031 C 
ENDBRANCH  20  23
ENDBRANCH  16  17
BRANCH  16  28
ATOM     27  C   UNL     1       1.181   1.453  -1.341  0.00  0.00    +0.005 C 
ATOM     28  C   UNL     1       1.641   0.051  -0.937  0.00  0.00    +0.017 C 
ENDBRANCH  16  28
ENDBRANCH   1  16
BRANCH  10  29
ATOM     29  C   UNL     1       0.476  -2.236   1.379  0.00  0.00    -0.042 C 
BRANCH  29  30
ATOM     30  C   UNL     1       0.985  -2.496   2.773  0.00  0.00    -0.061 A 
ATOM     31  C   UNL     1       0.747  -3.716   3.379  0.00  0.00    +0.002 A 
ATOM     32  C   UNL     1       1.214  -3.954   4.658  0.00  0.00    +0.000 A 
ATOM     33  C   UNL     1       1.919  -2.974   5.331  0.00  0.00    +0.000 A 
ATOM     34  C   UNL     1       2.158  -1.755   4.724  0.00  0.00    +0.003 A 
ATOM     35  C   UNL     1       1.694  -1.518   3.443  0.00  0.00    -0.049 A 
ATOM     36  C   UNL     1       1.958  -0.190   2.780  0.00  0.00    +0.044 C 
ENDBRANCH  29  30
ENDBRANCH  10  29
TORSDOF 8
