REMARK  Name = ZINC64481622
REMARK  6 active torsions:
REMARK  status: ('A' for Active; 'I' for Inactive)
REMARK    1  A    between atoms: C_2  and  C_3
REMARK    2  A    between atoms: C_3  and  S_4
REMARK    3  A    between atoms: S_4  and  C_5
REMARK    4  A    between atoms: C_11  and  C_19
REMARK    5  A    between atoms: C_22  and  O_26
REMARK    6  A    between atoms: C_23  and  O_25
REMARK                            x       y       z     vdW  Elec       q    Type
REMARK                         _______ _______ _______ _____ _____    ______ ____
ROOT
ATOM      1  C   UNL     1       3.033  -2.772   1.896  0.00  0.00    +0.182 C 
ATOM      2  N   UNL     1       3.522  -2.511   0.696  0.00  0.00    -0.154 NA
ATOM      3  C   UNL     1       4.681  -3.022   0.276  0.00  0.00    +0.249 C 
ATOM      4  O   UNL     1       5.136  -2.755  -0.819  0.00  0.00    -0.273 OA
ATOM      5  C   UNL     1       5.401  -3.951   1.231  0.00  0.00    +0.148 C 
ATOM      6  C   UNL     1       6.819  -3.417   1.442  0.00  0.00    +0.047 C 
ATOM      7  C   UNL     1       7.609  -4.438   2.266  0.00  0.00    +0.105 C 
ATOM      8  C   UNL     1       6.834  -4.865   3.479  0.00  0.00    +0.219 C 
ATOM      9  O   UNL     1       7.434  -5.382   4.396  0.00  0.00    -0.275 OA
ATOM     10  N   UNL     1       5.506  -4.701   3.592  0.00  0.00    -0.273 N 
ATOM     11  C   UNL     1       4.789  -4.085   2.613  0.00  0.00    +0.117 C 
ATOM     12  N   UNL     1       3.647  -3.498   2.837  0.00  0.00    -0.212 NA
ATOM     13  H   UNL     1       5.046  -5.037   4.377  0.00  0.00    +0.156 HD
ENDROOT
BRANCH   6  14
ATOM     14  C   UNL     1       6.760  -2.104   2.179  0.00  0.00    -0.039 A 
ATOM     15  C   UNL     1       6.502  -2.086   3.537  0.00  0.00    +0.008 A 
ATOM     16  C   UNL     1       6.447  -0.884   4.218  0.00  0.00    +0.049 A 
ATOM     17  C   UNL     1       6.651   0.306   3.538  0.00  0.00    +0.158 A 
ATOM     18  C   UNL     1       6.911   0.288   2.171  0.00  0.00    +0.158 A 
ATOM     19  C   UNL     1       6.970  -0.920   1.496  0.00  0.00    +0.053 A 
BRANCH  18  20
ATOM     20  O   UNL     1       7.112   1.454   1.501  0.00  0.00    -0.503 OA
ATOM     21  H   UNL     1       8.037   1.737   1.472  0.00  0.00    +0.292 HD
ENDBRANCH  18  20
BRANCH  17  22
ATOM     22  O   UNL     1       6.597   1.490   4.206  0.00  0.00    -0.503 OA
ATOM     23  H   UNL     1       7.448   1.778   4.565  0.00  0.00    +0.292 HD
ENDBRANCH  17  22
ENDBRANCH   6  14
BRANCH   1  24
ATOM     24  S   UNL     1       1.450  -2.104   2.290  0.00  0.00    -0.084 S 
BRANCH  24  25
ATOM     25  C   UNL     1       0.967  -1.207   0.790  0.00  0.00    +0.103 C 
BRANCH  25  27
ATOM     26  C   UNL     1      -0.510   0.726   1.003  0.00  0.00    +0.005 C 
ATOM     27  C   UNL     1      -0.388  -0.578   0.994  0.00  0.00    -0.023 C 
ENDBRANCH  25  27
ENDBRANCH  24  25
ENDBRANCH   1  24
TORSDOF 6
