REMARK  Name = ZINC66783397
REMARK  6 active torsions:
REMARK  status: ('A' for Active; 'I' for Inactive)
REMARK    1  A    between atoms: C_1  and  C_2
REMARK    2  A    between atoms: C_2  and  N_3
REMARK    3  A    between atoms: C_9  and  C_15
REMARK    4  A    between atoms: N_17  and  N_18
REMARK    5  A    between atoms: C_19  and  C_21
REMARK    6  A    between atoms: C_22  and  C_26
REMARK                            x       y       z     vdW  Elec       q    Type
REMARK                         _______ _______ _______ _____ _____    ______ ____
ROOT
ATOM      1  N   UNL     1       0.688  -0.476  -1.203  0.00  0.00    -0.287 N 
ATOM      2  C   UNL     1      -0.023  -0.697  -2.331  0.00  0.00    +0.262 A 
ATOM      3  O   UNL     1      -1.350  -0.487  -2.361  0.00  0.00    -0.267 OA
ATOM      4  C   UNL     1       0.664  -1.152  -3.476  0.00  0.00    +0.065 A 
ATOM      5  C   UNL     1      -0.005  -1.402  -4.683  0.00  0.00    +0.016 A 
ATOM      6  C   UNL     1       0.693  -1.840  -5.767  0.00  0.00    +0.014 A 
ATOM      7  C   UNL     1       2.079  -2.045  -5.695  0.00  0.00    +0.040 A 
ATOM      8  C   UNL     1       2.767  -1.807  -4.516  0.00  0.00    +0.041 A 
ATOM      9  C   UNL     1       2.066  -1.355  -3.389  0.00  0.00    +0.080 A 
ATOM     10  N   UNL     1       2.691  -1.111  -2.228  0.00  0.00    -0.222 NA
ATOM     11  C   UNL     1       2.015  -0.679  -1.174  0.00  0.00    +0.183 A 
ATOM     12  S   UNL     1       2.864  -0.376   0.282  0.00  0.00    -0.011 S 
ENDROOT
BRANCH   7  13
ATOM     13  C   UNL     1       2.813  -2.522  -6.890  0.00  0.00    +0.260 C 
ATOM     14  O   UNL     1       4.014  -2.702  -6.833  0.00  0.00    -0.269 OA
ATOM     15  N   UNL     1       2.150  -2.756  -8.039  0.00  0.00    -0.230 N 
ATOM     16  H   UNL     1       1.192  -2.613  -8.084  0.00  0.00    +0.173 HD
BRANCH  15  17
ATOM     17  N   UNL     1       2.845  -3.207  -9.169  0.00  0.00    -0.230 N 
ATOM     18  C   UNL     1       2.182  -3.442 -10.319  0.00  0.00    +0.267 C 
ATOM     19  O   UNL     1       0.980  -3.261 -10.376  0.00  0.00    -0.268 OA
ATOM     20  H   UNL     1       3.803  -3.351  -9.124  0.00  0.00    +0.173 HD
BRANCH  18  21
ATOM     21  C   UNL     1       2.909  -3.913 -11.501  0.00  0.00    +0.078 A 
ATOM     22  C   UNL     1       2.423  -4.205 -12.767  0.00  0.00    -0.031 A 
ATOM     23  C   UNL     1       3.356  -4.633 -13.680  0.00  0.00    +0.011 A 
ATOM     24  C   UNL     1       4.653  -4.739 -13.298  0.00  0.00    +0.046 A 
ATOM     25  S   UNL     1       4.648  -4.254 -11.689  0.00  0.00    -0.092 S 
ATOM     26  C   UNL     1       0.964  -4.064 -13.118  0.00  0.00    +0.045 C 
ENDBRANCH  18  21
ENDBRANCH  15  17
ENDBRANCH   7  13
BRANCH   1  28
ATOM     27  C   UNL     1      -0.019   1.526   0.010  0.00  0.00    +0.027 C 
ATOM     28  C   UNL     1       0.002  -0.004   0.002  0.00  0.00    +0.124 C 
ENDBRANCH   1  28
TORSDOF 4
