REMARK  Name = ZINC04469038
REMARK  5 active torsions:
REMARK  status: ('A' for Active; 'I' for Inactive)
REMARK    1  A    between atoms: C_1  and  C_2
REMARK    2  A    between atoms: C_2  and  C_4
REMARK    3  A    between atoms: C_2  and  N_11
REMARK    4  A    between atoms: C_12  and  C_14
REMARK    5  A    between atoms: C_14  and  N_15
REMARK                            x       y       z     vdW  Elec       q    Type
REMARK                         _______ _______ _______ _____ _____    ______ ____
ROOT
ATOM      1  N   UNL     1       0.318   1.860   0.388  0.00  0.00    -0.215 N 
ATOM      2  C   UNL     1       1.144   0.800   0.277  0.00  0.00    +0.251 C 
ATOM      3  O   UNL     1       2.337   0.819   0.061  0.00  0.00    -0.272 OA
ATOM      4  C   UNL     1       0.270  -0.418   0.476  0.00  0.00    +0.138 C 
ATOM      5  C   UNL     1       0.283  -1.288  -0.774  0.00  0.00    +0.040 C 
ATOM      6  C   UNL     1      -0.453  -2.598  -0.464  0.00  0.00    +0.008 C 
ATOM      7  C   UNL     1       0.392  -3.405   0.520  0.00  0.00    +0.035 C 
ATOM      8  C   UNL     1       0.771  -2.563   1.710  0.00  0.00    -0.042 A 
ATOM      9  C   UNL     1       0.721  -1.186   1.687  0.00  0.00    -0.012 A 
ATOM     10  C   UNL     1       1.095  -0.466   2.814  0.00  0.00    +0.006 A 
ATOM     11  C   UNL     1       1.512  -1.118   3.956  0.00  0.00    +0.000 A 
ATOM     12  C   UNL     1       1.560  -2.499   3.980  0.00  0.00    +0.000 A 
ATOM     13  C   UNL     1       1.190  -3.217   2.861  0.00  0.00    +0.004 A 
ATOM     14  N   UNL     1      -1.071   0.141   0.698  0.00  0.00    -0.281 N 
ATOM     15  C   UNL     1      -0.943   1.479   0.628  0.00  0.00    +0.310 C 
ATOM     16  O   UNL     1      -1.869   2.255   0.763  0.00  0.00    -0.252 OA
ATOM     17  H   UNL     1      -1.887  -0.357   0.862  0.00  0.00    +0.152 HD
ENDROOT
BRANCH   1  18
ATOM     18  C   UNL     1       0.746   3.255   0.262  0.00  0.00    +0.213 C 
BRANCH  18  20
ATOM     19  N   UNL     1       1.577   5.053   1.744  0.00  0.00    -0.307 N 
ATOM     20  C   UNL     1       1.145   3.783   1.616  0.00  0.00    +0.231 C 
ATOM     21  O   UNL     1       1.078   3.064   2.591  0.00  0.00    -0.274 OA
ATOM     22  H   UNL     1       1.631   5.628   0.965  0.00  0.00    +0.149 HD
BRANCH  19  24
ATOM     23  C   UNL     1       3.439   5.246   3.318  0.00  0.00    +0.033 C 
ATOM     24  C   UNL     1       1.965   5.566   3.060  0.00  0.00    +0.102 C 
BRANCH  24  25
ATOM     25  C   UNL     1       1.760   7.058   3.099  0.00  0.00    -0.009 A 
ATOM     26  C   UNL     1       1.826   7.795   1.931  0.00  0.00    +0.007 A 
ATOM     27  C   UNL     1       1.639   9.164   1.966  0.00  0.00    +0.000 A 
ATOM     28  C   UNL     1       1.384   9.797   3.168  0.00  0.00    +0.001 A 
ATOM     29  C   UNL     1       1.318   9.061   4.336  0.00  0.00    +0.020 A 
ATOM     30  C   UNL     1       1.501   7.690   4.301  0.00  0.00    +0.046 A 
ATOM     31 CL   UNL     1       1.410   6.764   5.767  0.00  0.00    -0.083 Cl
ENDBRANCH  24  25
ENDBRANCH  19  24
ENDBRANCH  18  20
ENDBRANCH   1  18
TORSDOF 4
