REMARK  Name = ZINC48063699
REMARK  8 active torsions:
REMARK  status: ('A' for Active; 'I' for Inactive)
REMARK    1  A    between atoms: C_1  and  C_2
REMARK    2  A    between atoms: C_2  and  N_3
REMARK    3  A    between atoms: N_3  and  C_4
REMARK    4  A    between atoms: C_4  and  C_5
REMARK    5  A    between atoms: N_16  and  C_17
REMARK    6  A    between atoms: N_22  and  C_26
REMARK    7  A    between atoms: C_26  and  C_27
REMARK    8  A    between atoms: C_26  and  C_28
REMARK                            x       y       z     vdW  Elec       q    Type
REMARK                         _______ _______ _______ _____ _____    ______ ____
ROOT
ATOM      1  N   UNL     1       0.687  -0.484  -1.201  0.00  0.00    -0.281 N 
ATOM      2  C   UNL     1      -0.013  -0.705  -2.332  0.00  0.00    +0.307 C 
ATOM      3  O   UNL     1       0.557  -1.092  -3.334  0.00  0.00    -0.252 OA
ATOM      4  N   UNL     1      -1.345  -0.498  -2.351  0.00  0.00    -0.268 N 
ATOM      5  H   UNL     1      -1.810  -0.255  -1.536  0.00  0.00    +0.156 HD
ENDROOT
BRANCH   4   6
ATOM      6  C   UNL     1      -2.058  -0.633  -3.551  0.00  0.00    +0.054 A 
ATOM      7  C   UNL     1      -1.692  -1.597  -4.477  0.00  0.00    +0.038 A 
ATOM      8  C   UNL     1      -2.437  -1.690  -5.658  0.00  0.00    +0.040 A 
ATOM      9  C   UNL     1      -2.369  -2.545  -6.838  0.00  0.00    +0.144 A 
ATOM     10  N   UNL     1      -3.328  -2.185  -7.643  0.00  0.00    -0.177 NA
ATOM     11  N   UNL     1      -4.054  -1.130  -7.083  0.00  0.00    -0.244 N 
ATOM     12  C   UNL     1      -3.521  -0.813  -5.862  0.00  0.00    +0.159 A 
ATOM     13  N   UNL     1      -3.826   0.092  -4.940  0.00  0.00    -0.234 NA
ATOM     14  C   UNL     1      -3.145   0.196  -3.821  0.00  0.00    +0.136 A 
BRANCH  11  15
ATOM     15  C   UNL     1      -5.204  -0.468  -7.705  0.00  0.00    +0.103 C 
ATOM     16  C   UNL     1      -4.779   0.145  -9.040  0.00  0.00    +0.032 C 
ATOM     17  C   UNL     1      -6.315  -1.493  -7.944  0.00  0.00    +0.032 C 
ENDBRANCH  11  15
ENDBRANCH   4   6
BRANCH   1  19
ATOM     18  C   UNL     1      -0.020   1.512   0.023  0.00  0.00    +0.024 C 
ATOM     19  C   UNL     1      -0.000  -0.018   0.006  0.00  0.00    +0.106 C 
ENDBRANCH   1  19
BRANCH   1  20
ATOM     20  C   UNL     1       2.134  -0.710  -1.180  0.00  0.00    +0.144 C 
BRANCH  20  21
ATOM     21  C   UNL     1       2.415  -2.134  -0.775  0.00  0.00    -0.026 A 
ATOM     22  C   UNL     1       2.572  -2.453   0.560  0.00  0.00    +0.009 A 
ATOM     23  C   UNL     1       2.829  -3.759   0.936  0.00  0.00    +0.050 A 
ATOM     24  C   UNL     1       2.930  -4.750  -0.026  0.00  0.00    +0.166 A 
ATOM     25  C   UNL     1       2.771  -4.428  -1.371  0.00  0.00    +0.167 A 
ATOM     26  C   UNL     1       2.508  -3.119  -1.740  0.00  0.00    +0.054 A 
ATOM     27  O   UNL     1       2.914  -5.566  -2.112  0.00  0.00    -0.453 OA
ATOM     28  C   UNL     1       3.566  -6.511  -1.243  0.00  0.00    +0.466 C 
ATOM     29  O   UNL     1       3.173  -6.090   0.077  0.00  0.00    -0.453 OA
ENDBRANCH  20  21
ENDBRANCH   1  20
TORSDOF 5
