REMARK  Name = ZINC60428122
REMARK  10 active torsions:
REMARK  status: ('A' for Active; 'I' for Inactive)
REMARK    1  A    between atoms: C_1  and  C_2
REMARK    2  A    between atoms: C_4  and  C_25
REMARK    3  A    between atoms: C_6  and  O_8
REMARK    4  A    between atoms: O_8  and  C_9
REMARK    5  A    between atoms: C_9  and  C_10
REMARK    6  A    between atoms: C_13  and  S_16
REMARK    7  A    between atoms: N_14  and  N_15
REMARK    8  A    between atoms: S_16  and  C_17
REMARK    9  A    between atoms: C_17  and  C_18
REMARK   10  A    between atoms: C_17  and  C_19
REMARK                            x       y       z     vdW  Elec       q    Type
REMARK                         _______ _______ _______ _____ _____    ______ ____
ROOT
ATOM      1  C   UNL     1       0.064  -2.932   4.751  0.00  0.00    +0.189 A 
ATOM      2  N   UNL     1      -0.976  -3.425   5.362  0.00  0.00    -0.128 NA
ATOM      3  N   UNL     1      -0.601  -4.177   6.334  0.00  0.00    -0.121 NA
ATOM      4  C   UNL     1       0.710  -4.205   6.397  0.00  0.00    +0.209 A 
ATOM      5  N   UNL     1       1.176  -3.415   5.385  0.00  0.00    -0.225 N 
ENDROOT
BRANCH   5   6
ATOM      6  N   UNL     1       2.481  -3.158   5.073  0.00  0.00    -0.295 N 
ATOM      7  H   UNL     1       2.818  -2.347   5.570  0.00  0.00    +0.163 HD
ATOM      8  H   UNL     1       3.061  -3.962   5.257  0.00  0.00    +0.163 HD
ENDBRANCH   5   6
BRANCH   1   9
ATOM      9  C   UNL     1       0.046  -2.005   3.563  0.00  0.00    +0.306 C 
BRANCH   9  10
ATOM     10  O   UNL     1       0.051  -2.775   2.359  0.00  0.00    -0.484 OA
BRANCH  10  16
ATOM     11  C   UNL     1      -0.018   1.503   0.010  0.00  0.00    +0.044 C 
ATOM     12  C   UNL     1       0.002  -0.004   0.002  0.00  0.00    -0.047 A 
ATOM     13  C   UNL     1       0.006  -0.688  -1.200  0.00  0.00    +0.007 A 
ATOM     14  C   UNL     1       0.025  -2.071  -1.210  0.00  0.00    -0.047 A 
ATOM     15  C   UNL     1       0.040  -2.772  -0.020  0.00  0.00    +0.049 A 
ATOM     16  C   UNL     1       0.036  -2.088   1.187  0.00  0.00    +0.122 A 
ATOM     17  C   UNL     1       0.023  -0.701   1.195  0.00  0.00    +0.049 A 
ATOM     18  C   UNL     1       0.029  -2.813  -2.522  0.00  0.00    +0.044 C 
ENDBRANCH  10  16
ENDBRANCH   9  10
ENDBRANCH   1   9
BRANCH   4  19
ATOM     19  S   UNL     1       1.685  -5.098   7.562  0.00  0.00    -0.077 S 
BRANCH  19  20
ATOM     20  C   UNL     1       0.461  -5.935   8.607  0.00  0.00    +0.083 C 
ATOM     21  C   UNL     1      -0.316  -6.952   7.769  0.00  0.00    +0.024 C 
BRANCH  20  22
ATOM     22  C   UNL     1       1.165  -6.645   9.734  0.00  0.00    -0.016 A 
ATOM     23  C   UNL     1       0.882  -6.323  11.053  0.00  0.00    +0.008 A 
ATOM     24  C   UNL     1       1.555  -7.003  12.057  0.00  0.00    +0.020 A 
ATOM     25  C   UNL     1       2.478  -7.972  11.713  0.00  0.00    +0.111 A 
ATOM     26  N   UNL     1       2.722  -8.252  10.447  0.00  0.00    -0.263 NA
ATOM     27  C   UNL     1       2.097  -7.630   9.467  0.00  0.00    +0.115 A 
ENDBRANCH  20  22
ENDBRANCH  19  20
ENDBRANCH   4  19
TORSDOF 7
