REMARK  Name = ZINC39522751
REMARK  5 active torsions:
REMARK  status: ('A' for Active; 'I' for Inactive)
REMARK    1  A    between atoms: C_4  and  C_7
REMARK    2  A    between atoms: C_7  and  C_8
REMARK    3  A    between atoms: N_14  and  O_15
REMARK    4  A    between atoms: C_19  and  C_22
REMARK    5  A    between atoms: C_27  and  O_28
REMARK                            x       y       z     vdW  Elec       q    Type
REMARK                         _______ _______ _______ _____ _____    ______ ____
ROOT
ATOM      1  C   UNL     1       4.261  -1.006   1.468  0.00  0.00    +0.089 C 
ATOM      2  C   UNL     1       5.680  -1.563   1.336  0.00  0.00    +0.021 C 
ATOM      3  C   UNL     1       6.162  -2.049   2.706  0.00  0.00    +0.003 C 
ATOM      4  C   UNL     1       5.188  -3.106   3.235  0.00  0.00    +0.025 C 
ATOM      5  C   UNL     1       3.783  -2.505   3.312  0.00  0.00    +0.048 C 
ATOM      6  N   UNL     1       3.368  -2.055   1.977  0.00  0.00    -0.181 NA
ATOM      7  C   UNL     1       3.789  -1.315   4.274  0.00  0.00    +0.025 C 
ATOM      8  C   UNL     1       2.384  -0.717   4.356  0.00  0.00    +0.002 C 
ATOM      9  C   UNL     1       1.406  -1.778   4.864  0.00  0.00    +0.008 C 
ATOM     10  C   UNL     1       1.399  -2.967   3.902  0.00  0.00    +0.024 C 
ATOM     11  C   UNL     1       2.804  -3.566   3.820  0.00  0.00    +0.033 C 
ENDROOT
BRANCH  10  12
ATOM     12  C   UNL     1       0.435  -4.012   4.402  0.00  0.00    -0.003 A 
ATOM     13  C   UNL     1       0.621  -4.585   5.645  0.00  0.00    +0.007 A 
ATOM     14  C   UNL     1      -0.262  -5.545   6.104  0.00  0.00    +0.001 A 
ATOM     15  C   UNL     1      -1.334  -5.933   5.321  0.00  0.00    +0.004 A 
ATOM     16  C   UNL     1      -1.524  -5.363   4.078  0.00  0.00    +0.046 A 
ATOM     17  C   UNL     1      -0.642  -4.396   3.617  0.00  0.00    +0.120 A 
BRANCH  17  18
ATOM     18  O   UNL     1      -0.830  -3.829   2.396  0.00  0.00    -0.506 OA
ATOM     19  H   UNL     1      -0.391  -4.297   1.673  0.00  0.00    +0.292 HD
ENDBRANCH  17  18
ENDBRANCH  10  12
BRANCH   6  20
ATOM     20  O   UNL     1       1.977  -1.601   1.986  0.00  0.00    -0.311 OA
ATOM     21  H   UNL     1       1.608  -1.447   1.106  0.00  0.00    +0.237 HD
ENDBRANCH   6  20
BRANCH   1  22
ATOM     22  C   UNL     1       3.768  -0.538   0.098  0.00  0.00    +0.056 C 
BRANCH  22  26
ATOM     23  C   UNL     1       6.161   2.740  -1.235  0.00  0.00    +0.000 A 
ATOM     24  C   UNL     1       6.457   1.455  -1.648  0.00  0.00    +0.000 A 
ATOM     25  C   UNL     1       5.683   0.394  -1.217  0.00  0.00    +0.004 A 
ATOM     26  C   UNL     1       4.612   0.619  -0.371  0.00  0.00    -0.046 A 
ATOM     27  C   UNL     1       4.317   1.904   0.043  0.00  0.00    +0.004 A 
ATOM     28  C   UNL     1       5.090   2.965  -0.390  0.00  0.00    +0.000 A 
ENDBRANCH  22  26
ENDBRANCH   1  22
TORSDOF 5
