REMARK  Name = ZINC35918694
REMARK  8 active torsions:
REMARK  status: ('A' for Active; 'I' for Inactive)
REMARK    1  A    between atoms: C_1  and  O_2
REMARK    2  A    between atoms: O_2  and  C_3
REMARK    3  A    between atoms: C_7  and  C_11
REMARK    4  A    between atoms: C_8  and  O_9
REMARK    5  A    between atoms: O_9  and  C_10
REMARK    6  A    between atoms: C_20  and  C_23
REMARK    7  A    between atoms: N_25  and  C_26
REMARK    8  A    between atoms: C_26  and  C_27
REMARK                            x       y       z     vdW  Elec       q    Type
REMARK                         _______ _______ _______ _____ _____    ______ ____
ROOT
ATOM      1  C   UNL     1       0.780  -4.472   2.465  0.00  0.00    +0.137 C 
ATOM      2  C   UNL     1      -0.236  -5.345   3.153  0.00  0.00    +0.060 A 
ATOM      3  C   UNL     1       0.084  -6.317   4.037  0.00  0.00    +0.066 A 
ATOM      4  N   UNL     1      -1.047  -6.887   4.452  0.00  0.00    -0.240 NA
ATOM      5  C   UNL     1      -2.060  -6.310   3.859  0.00  0.00    +0.197 A 
ATOM      6  N   UNL     1      -1.590  -5.341   3.038  0.00  0.00    -0.346 N 
ATOM      7  H   UNL     1      -2.120  -4.755   2.475  0.00  0.00    +0.167 HD
ATOM      8  C   UNL     1       1.506  -6.636   4.429  0.00  0.00    +0.085 C 
ATOM      9  C   UNL     1       2.437  -5.991   3.392  0.00  0.00    +0.147 C 
ATOM     10  N   UNL     1       2.056  -4.585   3.192  0.00  0.00    -0.293 NA
ATOM     11  H   UNL     1       2.788  -4.075   2.721  0.00  0.00    +0.124 HD
ENDROOT
BRANCH   1  16
ATOM     12  C   UNL     1      -1.048  -1.282   1.565  0.00  0.00    +0.162 A 
ATOM     13  C   UNL     1      -0.543  -0.404   2.511  0.00  0.00    +0.049 A 
ATOM     14  C   UNL     1       0.385  -0.844   3.437  0.00  0.00    +0.004 A 
ATOM     15  C   UNL     1       0.811  -2.159   3.421  0.00  0.00    +0.009 A 
ATOM     16  C   UNL     1       0.312  -3.039   2.479  0.00  0.00    +0.021 A 
ATOM     17  C   UNL     1      -0.623  -2.607   1.553  0.00  0.00    +0.166 A 
BRANCH  12  19
ATOM     18  C   UNL     1      -2.352   0.522   0.727  0.00  0.00    +0.277 C 
ATOM     19  O   UNL     1      -1.962  -0.851   0.655  0.00  0.00    -0.491 OA
ENDBRANCH  12  19
BRANCH  17  20
ATOM     20  O   UNL     1      -1.120  -3.473   0.630  0.00  0.00    -0.491 OA
ATOM     21  C   UNL     1      -0.415  -3.577  -0.608  0.00  0.00    +0.277 C 
ENDBRANCH  17  20
ENDBRANCH   1  16
BRANCH   9  22
ATOM     22  C   UNL     1       2.321  -6.731   2.084  0.00  0.00    +0.231 C 
ATOM     23  O   UNL     1       2.180  -6.114   1.049  0.00  0.00    -0.274 OA
ATOM     24  N   UNL     1       2.375  -8.077   2.065  0.00  0.00    -0.307 N 
ATOM     25  H   UNL     1       2.487  -8.570   2.893  0.00  0.00    +0.149 HD
BRANCH  24  26
ATOM     26  C   UNL     1       2.262  -8.797   0.794  0.00  0.00    +0.178 C 
BRANCH  26  27
ATOM     27  C   UNL     1       2.352 -10.280   1.047  0.00  0.00    +0.122 A 
ATOM     28  C   UNL     1       1.314 -11.100   1.294  0.00  0.00    +0.046 A 
ATOM     29  C   UNL     1       1.850 -12.396   1.470  0.00  0.00    +0.041 A 
ATOM     30  C   UNL     1       3.182 -12.291   1.319  0.00  0.00    +0.195 A 
ATOM     31  O   UNL     1       3.480 -11.008   1.057  0.00  0.00    -0.466 OA
ENDBRANCH  26  27
ENDBRANCH  24  26
ENDBRANCH   9  22
TORSDOF 6
