REMARK  Name = ZINC67214352
REMARK  7 active torsions:
REMARK  status: ('A' for Active; 'I' for Inactive)
REMARK    1  A    between atoms: N_3  and  C_25
REMARK    2  A    between atoms: C_7  and  C_9
REMARK    3  A    between atoms: C_9  and  C_10
REMARK    4  A    between atoms: C_10  and  C_11
REMARK    5  A    between atoms: C_11  and  C_12
REMARK    6  A    between atoms: C_12  and  C_13
REMARK    7  A    between atoms: C_25  and  C_26
REMARK                            x       y       z     vdW  Elec       q    Type
REMARK                         _______ _______ _______ _____ _____    ______ ____
ROOT
ATOM      1  C   UNL     1      -0.017   1.400   0.010  0.00  0.00    +0.065 A 
ATOM      2  C   UNL     1       1.264   1.832  -0.000  0.00  0.00    +0.111 A 
ATOM      3  N   UNL     1       2.067   0.748  -0.014  0.00  0.00    -0.261 N 
ATOM      4  N   UNL     1       1.255  -0.394  -0.012  0.00  0.00    -0.156 NA
ATOM      5  C   UNL     1       0.002  -0.004   0.002  0.00  0.00    +0.147 A 
ATOM      6  N   UNL     1      -1.121  -0.843   0.009  0.00  0.00    -0.269 N 
ATOM      7  C   UNL     1      -2.359  -0.311   0.024  0.00  0.00    +0.218 C 
ATOM      8  O   UNL     1      -2.502   0.894   0.032  0.00  0.00    -0.275 OA
ATOM      9  H   UNL     1      -1.007  -1.806   0.003  0.00  0.00    +0.156 HD
ENDROOT
BRANCH   7  10
ATOM     10  C   UNL     1      -3.567  -1.212   0.032  0.00  0.00    +0.096 C 
BRANCH  10  11
ATOM     11  C   UNL     1      -4.838  -0.362   0.049  0.00  0.00    +0.009 C 
BRANCH  11  12
ATOM     12  C   UNL     1      -6.064  -1.278   0.057  0.00  0.00    +0.002 C 
BRANCH  12  13
ATOM     13  C   UNL     1      -7.336  -0.427   0.074  0.00  0.00    +0.016 C 
BRANCH  13  14
ATOM     14  C   UNL     1      -8.562  -1.342   0.082  0.00  0.00    +0.069 C 
ATOM     15  C   UNL     1      -9.867  -0.520   0.143  0.00  0.00    +0.108 C 
ATOM     16  C   UNL     1     -10.992  -1.086  -0.729  0.00  0.00    +0.105 C 
ATOM     17  C   UNL     1     -10.600  -2.372  -1.489  0.00  0.00    +0.093 C 
ATOM     18  S   UNL     1      -8.751  -2.209  -1.536  0.00  0.00    -0.154 S 
ATOM     19  N   UNL     1     -12.059  -1.411   0.230  0.00  0.00    -0.294 N 
ATOM     20  C   UNL     1     -11.647  -1.094   1.466  0.00  0.00    +0.300 C 
ATOM     21  O   UNL     1     -12.332  -1.258   2.456  0.00  0.00    -0.253 OA
ATOM     22  N   UNL     1     -10.415  -0.589   1.507  0.00  0.00    -0.294 N 
ATOM     23  H   UNL     1     -12.922  -1.792   0.005  0.00  0.00    +0.151 HD
ATOM     24  H   UNL     1      -9.955  -0.309   2.313  0.00  0.00    +0.151 HD
ENDBRANCH  13  14
ENDBRANCH  12  13
ENDBRANCH  11  12
ENDBRANCH  10  11
ENDBRANCH   7  10
BRANCH   3  25
ATOM     25  C   UNL     1       3.532   0.761  -0.028  0.00  0.00    +0.238 C 
BRANCH  25  26
ATOM     26  C   UNL     1       4.054  -0.055   1.126  0.00  0.00    +0.232 C 
ATOM     27  O   UNL     1       3.278  -0.595   1.887  0.00  0.00    -0.274 OA
ATOM     28  N   UNL     1       5.382  -0.185   1.314  0.00  0.00    -0.328 N 
ATOM     29  H   UNL     1       6.002   0.247   0.706  0.00  0.00    +0.145 HD
ATOM     30  H   UNL     1       5.718  -0.710   2.057  0.00  0.00    +0.145 HD
ENDBRANCH  25  26
ENDBRANCH   3  25
TORSDOF 7
