REMARK  Name = ZINC20752118
REMARK  6 active torsions:
REMARK  status: ('A' for Active; 'I' for Inactive)
REMARK    1  A    between atoms: C_1  and  C_2
REMARK    2  A    between atoms: C_2  and  C_4
REMARK    3  A    between atoms: C_4  and  O_5
REMARK    4  A    between atoms: O_5  and  C_6
REMARK    5  A    between atoms: C_13  and  C_22
REMARK    6  A    between atoms: C_31  and  O_32
REMARK                            x       y       z     vdW  Elec       q    Type
REMARK                         _______ _______ _______ _____ _____    ______ ____
ROOT
ATOM      1  C   UNL     1       0.324   5.067   0.028  0.00  0.00    +0.142 A 
ATOM      2  C   UNL     1      -0.786   5.892   0.038  0.00  0.00    +0.047 A 
ATOM      3  C   UNL     1      -0.620   7.265   0.045  0.00  0.00    +0.004 A 
ATOM      4  C   UNL     1       0.648   7.808   0.041  0.00  0.00    +0.006 A 
ATOM      5  C   UNL     1       1.772   6.989   0.030  0.00  0.00    -0.016 A 
ATOM      6  C   UNL     1       1.610   5.616   0.031  0.00  0.00    +0.074 A 
ATOM      7  N   UNL     1       2.698   4.739   0.049  0.00  0.00    -0.334 N 
ATOM      8  C   UNL     1       3.894   5.336  -0.548  0.00  0.00    +0.109 C 
ATOM      9  C   UNL     1       4.255   6.616   0.209  0.00  0.00    +0.029 C 
ATOM     10  C   UNL     1       3.120   7.646   0.021  0.00  0.00    +0.049 C 
ATOM     11  C   UNL     1       3.396   8.279  -1.324  0.00  0.00    -0.023 C 
ATOM     12  C   UNL     1       4.657   8.086  -1.662  0.00  0.00    -0.030 C 
ATOM     13  C   UNL     1       5.393   7.328  -0.575  0.00  0.00    +0.033 C 
ATOM     14  H   UNL     1       2.734   3.713   0.443  0.00  0.00    +0.147 HD
ENDROOT
BRANCH   8  15
ATOM     15  C   UNL     1       5.039   4.361  -0.461  0.00  0.00    +0.022 A 
ATOM     16  C   UNL     1       5.868   4.143  -1.574  0.00  0.00    -0.009 A 
ATOM     17  C   UNL     1       5.660   4.830  -2.783  0.00  0.00    +0.009 A 
ATOM     18  C   UNL     1       6.486   4.599  -3.839  0.00  0.00    +0.001 A 
ATOM     19  C   UNL     1       7.541   3.694  -3.740  0.00  0.00    +0.001 A 
ATOM     20  C   UNL     1       7.776   3.014  -2.585  0.00  0.00    +0.008 A 
ATOM     21  C   UNL     1       6.944   3.226  -1.472  0.00  0.00    -0.017 A 
ATOM     22  C   UNL     1       7.157   2.542  -0.263  0.00  0.00    +0.012 A 
ATOM     23  C   UNL     1       6.333   2.770   0.795  0.00  0.00    +0.046 A 
ATOM     24  C   UNL     1       5.274   3.679   0.699  0.00  0.00    +0.122 A 
BRANCH  24  25
ATOM     25  O   UNL     1       4.469   3.887   1.774  0.00  0.00    -0.506 OA
ATOM     26  H   UNL     1       4.652   3.342   2.712  0.00  0.00    +0.292 HD
ENDBRANCH  24  25
ENDBRANCH   8  15
BRANCH   1  27
ATOM     27  O   UNL     1       0.164   3.717   0.021  0.00  0.00    -0.486 OA
BRANCH  27  28
ATOM     28  C   UNL     1      -1.176   3.222   0.025  0.00  0.00    +0.259 C 
BRANCH  28  30
ATOM     29  C   UNL     1      -2.451   0.944   0.019  0.00  0.00    +0.042 C 
ATOM     30  C   UNL     1      -1.156   1.715   0.017  0.00  0.00    -0.043 C 
ATOM     31  C   UNL     1      -0.013   1.076   0.008  0.00  0.00    +0.011 C 
ENDBRANCH  28  30
ENDBRANCH  27  28
ENDBRANCH   1  27
TORSDOF 5
