REMARK  Name = ZINC00806033
REMARK  4 active torsions:
REMARK  status: ('A' for Active; 'I' for Inactive)
REMARK    1  A    between atoms: C_14  and  C_15
REMARK    2  A    between atoms: N_16  and  N_17
REMARK    3  A    between atoms: C_18  and  C_20
REMARK    4  A    between atoms: C_20  and  C_21
REMARK                            x       y       z     vdW  Elec       q    Type
REMARK                         _______ _______ _______ _____ _____    ______ ____
ROOT
ATOM      1  C   UNL     1       0.002  -0.004   0.002  0.00  0.00    +0.139 C 
ATOM      2  N   UNL     1       1.138  -0.639   0.002  0.00  0.00    -0.188 NA
ENDROOT
BRANCH   1  16
ATOM      3  C   UNL     1      -4.940   1.224   0.369  0.00  0.00    +0.001 A 
ATOM      4  C   UNL     1      -3.745   1.942   0.362  0.00  0.00    +0.001 A 
ATOM      5  C   UNL     1      -2.541   1.321   0.247  0.00  0.00    +0.009 A 
ATOM      6  C   UNL     1      -2.489  -0.079   0.137  0.00  0.00    -0.009 A 
ATOM      7  C   UNL     1      -3.743  -0.835   0.139  0.00  0.00    -0.017 A 
ATOM      8  C   UNL     1      -4.959  -0.129   0.261  0.00  0.00    +0.008 A 
ATOM      9  C   UNL     1      -3.728  -2.226   0.026  0.00  0.00    +0.017 A 
ATOM     10  C   UNL     1      -2.513  -2.902  -0.095  0.00  0.00    -0.017 A 
ATOM     11  C   UNL     1      -2.473  -4.308  -0.211  0.00  0.00    +0.008 A 
ATOM     12  C   UNL     1      -1.275  -4.937  -0.327  0.00  0.00    +0.001 A 
ATOM     13  C   UNL     1      -0.075  -4.228  -0.336  0.00  0.00    +0.001 A 
ATOM     14  C   UNL     1      -0.046  -2.873  -0.227  0.00  0.00    +0.009 A 
ATOM     15  C   UNL     1      -1.251  -2.160  -0.104  0.00  0.00    -0.009 A 
ATOM     16  C   UNL     1      -1.257  -0.754   0.010  0.00  0.00    +0.010 A 
ENDBRANCH   1  16
BRANCH   2  17
ATOM     17  N   UNL     1       2.342   0.077  -0.005  0.00  0.00    -0.207 N 
ATOM     18  C   UNL     1       3.518  -0.580  -0.005  0.00  0.00    +0.239 C 
ATOM     19  O   UNL     1       3.534  -1.793   0.002  0.00  0.00    -0.274 OA
ATOM     20  H   UNL     1       2.329   1.047  -0.011  0.00  0.00    +0.177 HD
BRANCH  18  21
ATOM     21  C   UNL     1       4.813   0.191  -0.013  0.00  0.00    +0.162 C 
BRANCH  21  22
ATOM     22  C   UNL     1       5.971  -0.773  -0.011  0.00  0.00    +0.112 A 
ATOM     23  N   UNL     1       6.620  -1.320  -1.019  0.00  0.00    -0.144 NA
ATOM     24  N   UNL     1       7.581  -2.118  -0.847  0.00  0.00    -0.126 NA
ATOM     25  C   UNL     1       8.000  -2.456   0.366  0.00  0.00    +0.179 A 
ATOM     26  S   UNL     1       6.865  -1.495   1.363  0.00  0.00    -0.035 S 
ATOM     27  N   UNL     1       9.027  -3.305   0.751  0.00  0.00    -0.336 N 
ATOM     28  H   UNL     1       9.561  -3.756   0.078  0.00  0.00    +0.144 HD
ATOM     29  H   UNL     1       9.209  -3.450   1.692  0.00  0.00    +0.144 HD
ENDBRANCH  21  22
ENDBRANCH  18  21
ENDBRANCH   2  17
TORSDOF 4
