REMARK  Name = ZINC15953496
REMARK  10 active torsions:
REMARK  status: ('A' for Active; 'I' for Inactive)
REMARK    1  A    between atoms: C_1  and  C_2
REMARK    2  A    between atoms: C_2  and  C_37
REMARK    3  A    between atoms: N_20  and  N_23
REMARK    4  A    between atoms: C_24  and  C_25
REMARK    5  A    between atoms: C_27  and  O_35
REMARK    6  A    between atoms: C_28  and  O_33
REMARK    7  A    between atoms: C_29  and  O_31
REMARK    8  A    between atoms: O_31  and  C_32
REMARK    9  A    between atoms: O_33  and  C_34
REMARK   10  A    between atoms: O_35  and  C_36
REMARK                            x       y       z     vdW  Elec       q    Type
REMARK                         _______ _______ _______ _____ _____    ______ ____
ROOT
ATOM      1  C   UNL     1       4.883   1.172  -0.039  0.00  0.00    +0.038 C 
ATOM      2  C   UNL     1       3.709   2.118  -0.300  0.00  0.00    +0.073 C 
ATOM      3  C   UNL     1       3.929   3.424   0.429  0.00  0.00    +0.044 A 
ATOM      4  C   UNL     1       2.991   4.014   1.202  0.00  0.00    -0.015 A 
ATOM      5  C   UNL     1       3.575   5.236   1.717  0.00  0.00    +0.003 A 
ATOM      6  C   UNL     1       3.083   6.240   2.556  0.00  0.00    +0.010 A 
ATOM      7  C   UNL     1       3.933   7.279   2.845  0.00  0.00    +0.001 A 
ATOM      8  C   UNL     1       5.220   7.340   2.335  0.00  0.00    +0.002 A 
ATOM      9  C   UNL     1       5.732   6.360   1.503  0.00  0.00    +0.026 A 
ATOM     10  C   UNL     1       4.891   5.293   1.192  0.00  0.00    +0.047 A 
ATOM     11  N   UNL     1       5.069   4.182   0.419  0.00  0.00    -0.356 N 
ATOM     12  H   UNL     1       5.881   3.963  -0.065  0.00  0.00    +0.166 HD
ATOM     13  C   UNL     1       1.613   3.458   1.453  0.00  0.00    +0.069 C 
ATOM     14  C   UNL     1       1.301   2.402   0.382  0.00  0.00    +0.169 C 
ATOM     15  N   UNL     1       2.459   1.524   0.222  0.00  0.00    -0.278 N 
ATOM     16  C   UNL     1       2.438   0.225   0.527  0.00  0.00    +0.236 C 
ATOM     17  O   UNL     1       3.473  -0.397   0.422  0.00  0.00    -0.274 OA
ATOM     18  C   UNL     1       1.224  -0.514   0.988  0.00  0.00    +0.230 C 
ATOM     19  N   UNL     1       0.050   0.342   1.038  0.00  0.00    -0.183 N 
ATOM     20  C   UNL     1       0.071   1.645   0.768  0.00  0.00    +0.256 C 
ATOM     21  O   UNL     1      -0.975   2.256   0.834  0.00  0.00    -0.272 OA
ATOM     22  C   UNL     1       3.573   2.376  -1.802  0.00  0.00    +0.038 C 
ENDROOT
BRANCH  19  23
ATOM     23  N   UNL     1      -1.175  -0.239   1.393  0.00  0.00    -0.184 NA
ATOM     24  C   UNL     1      -1.238  -1.506   1.664  0.00  0.00    +0.138 C 
BRANCH  24  25
ATOM     25  C   UNL     1      -2.527  -2.117   2.037  0.00  0.00    +0.002 A 
ATOM     26  C   UNL     1      -3.680  -1.332   2.104  0.00  0.00    +0.059 A 
ATOM     27  C   UNL     1      -4.889  -1.909   2.450  0.00  0.00    +0.166 A 
ATOM     28  C   UNL     1      -4.955  -3.268   2.741  0.00  0.00    +0.204 A 
ATOM     29  C   UNL     1      -3.807  -4.052   2.680  0.00  0.00    +0.166 A 
ATOM     30  C   UNL     1      -2.596  -3.482   2.330  0.00  0.00    +0.059 A 
BRANCH  29  31
ATOM     31  O   UNL     1      -3.875  -5.380   2.964  0.00  0.00    -0.491 OA
ATOM     32  C   UNL     1      -2.658  -6.125   2.882  0.00  0.00    +0.277 C 
ENDBRANCH  29  31
BRANCH  28  33
ATOM     33  O   UNL     1      -6.144  -3.831   3.086  0.00  0.00    -0.488 OA
ATOM     34  C   UNL     1      -6.474  -3.850   4.476  0.00  0.00    +0.277 C 
ENDBRANCH  28  33
BRANCH  27  35
ATOM     35  O   UNL     1      -6.013  -1.145   2.512  0.00  0.00    -0.491 OA
ATOM     36  C   UNL     1      -5.873   0.242   2.201  0.00  0.00    +0.277 C 
ENDBRANCH  27  35
ENDBRANCH  24  25
ENDBRANCH  19  23
TORSDOF 5
