REMARK  Name = ZINC48115226
REMARK  3 active torsions:
REMARK  status: ('A' for Active; 'I' for Inactive)
REMARK    1  A    between atoms: C_6  and  C_7
REMARK    2  A    between atoms: C_7  and  N_8
REMARK    3  A    between atoms: C_16  and  C_17
REMARK                            x       y       z     vdW  Elec       q    Type
REMARK                         _______ _______ _______ _____ _____    ______ ____
ROOT
ATOM      1  N   UNL     1      -1.726  -1.017  -1.368  0.00  0.00    -0.322 N 
ATOM      2  C   UNL     1      -2.532  -0.194  -2.130  0.00  0.00    +0.069 A 
ATOM      3  C   UNL     1      -3.159   1.023  -1.901  0.00  0.00    +0.031 A 
ATOM      4  C   UNL     1      -3.917   1.602  -2.895  0.00  0.00    +0.040 A 
ATOM      5  C   UNL     1      -4.061   0.975  -4.127  0.00  0.00    +0.126 A 
ATOM      6  C   UNL     1      -3.446  -0.234  -4.371  0.00  0.00    +0.068 A 
ATOM      7  C   UNL     1      -2.673  -0.833  -3.373  0.00  0.00    +0.092 A 
ATOM      8  N   UNL     1      -1.961  -1.987  -3.308  0.00  0.00    -0.231 NA
ATOM      9  C   UNL     1      -1.403  -2.092  -2.137  0.00  0.00    +0.126 A 
ATOM     10  F   UNL     1      -4.808   1.555  -5.092  0.00  0.00    -0.205 F 
ENDROOT
BRANCH   9  11
ATOM     11  C   UNL     1      -0.530  -3.238  -1.696  0.00  0.00    +0.183 C 
ATOM     12 CL   UNL     1      -1.552  -4.519  -0.945  0.00  0.00    -0.117 Cl
ENDBRANCH   9  11
BRANCH   1  13
ATOM     13  C   UNL     1      -1.293  -0.775   0.010  0.00  0.00    +0.158 C 
BRANCH  13  19
ATOM     14  C   UNL     1      -0.017   1.378   0.010  0.00  0.00    +0.006 A 
ATOM     15  C   UNL     1       1.171   2.086   0.002  0.00  0.00    +0.015 A 
ATOM     16  C   UNL     1       2.378   1.411  -0.013  0.00  0.00    +0.018 A 
ATOM     17  C   UNL     1       2.396   0.027  -0.021  0.00  0.00    +0.015 A 
ATOM     18  C   UNL     1       1.208  -0.679  -0.013  0.00  0.00    +0.006 A 
ATOM     19  C   UNL     1       0.002  -0.004   0.002  0.00  0.00    -0.028 A 
ATOM     20 BR   UNL     1       4.003   2.378  -0.024  0.00  0.00    -0.050 Br
ENDBRANCH  13  19
ENDBRANCH   1  13
TORSDOF 3
