REMARK  Name = ZINC18272807
REMARK  8 active torsions:
REMARK  status: ('A' for Active; 'I' for Inactive)
REMARK    1  A    between atoms: C_1  and  C_2
REMARK    2  A    between atoms: C_4  and  C_28
REMARK    3  A    between atoms: C_6  and  O_8
REMARK    4  A    between atoms: O_8  and  C_9
REMARK    5  A    between atoms: C_9  and  C_10
REMARK    6  A    between atoms: C_10  and  O_12
REMARK    7  A    between atoms: O_12  and  C_13
REMARK    8  A    between atoms: C_13  and  C_14
REMARK                            x       y       z     vdW  Elec       q    Type
REMARK                         _______ _______ _______ _____ _____    ______ ____
ROOT
ATOM      1  C   UNL     1       6.533   7.480  -0.030  0.00  0.00    +0.170 A 
ATOM      2  N   UNL     1       6.530   8.120   1.126  0.00  0.00    -0.214 NA
ATOM      3  C   UNL     1       6.330   9.425   1.208  0.00  0.00    +0.128 A 
ATOM      4  C   UNL     1       6.112  10.169   0.015  0.00  0.00    +0.051 A 
ATOM      5  C   UNL     1       5.871  11.605  -0.139  0.00  0.00    -0.025 A 
ATOM      6  C   UNL     1       5.693  12.064  -1.394  0.00  0.00    -0.004 A 
ATOM      7  S   UNL     1       5.832  10.635  -2.433  0.00  0.00    -0.073 S 
ATOM      8  C   UNL     1       6.130   9.419  -1.177  0.00  0.00    +0.114 A 
ATOM      9  N   UNL     1       6.342   8.117  -1.170  0.00  0.00    -0.221 NA
ATOM     10  C   UNL     1       5.432  13.478  -1.815  0.00  0.00    +0.043 C 
ATOM     11  C   UNL     1       5.027  14.287  -0.574  0.00  0.00    +0.005 C 
ATOM     12  C   UNL     1       6.020  13.987   0.553  0.00  0.00    +0.005 C 
ATOM     13  C   UNL     1       5.822  12.557   1.054  0.00  0.00    +0.037 C 
ATOM     14  N   UNL     1       6.335  10.058   2.438  0.00  0.00    -0.343 N 
ATOM     15  H   UNL     1       6.704   9.608   3.214  0.00  0.00    +0.144 HD
ATOM     16  H   UNL     1       5.969  10.953   2.525  0.00  0.00    +0.144 HD
ENDROOT
BRANCH   1  17
ATOM     17  C   UNL     1       6.766   5.992  -0.048  0.00  0.00    +0.308 C 
BRANCH  17  18
ATOM     18  O   UNL     1       5.494   5.301   0.060  0.00  0.00    -0.454 OA
BRANCH  18  19
ATOM     19  C   UNL     1       5.527   3.959   0.058  0.00  0.00    +0.346 C 
ATOM     20  O   UNL     1       6.584   3.381  -0.030  0.00  0.00    -0.247 OA
BRANCH  19  21
ATOM     21  C   UNL     1       4.245   3.174   0.167  0.00  0.00    +0.349 C 
BRANCH  21  22
ATOM     22  O   UNL     1       4.540   1.776   0.144  0.00  0.00    -0.481 OA
BRANCH  22  28
ATOM     23  C   UNL     1      -0.276   1.088   0.544  0.00  0.00    +0.044 C 
ATOM     24  C   UNL     1       1.127   0.549   0.433  0.00  0.00    -0.047 A 
ATOM     25  C   UNL     1       1.342  -0.817   0.416  0.00  0.00    +0.007 A 
ATOM     26  C   UNL     1       2.628  -1.315   0.308  0.00  0.00    -0.047 A 
ATOM     27  C   UNL     1       3.700  -0.449   0.217  0.00  0.00    +0.049 A 
ATOM     28  C   UNL     1       3.487   0.921   0.234  0.00  0.00    +0.122 A 
ATOM     29  C   UNL     1       2.196   1.419   0.342  0.00  0.00    +0.049 A 
ATOM     30  C   UNL     1       2.859  -2.804   0.291  0.00  0.00    +0.044 C 
ENDBRANCH  22  28
ENDBRANCH  21  22
ENDBRANCH  19  21
ENDBRANCH  18  19
ENDBRANCH  17  18
ENDBRANCH   1  17
TORSDOF 6
