REMARK  Name = ZINC08005019
REMARK  5 active torsions:
REMARK  status: ('A' for Active; 'I' for Inactive)
REMARK    1  A    between atoms: C_8  and  C_10
REMARK    2  A    between atoms: C_16  and  C_17
REMARK    3  A    between atoms: C_16  and  N_50
REMARK    4  A    between atoms: N_22  and  C_23
REMARK    5  A    between atoms: C_23  and  C_24
REMARK                            x       y       z     vdW  Elec       q    Type
REMARK                         _______ _______ _______ _____ _____    ______ ____
ROOT
ATOM      1  C   UNL     1       8.335  -0.040  -5.996  0.00  0.00    -0.011 C 
ATOM      2  C   UNL     1       9.832  -0.350  -5.951  0.00  0.00    -0.009 C 
ATOM      3  C   UNL     1      10.041  -1.757  -5.383  0.00  0.00    -0.003 C 
ATOM      4  C   UNL     1       9.405  -1.837  -3.992  0.00  0.00    -0.019 C 
ATOM      5  C   UNL     1       7.919  -1.484  -4.095  0.00  0.00    -0.077 C 
ATOM      6  N   UNL     1       7.788  -0.110  -4.624  0.00  0.00    +0.391 N 
ATOM      7  H   UNL     1       8.318   0.531  -4.022  0.00  0.00    -0.080 HD
ENDROOT
BRANCH   1  15
ATOM      8  C   UNL     1       7.972   6.071  -6.780  0.00  0.00    +0.002 A 
ATOM      9  C   UNL     1       7.516   5.946  -8.085  0.00  0.00    +0.001 A 
ATOM     10  C   UNL     1       7.343   4.686  -8.627  0.00  0.00    +0.017 A 
ATOM     11  C   UNL     1       7.627   3.580  -7.864  0.00  0.00    +0.039 A 
ATOM     12  C   UNL     1       8.093   3.676  -6.533  0.00  0.00    +0.078 A 
ATOM     13  C   UNL     1       8.255   4.981  -6.016  0.00  0.00    +0.029 A 
ATOM     14  N   UNL     1       8.316   2.490  -5.931  0.00  0.00    -0.246 NA
ATOM     15  C   UNL     1       8.126   1.351  -6.536  0.00  0.00    +0.066 A 
ATOM     16  S   UNL     1       7.566   1.823  -8.110  0.00  0.00    -0.074 S 
ENDBRANCH   1  15
BRANCH   6  17
ATOM     17  C   UNL     1       6.368   0.296  -4.625  0.00  0.00    +0.020 C 
BRANCH  17  18
ATOM     18  C   UNL     1       5.901   0.434  -3.199  0.00  0.00    +0.204 C 
ATOM     19  O   UNL     1       6.664   0.200  -2.287  0.00  0.00    -0.277 OA
ATOM     20  N   UNL     1       4.635   0.816  -2.938  0.00  0.00    -0.242 N 
ATOM     21  C   UNL     1       4.218   0.939  -1.663  0.00  0.00    +0.306 C 
ATOM     22  O   UNL     1       4.983   0.705  -0.748  0.00  0.00    -0.252 OA
ATOM     23  N   UNL     1       2.952   1.322  -1.401  0.00  0.00    -0.292 N 
ATOM     24  H   UNL     1       4.025   1.003  -3.668  0.00  0.00    +0.159 HD
ATOM     25  H   UNL     1       2.342   1.509  -2.131  0.00  0.00    +0.151 HD
BRANCH  23  26
ATOM     26  C   UNL     1       2.499   1.455  -0.015  0.00  0.00    +0.180 C 
BRANCH  26  27
ATOM     27  C   UNL     1       1.057   1.892   0.002  0.00  0.00    +0.122 A 
ATOM     28  C   UNL     1      -0.013   1.076   0.008  0.00  0.00    +0.046 A 
ATOM     29  C   UNL     1      -1.159   1.903   0.017  0.00  0.00    +0.041 A 
ATOM     30  C   UNL     1      -0.722   3.175   0.026  0.00  0.00    +0.195 A 
ATOM     31  O   UNL     1       0.621   3.162   0.013  0.00  0.00    -0.466 OA
ENDBRANCH  26  27
ENDBRANCH  23  26
ENDBRANCH  17  18
ENDBRANCH   6  17
TORSDOF 5
