REMARK  Name = ZINC08045650
REMARK  6 active torsions:
REMARK  status: ('A' for Active; 'I' for Inactive)
REMARK    1  A    between atoms: C_1  and  C_2
REMARK    2  A    between atoms: C_3  and  C_27
REMARK    3  A    between atoms: C_11  and  C_13
REMARK    4  A    between atoms: C_13  and  C_14
REMARK    5  A    between atoms: N_16  and  N_17
REMARK    6  A    between atoms: C_18  and  C_19
REMARK                            x       y       z     vdW  Elec       q    Type
REMARK                         _______ _______ _______ _____ _____    ______ ____
ROOT
ATOM      1  C   UNL     1      -2.418   9.520   0.070  0.00  0.00    +0.171 C 
ENDROOT
BRANCH   1  12
ATOM      2  C   UNL     1      -8.397  12.553   0.141  0.00  0.00    +0.045 C 
ATOM      3  C   UNL     1      -7.877  11.138   0.130  0.00  0.00    -0.026 A 
ATOM      4  C   UNL     1      -8.729  10.101   0.134  0.00  0.00    -0.008 A 
ATOM      5  S   UNL     1      -7.651   8.681   0.117  0.00  0.00    -0.073 S 
ATOM      6  C   UNL     1      -6.089   9.522   0.105  0.00  0.00    +0.116 A 
ATOM      7  C   UNL     1      -6.449  10.882   0.115  0.00  0.00    +0.075 A 
ATOM      8  C   UNL     1      -5.358  11.811   0.108  0.00  0.00    +0.260 A 
ATOM      9  O   UNL     1      -5.568  13.012   0.115  0.00  0.00    -0.267 OA
ATOM     10  N   UNL     1      -4.098  11.337   0.100  0.00  0.00    -0.310 N 
ATOM     11  H   UNL     1      -3.333  11.981   0.104  0.00  0.00    +0.170 HD
ATOM     12  C   UNL     1      -3.846  10.003   0.086  0.00  0.00    +0.120 A 
ATOM     13  N   UNL     1      -4.818   9.131   0.091  0.00  0.00    -0.226 NA
ATOM     14  C   UNL     1     -10.236  10.130   0.149  0.00  0.00    +0.052 C 
ENDBRANCH   1  12
BRANCH   1  15
ATOM     15  C   UNL     1      -2.398   8.013   0.063  0.00  0.00    +0.239 C 
ATOM     16  O   UNL     1      -3.440   7.393   0.070  0.00  0.00    -0.274 OA
ATOM     17  N   UNL     1      -1.222   7.355   0.049  0.00  0.00    -0.207 N 
ATOM     18  H   UNL     1      -0.388   7.852   0.043  0.00  0.00    +0.177 HD
BRANCH  17  19
ATOM     19  N   UNL     1      -1.203   5.955   0.042  0.00  0.00    -0.188 NA
ATOM     20  C   UNL     1      -0.070   5.321   0.029  0.00  0.00    +0.141 C 
BRANCH  20  21
ATOM     21  C   UNL     1      -0.050   3.847   0.022  0.00  0.00    +0.031 A 
ATOM     22  C   UNL     1       1.168   3.161   0.007  0.00  0.00    +0.051 A 
ATOM     23  C   UNL     1       1.178   1.780   0.000  0.00  0.00    +0.021 A 
ATOM     24  C   UNL     1      -0.013   1.076   0.008  0.00  0.00    +0.003 A 
ATOM     25  C   UNL     1      -1.222   1.748   0.017  0.00  0.00    +0.021 A 
ATOM     26  C   UNL     1      -1.249   3.128   0.030  0.00  0.00    +0.051 A 
ATOM     27 CL   UNL     1      -2.768   3.969   0.048  0.00  0.00    -0.083 Cl
ATOM     28 CL   UNL     1       2.663   4.043  -0.003  0.00  0.00    -0.083 Cl
ENDBRANCH  20  21
ENDBRANCH  17  19
ENDBRANCH   1  15
TORSDOF 4
