REMARK  Name = ZINC01088060
REMARK  7 active torsions:
REMARK  status: ('A' for Active; 'I' for Inactive)
REMARK    1  A    between atoms: C_1  and  C_2
REMARK    2  A    between atoms: C_3  and  C_20
REMARK    3  A    between atoms: C_5  and  N_10
REMARK    4  A    between atoms: C_6  and  C_7
REMARK    5  A    between atoms: N_10  and  S_11
REMARK    6  A    between atoms: S_11  and  C_14
REMARK    7  A    between atoms: C_20  and  C_21
REMARK                            x       y       z     vdW  Elec       q    Type
REMARK                         _______ _______ _______ _____ _____    ______ ____
ROOT
ATOM      1  C   UNL     1       5.612   1.463  -5.827  0.00  0.00    +0.045 C 
ATOM      2  C   UNL     1       5.217   1.328  -4.379  0.00  0.00    -0.026 A 
ATOM      3  C   UNL     1       5.069   2.406  -3.590  0.00  0.00    -0.000 A 
ATOM      4  S   UNL     1       4.609   1.706  -2.019  0.00  0.00    -0.076 S 
ATOM      5  C   UNL     1       4.623   0.025  -2.436  0.00  0.00    +0.098 A 
ATOM      6  C   UNL     1       4.989   0.034  -3.778  0.00  0.00    +0.069 A 
ENDROOT
BRANCH   6   7
ATOM      7  C   UNL     1       5.131  -1.205  -4.545  0.00  0.00    +0.244 C 
ATOM      8  O   UNL     1       4.174  -1.666  -5.140  0.00  0.00    -0.270 OA
ATOM      9  N   UNL     1       6.321  -1.836  -4.591  0.00  0.00    -0.325 N 
ATOM     10  H   UNL     1       7.083  -1.469  -4.117  0.00  0.00    +0.145 HD
ATOM     11  H   UNL     1       6.415  -2.657  -5.099  0.00  0.00    +0.145 HD
ENDBRANCH   6   7
BRANCH   5  12
ATOM     12  N   UNL     1       4.345  -1.062  -1.629  0.00  0.00    -0.209 N 
ATOM     13  H   UNL     1       4.391  -1.960  -1.993  0.00  0.00    +0.174 HD
BRANCH  12  14
ATOM     14  S   UNL     1       3.934  -0.832  -0.042  0.00  0.00    +0.073 S 
ATOM     15  O   UNL     1       4.902   0.054   0.504  0.00  0.00    -0.150 OA
ATOM     16  O   UNL     1       3.686  -2.120   0.505  0.00  0.00    -0.150 OA
BRANCH  14  17
ATOM     17  C   UNL     1       2.396   0.029  -0.022  0.00  0.00    +0.109 A 
ATOM     18  C   UNL     1       1.208  -0.679  -0.014  0.00  0.00    +0.029 A 
ATOM     19  C   UNL     1       0.002  -0.004   0.002  0.00  0.00    +0.002 A 
ATOM     20  C   UNL     1      -0.017   1.378   0.010  0.00  0.00    +0.000 A 
ATOM     21  C   UNL     1       1.171   2.086   0.002  0.00  0.00    +0.002 A 
ATOM     22  C   UNL     1       2.377   1.411  -0.014  0.00  0.00    +0.029 A 
ENDBRANCH  14  17
ENDBRANCH  12  14
ENDBRANCH   5  12
BRANCH   3  23
ATOM     23  C   UNL     1       5.249   3.859  -3.949  0.00  0.00    +0.077 C 
BRANCH  23  24
ATOM     24  C   UNL     1       3.938   4.422  -4.435  0.00  0.00    -0.043 A 
ATOM     25  C   UNL     1       3.621   4.374  -5.780  0.00  0.00    +0.004 A 
ATOM     26  C   UNL     1       2.417   4.886  -6.225  0.00  0.00    +0.000 A 
ATOM     27  C   UNL     1       1.534   5.456  -5.327  0.00  0.00    +0.000 A 
ATOM     28  C   UNL     1       1.853   5.510  -3.983  0.00  0.00    +0.000 A 
ATOM     29  C   UNL     1       3.055   4.992  -3.537  0.00  0.00    +0.004 A 
ENDBRANCH  23  24
ENDBRANCH   3  23
TORSDOF 6
