REMARK  Name = ZINC05809713
REMARK  0 active torsions:
REMARK  status: ('A' for Active; 'I' for Inactive)
REMARK                            x       y       z     vdW  Elec       q    Type
REMARK                         _______ _______ _______ _____ _____    ______ ____
ROOT
ATOM      1  C   UNL     1       1.142   3.828   0.011  0.00  0.00    +0.046 A 
ATOM      2  C   UNL     1      -0.066   4.573   0.026  0.00  0.00    +0.055 A 
ATOM      3  C   UNL     1      -1.230   3.808   0.033  0.00  0.00    +0.046 A 
ATOM      4  C   UNL     1      -1.218   2.424   0.021  0.00  0.00    +0.039 A 
ATOM      5  C   UNL     1      -0.021   1.732   0.012  0.00  0.00    +0.060 A 
ATOM      6  C   UNL     1       1.158   2.458   0.004  0.00  0.00    +0.061 A 
ATOM      7 CL   UNL     1       2.678   1.620  -0.014  0.00  0.00    -0.082 Cl
ATOM      8 CL   UNL     1       0.002  -0.004   0.002  0.00  0.00    -0.082 Cl
ATOM      9  S   UNL     1      -2.636   4.916   0.051  0.00  0.00    -0.003 S 
ATOM     10  S   UNL     1      -1.539   6.683   0.050  0.00  0.00    +0.177 S 
ATOM     11  O   UNL     1      -1.700   7.186  -1.269  0.00  0.00    -0.225 OA
ATOM     12  N   UNL     1      -0.018   5.980   0.033  0.00  0.00    -0.254 N 
ATOM     13  H   UNL     1       0.807   6.489   0.027  0.00  0.00    +0.163 HD
ENDROOT
TORSDOF 0
