REMARK  Name = ZINC48837567
REMARK  6 active torsions:
REMARK  status: ('A' for Active; 'I' for Inactive)
REMARK    1  A    between atoms: C_1  and  C_2
REMARK    2  A    between atoms: C_4  and  C_20
REMARK    3  A    between atoms: C_6  and  C_8
REMARK    4  A    between atoms: C_8  and  C_10
REMARK    5  A    between atoms: C_10  and  C_18
REMARK    6  A    between atoms: C_11  and  C_12
REMARK                            x       y       z     vdW  Elec       q    Type
REMARK                         _______ _______ _______ _____ _____    ______ ____
ROOT
ATOM      1  C   UNL     1       0.052  -2.846   2.458  0.00  0.00    +0.203 C 
ATOM      2  O   UNL     1      -0.377  -2.330   3.474  0.00  0.00    -0.286 OA
ENDROOT
BRANCH   1   8
ATOM      3  C   UNL     1       0.160   1.479  -0.030  0.00  0.00    +0.044 C 
ATOM      4  C   UNL     1       0.065  -0.025  -0.022  0.00  0.00    -0.050 A 
ATOM      5  C   UNL     1      -0.060  -0.715  -1.216  0.00  0.00    +0.006 A 
ATOM      6  C   UNL     1      -0.147  -2.096  -1.217  0.00  0.00    -0.050 A 
ATOM      7  C   UNL     1      -0.112  -2.794  -0.028  0.00  0.00    +0.015 A 
ATOM      8  C   UNL     1       0.014  -2.104   1.179  0.00  0.00    +0.023 A 
ATOM      9  C   UNL     1       0.107  -0.711   1.173  0.00  0.00    +0.015 A 
ATOM     10  C   UNL     1      -0.283  -2.839  -2.522  0.00  0.00    +0.044 C 
ENDBRANCH   1   8
BRANCH   1  11
ATOM     11  C   UNL     1       0.607  -4.202   2.502  0.00  0.00    +0.100 C 
ATOM     12  C   UNL     1       0.528  -4.947   3.672  0.00  0.00    +0.037 C 
BRANCH  12  13
ATOM     13  C   UNL     1       1.059  -6.246   3.714  0.00  0.00    +0.015 A 
ATOM     14  C   UNL     1       1.079  -7.155   4.774  0.00  0.00    +0.031 A 
ATOM     15  C   UNL     1       1.676  -8.361   4.510  0.00  0.00    +0.025 A 
ATOM     16  C   UNL     1       2.193  -8.586   3.272  0.00  0.00    +0.061 A 
ATOM     17  S   UNL     1       1.877  -7.169   2.426  0.00  0.00    -0.096 S 
ATOM     18 BR   UNL     1       1.780  -9.693   5.848  0.00  0.00    -0.050 Br
ENDBRANCH  12  13
BRANCH  11  19
ATOM     19  C   UNL     1       1.230  -4.759   1.339  0.00  0.00    +0.103 C 
ATOM     20  N   UNL     1       1.724  -5.201   0.417  0.00  0.00    -0.191 NA
ENDBRANCH  11  19
ENDBRANCH   1  11
TORSDOF 4
