REMARK  Name = ZINC06973177
REMARK  6 active torsions:
REMARK  status: ('A' for Active; 'I' for Inactive)
REMARK    1  A    between atoms: C_1  and  C_2
REMARK    2  A    between atoms: C_15  and  C_17
REMARK    3  A    between atoms: C_17  and  C_19
REMARK    4  A    between atoms: C_17  and  S_20
REMARK    5  A    between atoms: S_20  and  C_21
REMARK    6  A    between atoms: N_26  and  C_27
REMARK                            x       y       z     vdW  Elec       q    Type
REMARK                         _______ _______ _______ _____ _____    ______ ____
ROOT
ATOM      1  C   UNL     1     -14.382  -5.322   7.339  0.00  0.00    +0.008 C 
ATOM      2  C   UNL     1     -12.985  -5.229   6.722  0.00  0.00    -0.009 C 
ATOM      3  C   UNL     1     -13.087  -5.352   5.199  0.00  0.00    +0.008 C 
ATOM      4  C   UNL     1     -11.691  -5.509   4.595  0.00  0.00    +0.037 C 
ATOM      5  C   UNL     1     -10.803  -4.378   5.106  0.00  0.00    -0.023 A 
ATOM      6  C   UNL     1     -11.145  -3.678   6.209  0.00  0.00    -0.004 A 
ATOM      7  S   UNL     1      -9.846  -2.491   6.421  0.00  0.00    -0.073 S 
ATOM      8  C   UNL     1      -8.846  -2.939   5.025  0.00  0.00    +0.116 A 
ATOM      9  C   UNL     1      -9.558  -3.999   4.440  0.00  0.00    +0.075 A 
ATOM     10  C   UNL     1      -8.966  -4.569   3.265  0.00  0.00    +0.260 A 
ATOM     11  O   UNL     1      -9.509  -5.494   2.685  0.00  0.00    -0.267 OA
ATOM     12  N   UNL     1      -7.802  -4.067   2.814  0.00  0.00    -0.309 N 
ATOM     13  H   UNL     1      -7.384  -4.460   1.995  0.00  0.00    +0.170 HD
ATOM     14  C   UNL     1      -7.183  -3.037   3.448  0.00  0.00    +0.124 A 
ATOM     15  N   UNL     1      -7.695  -2.500   4.523  0.00  0.00    -0.225 NA
ATOM     16  C   UNL     1     -12.360  -3.869   7.064  0.00  0.00    +0.046 C 
ENDROOT
BRANCH  14  17
ATOM     17  C   UNL     1      -5.881  -2.509   2.904  0.00  0.00    +0.116 C 
ATOM     18  C   UNL     1      -4.715  -3.183   3.631  0.00  0.00    +0.027 C 
BRANCH  17  19
ATOM     19  S   UNL     1      -5.800  -0.716   3.163  0.00  0.00    -0.086 S 
BRANCH  19  20
ATOM     20  C   UNL     1      -4.311  -0.235   2.354  0.00  0.00    +0.161 A 
ATOM     21  N   UNL     1      -3.435  -0.977   1.704  0.00  0.00    -0.133 NA
ATOM     22  N   UNL     1      -2.326  -0.391   1.140  0.00  0.00    -0.125 NA
ATOM     23  C   UNL     1      -2.142   0.910   1.253  0.00  0.00    +0.183 A 
ATOM     24  S   UNL     1      -3.578   1.387   2.203  0.00  0.00    -0.025 S 
ATOM     25  N   UNL     1      -1.105   1.699   0.767  0.00  0.00    -0.319 N 
ATOM     26  H   UNL     1      -1.106   2.655   0.931  0.00  0.00    +0.148 HD
BRANCH  25  27
ATOM     27  C   UNL     1      -0.013   1.086   0.008  0.00  0.00    +0.072 C 
ATOM     28  C   UNL     1       0.460   1.806  -1.256  0.00  0.00    +0.024 C 
ATOM     29  C   UNL     1       1.335   1.811  -0.001  0.00  0.00    +0.024 C 
ENDBRANCH  25  27
ENDBRANCH  19  20
ENDBRANCH  17  19
ENDBRANCH  14  17
TORSDOF 4
