REMARK  Name = ZINC36493788
REMARK  13 active torsions:
REMARK  status: ('A' for Active; 'I' for Inactive)
REMARK    1  A    between atoms: C_1  and  C_2
REMARK    2  A    between atoms: C_2  and  C_3
REMARK    3  A    between atoms: C_2  and  C_4
REMARK    4  A    between atoms: C_2  and  N_5
REMARK    5  A    between atoms: C_6  and  C_8
REMARK    6  A    between atoms: C_8  and  C_10
REMARK    7  A    between atoms: C_8  and  N_17
REMARK    8  A    between atoms: C_14  and  O_16
REMARK    9  A    between atoms: N_17  and  C_18
REMARK   10  A    between atoms: C_18  and  C_19
REMARK   11  A    between atoms: C_24  and  C_26
REMARK   12  A    between atoms: C_26  and  C_34
REMARK   13  A    between atoms: C_27  and  C_28
REMARK                            x       y       z     vdW  Elec       q    Type
REMARK                         _______ _______ _______ _____ _____    ______ ____
ROOT
ATOM      1  N   UNL     1       3.828  -1.273  -2.106  0.00  0.00    -0.275 N 
ATOM      2  C   UNL     1       4.244  -2.551  -2.020  0.00  0.00    +0.248 C 
ATOM      3  O   UNL     1       3.490  -3.410  -1.603  0.00  0.00    -0.270 OA
ENDROOT
BRANCH   2   4
ATOM      4  C   UNL     1       5.612  -2.909  -2.430  0.00  0.00    +0.045 C 
ATOM      5  C   UNL     1       5.819  -3.976  -3.248  0.00  0.00    +0.021 C 
BRANCH   5   6
ATOM      6  C   UNL     1       7.180  -4.491  -3.452  0.00  0.00    -0.024 A 
ATOM      7  C   UNL     1       8.128  -4.402  -2.426  0.00  0.00    +0.008 A 
ATOM      8  C   UNL     1       9.402  -4.888  -2.626  0.00  0.00    +0.001 A 
ATOM      9  C   UNL     1       9.745  -5.464  -3.837  0.00  0.00    +0.000 A 
ATOM     10  C   UNL     1       8.814  -5.556  -4.857  0.00  0.00    +0.001 A 
ATOM     11  C   UNL     1       7.534  -5.080  -4.671  0.00  0.00    +0.008 A 
ENDBRANCH   5   6
BRANCH   4  12
ATOM     12  C   UNL     1       6.762  -2.108  -1.953  0.00  0.00    -0.013 A 
ATOM     13  C   UNL     1       6.866  -1.767  -0.604  0.00  0.00    +0.008 A 
ATOM     14  C   UNL     1       7.940  -1.020  -0.166  0.00  0.00    +0.001 A 
ATOM     15  C   UNL     1       8.912  -0.608  -1.060  0.00  0.00    +0.000 A 
ATOM     16  C   UNL     1       8.813  -0.943  -2.399  0.00  0.00    +0.001 A 
ATOM     17  C   UNL     1       7.748  -1.695  -2.849  0.00  0.00    +0.008 A 
ENDBRANCH   4  12
ENDBRANCH   2   4
BRANCH   1  18
ATOM     18  C   UNL     1       2.493  -0.903  -1.628  0.00  0.00    +0.193 C 
BRANCH  18  19
ATOM     19  C   UNL     1       2.391  -1.192  -0.152  0.00  0.00    -0.015 A 
ATOM     20  C   UNL     1       3.425  -1.840   0.498  0.00  0.00    +0.006 A 
ATOM     21  C   UNL     1       3.334  -2.107   1.852  0.00  0.00    +0.004 A 
ATOM     22  C   UNL     1       2.209  -1.726   2.558  0.00  0.00    +0.045 A 
ATOM     23  C   UNL     1       1.171  -1.076   1.908  0.00  0.00    +0.117 A 
ATOM     24  C   UNL     1       1.267  -0.804   0.551  0.00  0.00    +0.051 A 
BRANCH  23  25
ATOM     25  O   UNL     1       0.063  -0.701   2.600  0.00  0.00    -0.507 OA
ATOM     26  H   UNL     1       0.118   0.187   2.980  0.00  0.00    +0.292 HD
ENDBRANCH  23  25
ENDBRANCH  18  19
BRANCH  18  28
ATOM     27  N   UNL     1       0.167  -1.672  -1.970  0.00  0.00    -0.309 N 
ATOM     28  C   UNL     1       1.454  -1.704  -2.369  0.00  0.00    +0.239 C 
ATOM     29  O   UNL     1       1.776  -2.376  -3.326  0.00  0.00    -0.273 OA
ATOM     30  H   UNL     1      -0.090  -1.134  -1.205  0.00  0.00    +0.149 HD
BRANCH  27  32
ATOM     31  C   UNL     1      -0.476  -3.935  -2.639  0.00  0.00    +0.031 C 
ATOM     32  C   UNL     1      -0.843  -2.450  -2.691  0.00  0.00    +0.026 C 
ATOM     33  C   UNL     1      -0.897  -1.989  -4.149  0.00  0.00    +0.031 C 
ATOM     34  C   UNL     1      -2.211  -2.240  -2.038  0.00  0.00    +0.031 C 
ENDBRANCH  27  32
ENDBRANCH  18  28
ENDBRANCH   1  18
BRANCH   1  35
ATOM     35  C   UNL     1       4.709  -0.252  -2.678  0.00  0.00    +0.183 C 
BRANCH  35  36
ATOM     36  C   UNL     1       4.222   0.118  -4.055  0.00  0.00    +0.122 A 
ATOM     37  C   UNL     1       3.428   1.162  -4.354  0.00  0.00    +0.046 A 
ATOM     38  C   UNL     1       3.222   1.133  -5.753  0.00  0.00    +0.041 A 
ATOM     39  C   UNL     1       3.903   0.073  -6.225  0.00  0.00    +0.195 A 
ATOM     40  O   UNL     1       4.511  -0.535  -5.193  0.00  0.00    -0.466 OA
ENDBRANCH  35  36
ENDBRANCH   1  35
TORSDOF 10
