REMARK  Name = ZINC67210500
REMARK  9 active torsions:
REMARK  status: ('A' for Active; 'I' for Inactive)
REMARK    1  A    between atoms: C_1  and  C_2
REMARK    2  A    between atoms: C_2  and  S_3
REMARK    3  A    between atoms: S_3  and  N_6
REMARK    4  A    between atoms: N_6  and  C_7
REMARK    5  A    between atoms: C_10  and  N_14
REMARK    6  A    between atoms: C_12  and  C_13
REMARK    7  A    between atoms: C_15  and  C_17
REMARK    8  A    between atoms: C_19  and  N_24
REMARK    9  A    between atoms: C_22  and  C_23
REMARK                            x       y       z     vdW  Elec       q    Type
REMARK                         _______ _______ _______ _____ _____    ______ ____
ROOT
ATOM      1  N   UNL     1      -6.042  -5.549  -0.066  0.00  0.00    -0.281 N 
ATOM      2  C   UNL     1      -6.050  -6.727   0.588  0.00  0.00    +0.249 C 
ATOM      3  O   UNL     1      -5.104  -7.043   1.282  0.00  0.00    -0.270 OA
ATOM      4  H   UNL     1      -6.827  -5.262  -0.559  0.00  0.00    +0.155 HD
ENDROOT
BRANCH   1   8
ATOM      5  C   UNL     1      -2.645  -3.132   0.034  0.00  0.00    +0.077 A 
ATOM      6  C   UNL     1      -3.908  -2.554  -0.005  0.00  0.00    +0.029 A 
ATOM      7  C   UNL     1      -5.032  -3.354  -0.038  0.00  0.00    +0.025 A 
ATOM      8  C   UNL     1      -4.901  -4.737  -0.033  0.00  0.00    +0.034 A 
ATOM      9  C   UNL     1      -3.639  -5.315   0.006  0.00  0.00    +0.028 A 
ATOM     10  C   UNL     1      -2.514  -4.515   0.034  0.00  0.00    -0.024 A 
ATOM     11  C   UNL     1      -1.144  -5.142   0.071  0.00  0.00    +0.046 C 
BRANCH   5  12
ATOM     12  N   UNL     1      -1.505  -2.322   0.067  0.00  0.00    -0.102 NA
BRANCH  12  13
ATOM     13  S   UNL     1      -1.661  -0.673   0.067  0.00  0.00    +0.062 S 
ATOM     14  O   UNL     1      -2.330  -0.372   1.284  0.00  0.00    -0.154 OA
ATOM     15  O   UNL     1      -2.262  -0.366  -1.184  0.00  0.00    -0.154 OA
BRANCH  13  17
ATOM     16  C   UNL     1       0.017   1.486   0.118  0.00  0.00    +0.030 C 
ATOM     17  C   UNL     1       0.039  -0.044   0.115  0.00  0.00    +0.187 C 
ENDBRANCH  13  17
ENDBRANCH  12  13
ENDBRANCH   5  12
ENDBRANCH   1   8
BRANCH   2  18
ATOM     18  C   UNL     1      -7.209  -7.636   0.459  0.00  0.00    +0.042 A 
ATOM     19  C   UNL     1      -8.352  -7.222  -0.228  0.00  0.00    +0.046 A 
ATOM     20  C   UNL     1      -9.430  -8.075  -0.344  0.00  0.00    +0.127 A 
ATOM     21  C   UNL     1      -9.381  -9.338   0.219  0.00  0.00    +0.033 A 
ATOM     22  C   UNL     1      -8.252  -9.754   0.902  0.00  0.00    +0.006 A 
ATOM     23  C   UNL     1      -7.164  -8.913   1.020  0.00  0.00    -0.038 A 
ATOM     24  C   UNL     1      -5.933  -9.370   1.759  0.00  0.00    +0.044 C 
BRANCH  20  25
ATOM     25  N   UNL     1     -10.642  -7.637  -1.073  0.00  0.00    +0.056 N 
ATOM     26  O   UNL     1     -10.686  -6.534  -1.565  0.00  0.00    -0.126 OA
ATOM     27  O   UNL     1     -11.587  -8.384  -1.175  0.00  0.00    -0.126 OA
ENDBRANCH  20  25
ENDBRANCH   2  18
TORSDOF 6
