REMARK  Name = ZINC07178854
REMARK  8 active torsions:
REMARK  status: ('A' for Active; 'I' for Inactive)
REMARK    1  A    between atoms: C_1  and  C_2
REMARK    2  A    between atoms: C_3  and  C_31
REMARK    3  A    between atoms: N_4  and  C_26
REMARK    4  A    between atoms: C_5  and  S_7
REMARK    5  A    between atoms: S_7  and  C_8
REMARK    6  A    between atoms: C_8  and  C_10
REMARK    7  A    between atoms: C_8  and  C_11
REMARK    8  A    between atoms: N_13  and  C_14
REMARK                            x       y       z     vdW  Elec       q    Type
REMARK                         _______ _______ _______ _____ _____    ______ ____
ROOT
ATOM      1  C   UNL     1      -2.720   3.691   6.795  0.00  0.00    +0.230 C 
ATOM      2  O   UNL     1      -1.816   3.477   7.575  0.00  0.00    -0.274 OA
ATOM      3  N   UNL     1      -3.783   4.425   7.179  0.00  0.00    -0.285 N 
ATOM      4  H   UNL     1      -4.473   4.653   6.537  0.00  0.00    +0.155 HD
ENDROOT
BRANCH   3   5
ATOM      5  C   UNL     1      -3.891   4.858   8.507  0.00  0.00    +0.035 A 
ATOM      6  C   UNL     1      -5.141   4.941   9.110  0.00  0.00    +0.025 A 
ATOM      7  C   UNL     1      -5.254   5.361  10.420  0.00  0.00    +0.029 A 
ATOM      8  C   UNL     1      -4.119   5.713  11.134  0.00  0.00    +0.067 A 
ATOM      9  C   UNL     1      -2.862   5.637  10.530  0.00  0.00    +0.069 A 
ATOM     10  C   UNL     1      -2.752   5.208   9.216  0.00  0.00    +0.051 A 
ATOM     11  N   UNL     1      -1.931   6.047  11.481  0.00  0.00    -0.306 N 
ATOM     12  H   UNL     1      -0.972   6.100  11.351  0.00  0.00    +0.170 HD
ATOM     13  C   UNL     1      -2.590   6.360  12.613  0.00  0.00    +0.325 A 
ATOM     14  O   UNL     1      -2.071   6.754  13.640  0.00  0.00    -0.247 OA
ATOM     15  N   UNL     1      -3.911   6.169  12.436  0.00  0.00    -0.306 N 
ATOM     16  H   UNL     1      -4.601   6.322  13.100  0.00  0.00    +0.170 HD
ENDBRANCH   3   5
BRANCH   1  17
ATOM     17  C   UNL     1      -2.654   3.137   5.394  0.00  0.00    +0.137 C 
ATOM     18  C   UNL     1      -3.510   1.873   5.305  0.00  0.00    +0.029 C 
BRANCH  17  19
ATOM     19  S   UNL     1      -0.937   2.734   4.986  0.00  0.00    -0.075 S 
BRANCH  19  24
ATOM     20  C   UNL     1      -3.048   1.707   0.277  0.00  0.00    +0.067 C 
ATOM     21  C   UNL     1      -2.017   1.851   1.366  0.00  0.00    +0.060 A 
ATOM     22  C   UNL     1      -0.703   1.593   1.245  0.00  0.00    +0.039 A 
ATOM     23  N   UNL     1      -0.128   1.859   2.467  0.00  0.00    -0.320 N 
ATOM     24  C   UNL     1      -1.126   2.268   3.297  0.00  0.00    +0.170 A 
ATOM     25  N   UNL     1      -2.254   2.255   2.626  0.00  0.00    -0.227 NA
ATOM     26  C   UNL     1       0.005   1.111   0.006  0.00  0.00    +0.065 C 
BRANCH  23  27
ATOM     27  C   UNL     1       1.290   1.726   2.810  0.00  0.00    +0.089 C 
ATOM     28  C   UNL     1       1.459   0.751   3.994  0.00  0.00    +0.025 C 
ATOM     29  C   UNL     1       2.612   1.365   4.829  0.00  0.00    +0.002 C 
ATOM     30  C   UNL     1       2.339   2.886   4.723  0.00  0.00    +0.002 C 
ATOM     31  C   UNL     1       1.850   3.083   3.273  0.00  0.00    +0.025 C 
ENDBRANCH  23  27
ENDBRANCH  19  24
ENDBRANCH  17  19
ENDBRANCH   1  17
TORSDOF 5
