REMARK  Name = ZINC27265019
REMARK  5 active torsions:
REMARK  status: ('A' for Active; 'I' for Inactive)
REMARK    1  A    between atoms: C_1  and  C_2
REMARK    2  A    between atoms: C_3  and  C_9
REMARK    3  A    between atoms: N_5  and  C_7
REMARK    4  A    between atoms: C_10  and  C_11
REMARK    5  A    between atoms: N_13  and  C_14
REMARK                            x       y       z     vdW  Elec       q    Type
REMARK                         _______ _______ _______ _____ _____    ______ ____
ROOT
ATOM      1  C   UNL     1       3.215   3.617  -0.725  0.00  0.00    +0.241 C 
ATOM      2  O   UNL     1       4.027   4.251  -1.373  0.00  0.00    -0.270 OA
ATOM      3  N   UNL     1       2.282   4.262   0.003  0.00  0.00    -0.281 N 
ATOM      4  H   UNL     1       1.495   3.692   0.519  0.00  0.00    +0.155 HD
ENDROOT
BRANCH   3   5
ATOM      5  C   UNL     1       2.315   5.660   0.103  0.00  0.00    +0.052 A 
ATOM      6  C   UNL     1       3.532   6.339   0.094  0.00  0.00    +0.028 A 
ATOM      7  C   UNL     1       3.517   7.718   0.189  0.00  0.00    +0.045 A 
ATOM      8  C   UNL     1       2.297   8.377   0.302  0.00  0.00    +0.122 A 
ATOM      9  N   UNL     1       1.160   7.699   0.313  0.00  0.00    -0.238 NA
ATOM     10  C   UNL     1       1.137   6.383   0.218  0.00  0.00    +0.136 A 
ATOM     11  N   UNL     1       2.271   9.765   0.405  0.00  0.00    -0.305 N 
ATOM     12  C   UNL     1       0.888  10.262   0.489  0.00  0.00    +0.125 C 
ATOM     13  C   UNL     1       0.919  11.733   0.907  0.00  0.00    +0.123 C 
ATOM     14  N   UNL     1       1.846  12.475   0.058  0.00  0.00    -0.313 N 
ATOM     15  C   UNL     1       2.792  11.882  -0.678  0.00  0.00    +0.230 C 
ATOM     16  O   UNL     1       3.540  12.576  -1.333  0.00  0.00    -0.274 OA
ATOM     17  C   UNL     1       2.965  10.390  -0.729  0.00  0.00    +0.202 C 
ATOM     18  H   UNL     1       1.785  13.572   0.004  0.00  0.00    +0.149 HD
ENDBRANCH   3   5
BRANCH   1  20
ATOM     19  C   UNL     1       4.184   1.553  -1.466  0.00  0.00    +0.018 C 
ATOM     20  C   UNL     1       3.249   2.200  -0.736  0.00  0.00    +0.068 C 
BRANCH  19  23
ATOM     21  C   UNL     1       4.306  -0.279  -4.053  0.00  0.00    +0.068 C 
ATOM     22  C   UNL     1       4.275  -0.746  -2.621  0.00  0.00    +0.069 A 
ATOM     23  C   UNL     1       4.220   0.085  -1.477  0.00  0.00    +0.034 A 
ATOM     24  C   UNL     1       4.213  -0.748  -0.370  0.00  0.00    +0.134 A 
ATOM     25  N   UNL     1       4.252  -2.014  -0.821  0.00  0.00    -0.255 N 
ATOM     26  N   UNL     1       4.294  -1.986  -2.219  0.00  0.00    -0.175 NA
ATOM     27  C   UNL     1       4.257  -3.219   0.012  0.00  0.00    +0.174 C 
ATOM     28 CL   UNL     1       4.159  -0.248   1.292  0.00  0.00    -0.062 Cl
ENDBRANCH  19  23
ENDBRANCH   1  20
TORSDOF 3
