REMARK  Name = ZINC39912234
REMARK  15 active torsions:
REMARK  status: ('A' for Active; 'I' for Inactive)
REMARK    1  A    between atoms: C_1  and  C_2
REMARK    2  A    between atoms: C_2  and  C_3
REMARK    3  A    between atoms: C_3  and  C_4
REMARK    4  A    between atoms: C_4  and  O_5
REMARK    5  A    between atoms: O_5  and  C_6
REMARK    6  A    between atoms: C_9  and  C_15
REMARK    7  A    between atoms: C_11  and  O_12
REMARK    8  A    between atoms: O_12  and  C_13
REMARK    9  A    between atoms: C_13  and  C_14
REMARK   10  A    between atoms: C_18  and  C_32
REMARK   11  A    between atoms: N_25  and  C_26
REMARK   12  A    between atoms: C_26  and  C_27
REMARK   13  A    between atoms: C_34  and  C_40
REMARK   14  A    between atoms: C_36  and  C_39
REMARK   15  A    between atoms: C_37  and  O_38
REMARK                            x       y       z     vdW  Elec       q    Type
REMARK                         _______ _______ _______ _____ _____    ______ ____
ROOT
ATOM      1  C   UNL     1      -3.074  -7.739  -0.789  0.00  0.00    +0.142 C 
ATOM      2  C   UNL     1      -2.946  -8.766   0.302  0.00  0.00    +0.035 A 
ATOM      3  C   UNL     1      -3.412  -9.244   1.532  0.00  0.00    +0.102 A 
ATOM      4  N   UNL     1      -2.689 -10.302   1.843  0.00  0.00    -0.173 NA
ATOM      5  N   UNL     1      -1.814 -10.539   0.931  0.00  0.00    -0.272 N 
ATOM      6  H   UNL     1      -1.175 -11.268   0.950  0.00  0.00    +0.189 HD
ATOM      7  C   UNL     1      -1.919  -9.613  -0.067  0.00  0.00    +0.126 A 
ATOM      8  C   UNL     1      -1.385  -9.163  -1.357  0.00  0.00    +0.266 C 
ATOM      9  O   UNL     1      -0.470  -9.699  -1.954  0.00  0.00    -0.268 OA
ATOM     10  N   UNL     1      -2.050  -8.074  -1.787  0.00  0.00    -0.278 N 
ENDROOT
BRANCH   3  11
ATOM     11  C   UNL     1      -4.515  -8.666   2.339  0.00  0.00    +0.044 A 
ATOM     12  C   UNL     1      -5.276  -7.615   1.832  0.00  0.00    +0.017 A 
ATOM     13  C   UNL     1      -6.301  -7.081   2.586  0.00  0.00    -0.049 A 
ATOM     14  C   UNL     1      -6.576  -7.585   3.845  0.00  0.00    +0.010 A 
ATOM     15  C   UNL     1      -5.827  -8.627   4.357  0.00  0.00    -0.008 A 
ATOM     16  C   UNL     1      -4.799  -9.177   3.608  0.00  0.00    +0.129 A 
ATOM     17  C   UNL     1      -6.132  -9.170   5.729  0.00  0.00    +0.047 C 
ATOM     18  C   UNL     1      -7.124  -5.944   2.036  0.00  0.00    +0.044 C 
BRANCH  16  19
ATOM     19  O   UNL     1      -4.065 -10.205   4.109  0.00  0.00    -0.506 OA
ATOM     20  H   UNL     1      -3.288  -9.926   4.612  0.00  0.00    +0.292 HD
ENDBRANCH  16  19
ENDBRANCH   3  11
BRANCH   1  24
ATOM     21  C   UNL     1      -2.376  -3.823   0.782  0.00  0.00    +0.162 A 
ATOM     22  C   UNL     1      -3.621  -4.157   0.274  0.00  0.00    +0.050 A 
ATOM     23  C   UNL     1      -3.844  -5.423  -0.234  0.00  0.00    +0.009 A 
ATOM     24  C   UNL     1      -2.826  -6.359  -0.235  0.00  0.00    -0.019 A 
ATOM     25  C   UNL     1      -1.582  -6.033   0.271  0.00  0.00    +0.055 A 
ATOM     26  C   UNL     1      -1.351  -4.763   0.776  0.00  0.00    +0.162 A 
BRANCH  21  27
ATOM     27  O   UNL     1      -2.156  -2.577   1.282  0.00  0.00    -0.488 OA
BRANCH  27  28
ATOM     28  C   UNL     1      -3.255  -1.664   1.256  0.00  0.00    +0.229 C 
BRANCH  28  29
ATOM     29  C   UNL     1      -2.820  -0.325   1.854  0.00  0.00    +0.041 C 
BRANCH  29  31
ATOM     30  C   UNL     1      -3.561   1.991   2.425  0.00  0.00    +0.004 C 
ATOM     31  C   UNL     1      -3.996   0.652   1.827  0.00  0.00    -0.000 C 
ENDBRANCH  29  31
ENDBRANCH  28  29
ENDBRANCH  27  28
ENDBRANCH  21  27
BRANCH  26  32
ATOM     32  O   UNL     1      -0.125  -4.438   1.269  0.00  0.00    -0.489 OA
BRANCH  32  33
ATOM     33  C   UNL     1       0.865  -5.469   1.277  0.00  0.00    +0.226 C 
ATOM     34  C   UNL     1       2.186  -4.902   1.800  0.00  0.00    +0.048 C 
ENDBRANCH  32  33
ENDBRANCH  26  32
ENDBRANCH   1  24
BRANCH  10  35
ATOM     35  C   UNL     1      -1.796  -7.348  -3.034  0.00  0.00    +0.183 C 
BRANCH  35  36
ATOM     36  C   UNL     1      -0.778  -6.265  -2.786  0.00  0.00    +0.122 A 
ATOM     37  C   UNL     1       0.556  -6.397  -2.905  0.00  0.00    +0.046 A 
ATOM     38  C   UNL     1       1.122  -5.142  -2.581  0.00  0.00    +0.041 A 
ATOM     39  C   UNL     1       0.100  -4.319  -2.283  0.00  0.00    +0.195 A 
ATOM     40  O   UNL     1      -1.048  -5.003  -2.415  0.00  0.00    -0.466 OA
ENDBRANCH  35  36
ENDBRANCH  10  35
TORSDOF 11
