REMARK  Name = ZINC10642736
REMARK  11 active torsions:
REMARK  status: ('A' for Active; 'I' for Inactive)
REMARK    1  A    between atoms: C_1  and  C_2
REMARK    2  A    between atoms: C_5  and  C_7
REMARK    3  A    between atoms: C_9  and  C_17
REMARK    4  A    between atoms: C_11  and  C_16
REMARK    5  A    between atoms: N_19  and  C_20
REMARK    6  A    between atoms: C_22  and  S_28
REMARK    7  A    between atoms: C_25  and  O_26
REMARK    8  A    between atoms: O_26  and  C_27
REMARK    9  A    between atoms: S_28  and  N_31
REMARK   10  A    between atoms: N_31  and  C_32
REMARK   11  A    between atoms: N_31  and  C_33
REMARK                            x       y       z     vdW  Elec       q    Type
REMARK                         _______ _______ _______ _____ _____    ______ ____
ROOT
ATOM      1  C   UNL     1      -2.390  -0.052   0.082  0.00  0.00    +0.249 C 
ATOM      2  O   UNL     1      -2.426   1.148  -0.111  0.00  0.00    -0.270 OA
ATOM      3  N   UNL     1      -1.203  -0.683   0.181  0.00  0.00    -0.278 N 
ATOM      4  H   UNL     1      -1.173  -1.649   0.261  0.00  0.00    +0.155 HD
ENDROOT
BRANCH   1   7
ATOM      5  C   UNL     1      -4.968  -2.796  -0.160  0.00  0.00    +0.082 A 
ATOM      6  C   UNL     1      -3.758  -2.106  -0.303  0.00  0.00    +0.042 A 
ATOM      7  C   UNL     1      -3.648  -0.819   0.210  0.00  0.00    +0.053 A 
ATOM      8  C   UNL     1      -4.773  -0.268   0.862  0.00  0.00    +0.076 A 
ATOM      9  C   UNL     1      -5.039   1.011   1.515  0.00  0.00    +0.091 A 
ATOM     10  N   UNL     1      -6.263   0.978   1.949  0.00  0.00    -0.080 NA
ATOM     11  O   UNL     1      -6.854  -0.261   1.614  0.00  0.00    -0.334 OA
ATOM     12  C   UNL     1      -5.955  -1.024   0.959  0.00  0.00    +0.260 A 
ATOM     13  N   UNL     1      -6.007  -2.245   0.454  0.00  0.00    -0.209 NA
ATOM     14  C   UNL     1      -4.071   2.157   1.659  0.00  0.00    +0.070 C 
BRANCH   5  19
ATOM     15  C   UNL     1      -4.492  -7.892  -2.514  0.00  0.00    +0.051 C 
ATOM     16  C   UNL     1      -4.866  -6.603  -1.828  0.00  0.00    -0.013 A 
ATOM     17  C   UNL     1      -6.046  -6.253  -1.250  0.00  0.00    +0.011 A 
ATOM     18  C   UNL     1      -6.166  -5.012  -0.669  0.00  0.00    +0.018 A 
ATOM     19  C   UNL     1      -5.090  -4.162  -0.701  0.00  0.00    +0.038 A 
ATOM     20  S   UNL     1      -3.872  -5.144  -1.563  0.00  0.00    -0.092 S 
ENDBRANCH   5  19
ENDBRANCH   1   7
BRANCH   3  21
ATOM     21  C   UNL     1      -0.014   0.056   0.167  0.00  0.00    +0.078 A 
ATOM     22  C   UNL     1       0.041   1.273  -0.496  0.00  0.00    +0.055 A 
ATOM     23  C   UNL     1       1.216   2.001  -0.508  0.00  0.00    +0.107 A 
ATOM     24  C   UNL     1       2.339   1.519   0.140  0.00  0.00    +0.032 A 
ATOM     25  C   UNL     1       2.291   0.307   0.804  0.00  0.00    +0.049 A 
ATOM     26  C   UNL     1       1.118  -0.429   0.820  0.00  0.00    +0.141 A 
BRANCH  23  27
ATOM     27  S   UNL     1       1.284   3.546  -1.352  0.00  0.00    +0.060 S 
ATOM     28  O   UNL     1       2.649   3.772  -1.676  0.00  0.00    -0.153 OA
ATOM     29  O   UNL     1       0.262   3.516  -2.338  0.00  0.00    -0.153 OA
BRANCH  27  30
ATOM     30  N   UNL     1       0.856   4.718  -0.263  0.00  0.00    -0.183 NA
ATOM     31  C   UNL     1       1.883   5.367   0.556  0.00  0.00    +0.131 C 
ATOM     32  C   UNL     1      -0.549   5.106  -0.118  0.00  0.00    +0.131 C 
ENDBRANCH  27  30
ENDBRANCH  23  27
BRANCH  26  33
ATOM     33  O   UNL     1       1.070  -1.621   1.472  0.00  0.00    -0.493 OA
ATOM     34  C   UNL     1       2.268  -2.055   2.119  0.00  0.00    +0.277 C 
ENDBRANCH  26  33
ENDBRANCH   3  21
TORSDOF 6
