REMARK  Name = ZINC43135800
REMARK  7 active torsions:
REMARK  status: ('A' for Active; 'I' for Inactive)
REMARK    1  A    between atoms: C_3  and  C_6
REMARK    2  A    between atoms: C_6  and  C_8
REMARK    3  A    between atoms: C_6  and  N_25
REMARK    4  A    between atoms: C_8  and  N_9
REMARK    5  A    between atoms: N_12  and  C_13
REMARK    6  A    between atoms: C_13  and  C_14
REMARK    7  A    between atoms: C_17  and  N_20
REMARK                            x       y       z     vdW  Elec       q    Type
REMARK                         _______ _______ _______ _____ _____    ______ ____
ROOT
ATOM      1  N   UNL     1       5.600  -0.134   1.208  0.00  0.00    -0.301 N 
ATOM      2  C   UNL     1       6.285  -0.612   2.265  0.00  0.00    +0.300 C 
ATOM      3  O   UNL     1       5.732  -0.744   3.339  0.00  0.00    -0.253 OA
ATOM      4  N   UNL     1       7.585  -0.944   2.131  0.00  0.00    -0.295 N 
ATOM      5  H   UNL     1       6.042  -0.028   0.351  0.00  0.00    +0.150 HD
ATOM      6  H   UNL     1       8.027  -0.838   1.274  0.00  0.00    +0.151 HD
ENDROOT
BRANCH   1   7
ATOM      7  C   UNL     1       4.188   0.227   1.353  0.00  0.00    +0.098 C 
BRANCH   7   8
ATOM      8  C   UNL     1       3.623   0.638  -0.008  0.00  0.00    +0.016 C 
BRANCH   8   9
ATOM      9  N   UNL     1       4.453   1.708  -0.579  0.00  0.00    +0.387 N 
ATOM     10  C   UNL     1       4.443   2.867   0.322  0.00  0.00    -0.078 C 
ATOM     11  C   UNL     1       5.370   3.953  -0.228  0.00  0.00    -0.019 C 
ATOM     12  C   UNL     1       4.882   4.379  -1.615  0.00  0.00    -0.004 C 
ATOM     13  C   UNL     1       4.825   3.149  -2.526  0.00  0.00    -0.019 C 
ATOM     14  C   UNL     1       3.918   2.092  -1.891  0.00  0.00    -0.078 C 
ATOM     15  H   UNL     1       5.400   1.376  -0.687  0.00  0.00    -0.081 HD
ENDBRANCH   8   9
BRANCH   8  18
ATOM     16  C   UNL     1       3.022  -2.316  -2.128  0.00  0.00    +0.041 A 
ATOM     17  C   UNL     1       2.570  -1.326  -1.225  0.00  0.00    +0.043 A 
ATOM     18  C   UNL     1       3.629  -0.550  -0.934  0.00  0.00    +0.093 A 
ATOM     19  O   UNL     1       4.693  -1.015  -1.610  0.00  0.00    -0.469 OA
ATOM     20  C   UNL     1       4.331  -2.085  -2.336  0.00  0.00    +0.195 A 
ENDBRANCH   8  18
ENDBRANCH   7   8
ENDBRANCH   1   7
BRANCH   4  21
ATOM     21  C   UNL     1       8.330  -1.463   3.280  0.00  0.00    +0.141 C 
BRANCH  21  22
ATOM     22  C   UNL     1       9.750  -1.754   2.868  0.00  0.00    -0.030 A 
ATOM     23  C   UNL     1      10.083  -3.002   2.374  0.00  0.00    +0.007 A 
ATOM     24  C   UNL     1      11.384  -3.272   1.996  0.00  0.00    +0.028 A 
ATOM     25  C   UNL     1      12.357  -2.289   2.112  0.00  0.00    +0.065 A 
ATOM     26  C   UNL     1      12.020  -1.037   2.608  0.00  0.00    +0.028 A 
ATOM     27  C   UNL     1      10.716  -0.771   2.979  0.00  0.00    +0.007 A 
BRANCH  25  28
ATOM     28  N   UNL     1      13.678  -2.560   1.729  0.00  0.00    -0.240 N 
ATOM     29  C   UNL     1      14.719  -1.699   1.795  0.00  0.00    +0.114 A 
ATOM     30  C   UNL     1      15.816  -2.343   1.335  0.00  0.00    +0.041 A 
ATOM     31  C   UNL     1      15.435  -3.640   0.976  0.00  0.00    +0.135 A 
ATOM     32  N   UNL     1      14.156  -3.773   1.217  0.00  0.00    -0.175 NA
ENDBRANCH  25  28
ENDBRANCH  21  22
ENDBRANCH   4  21
TORSDOF 7
