REMARK  Name = ZINC49401646
REMARK  7 active torsions:
REMARK  status: ('A' for Active; 'I' for Inactive)
REMARK    1  A    between atoms: C_1  and  C_2
REMARK    2  A    between atoms: C_3  and  C_9
REMARK    3  A    between atoms: C_4  and  C_8
REMARK    4  A    between atoms: N_5  and  C_7
REMARK    5  A    between atoms: C_9  and  C_11
REMARK    6  A    between atoms: C_9  and  N_12
REMARK    7  A    between atoms: C_13  and  C_15
REMARK                            x       y       z     vdW  Elec       q    Type
REMARK                         _______ _______ _______ _____ _____    ______ ____
ROOT
ATOM      1  N   UNL     1       0.955   0.751  -2.726  0.00  0.00    -0.305 N 
ATOM      2  C   UNL     1       1.494   1.003  -3.936  0.00  0.00    +0.245 C 
ATOM      3  O   UNL     1       1.183   0.322  -4.893  0.00  0.00    -0.270 OA
ATOM      4  H   UNL     1       1.203   1.295  -1.962  0.00  0.00    +0.150 HD
ENDROOT
BRANCH   2   5
ATOM      5  C   UNL     1       2.463   2.107  -4.098  0.00  0.00    +0.038 A 
ATOM      6  C   UNL     1       2.826   2.888  -2.999  0.00  0.00    +0.013 A 
ATOM      7  C   UNL     1       3.732   3.917  -3.157  0.00  0.00    +0.002 A 
ATOM      8  C   UNL     1       4.279   4.177  -4.401  0.00  0.00    +0.014 A 
ATOM      9  C   UNL     1       3.923   3.407  -5.494  0.00  0.00    +0.014 A 
ATOM     10  C   UNL     1       3.023   2.370  -5.349  0.00  0.00    +0.027 A 
ATOM     11  I   UNL     1       4.758   3.810  -7.373  0.00  0.00    -0.044 I 
ENDBRANCH   2   5
BRANCH   1  12
ATOM     12  C   UNL     1      -0.006  -0.343  -2.566  0.00  0.00    +0.104 C 
ATOM     13  C   UNL     1      -1.408   0.152  -2.925  0.00  0.00    +0.033 C 
BRANCH  12  16
ATOM     14  C   UNL     1      -0.018   1.503   0.010  0.00  0.00    +0.068 C 
ATOM     15  C   UNL     1       0.002  -0.004   0.002  0.00  0.00    +0.065 A 
ATOM     16  C   UNL     1       0.008  -0.818  -1.135  0.00  0.00    +0.016 A 
ATOM     17  C   UNL     1       0.028  -2.107  -0.725  0.00  0.00    +0.041 A 
ATOM     18  N   UNL     1       0.034  -2.109   0.625  0.00  0.00    -0.271 N 
ATOM     19  N   UNL     1       0.023  -0.777   1.058  0.00  0.00    -0.176 NA
ATOM     20  C   UNL     1       0.055  -3.295   1.485  0.00  0.00    +0.172 C 
ATOM     21  C   UNL     1       0.040  -3.323  -1.615  0.00  0.00    +0.065 C 
ENDBRANCH  12  16
ENDBRANCH   1  12
TORSDOF 3
