REMARK  Name = ZINC40981489
REMARK  14 active torsions:
REMARK  status: ('A' for Active; 'I' for Inactive)
REMARK    1  A    between atoms: C_1  and  C_2
REMARK    2  A    between atoms: C_2  and  C_3
REMARK    3  A    between atoms: C_3  and  O_4
REMARK    4  A    between atoms: O_4  and  C_5
REMARK    5  A    between atoms: C_8  and  C_14
REMARK    6  A    between atoms: C_10  and  O_11
REMARK    7  A    between atoms: O_11  and  C_12
REMARK    8  A    between atoms: C_12  and  C_13
REMARK    9  A    between atoms: C_19  and  C_23
REMARK   10  A    between atoms: C_19  and  C_24
REMARK   11  A    between atoms: C_29  and  S_31
REMARK   12  A    between atoms: S_31  and  C_32
REMARK   13  A    between atoms: C_32  and  C_33
REMARK   14  A    between atoms: C_33  and  C_34
REMARK                            x       y       z     vdW  Elec       q    Type
REMARK                         _______ _______ _______ _____ _____    ______ ____
ROOT
ATOM      1  C   UNL     1       3.349  -4.483   5.547  0.00  0.00    +0.176 C 
ATOM      2  C   UNL     1       2.663  -4.099   6.840  0.00  0.00    +0.041 C 
ATOM      3  C   UNL     1       3.219  -3.240   7.720  0.00  0.00    +0.020 C 
ATOM      4  C   UNL     1       2.511  -2.876   9.003  0.00  0.00    +0.058 C 
ATOM      5  C   UNL     1       0.997  -2.931   8.790  0.00  0.00    -0.023 C 
ATOM      6  C   UNL     1       0.625  -4.346   8.334  0.00  0.00    +0.086 C 
ATOM      7  C   UNL     1       1.406  -4.679   7.093  0.00  0.00    +0.164 C 
ATOM      8  O   UNL     1       0.942  -5.465   6.291  0.00  0.00    -0.292 OA
ATOM      9  C   UNL     1       0.590  -1.920   7.716  0.00  0.00    +0.011 C 
ATOM     10  C   UNL     1       0.279  -2.607  10.102  0.00  0.00    +0.011 C 
ATOM     11  N   UNL     1       4.447  -2.666   7.494  0.00  0.00    -0.287 N 
ATOM     12  C   UNL     1       5.247  -3.210   6.502  0.00  0.00    +0.219 A 
ATOM     13  N   UNL     1       4.746  -4.069   5.584  0.00  0.00    -0.220 N 
ATOM     14  N   UNL     1       5.808  -4.424   4.753  0.00  0.00    -0.141 NA
ATOM     15  C   UNL     1       6.865  -3.776   5.194  0.00  0.00    +0.210 A 
ATOM     16  N   UNL     1       6.517  -3.043   6.253  0.00  0.00    -0.187 NA
ATOM     17  H   UNL     1       4.745  -1.903   8.013  0.00  0.00    +0.155 HD
ENDROOT
BRANCH   1  21
ATOM     18  C   UNL     1       1.386  -2.554   2.274  0.00  0.00    +0.162 A 
ATOM     19  C   UNL     1       1.962  -1.799   3.283  0.00  0.00    +0.050 A 
ATOM     20  C   UNL     1       2.595  -2.425   4.340  0.00  0.00    +0.010 A 
ATOM     21  C   UNL     1       2.656  -3.805   4.393  0.00  0.00    -0.015 A 
ATOM     22  C   UNL     1       2.084  -4.565   3.389  0.00  0.00    +0.055 A 
ATOM     23  C   UNL     1       1.442  -3.944   2.330  0.00  0.00    +0.162 A 
BRANCH  18  24
ATOM     24  O   UNL     1       0.761  -1.940   1.234  0.00  0.00    -0.488 OA
BRANCH  24  25
ATOM     25  C   UNL     1       0.742  -0.511   1.242  0.00  0.00    +0.229 C 
BRANCH  25  27
ATOM     26  C   UNL     1      -0.019   1.526   0.010  0.00  0.00    +0.007 C 
ATOM     27  C   UNL     1       0.002  -0.004   0.002  0.00  0.00    +0.038 C 
ENDBRANCH  25  27
ENDBRANCH  24  25
ENDBRANCH  18  24
BRANCH  23  28
ATOM     28  O   UNL     1       0.874  -4.690   1.346  0.00  0.00    -0.489 OA
BRANCH  28  29
ATOM     29  C   UNL     1       0.971  -6.110   1.470  0.00  0.00    +0.226 C 
ATOM     30  C   UNL     1       0.279  -6.774   0.278  0.00  0.00    +0.048 C 
ENDBRANCH  28  29
ENDBRANCH  23  28
ENDBRANCH   1  21
BRANCH  15  31
ATOM     31  S   UNL     1       8.482  -3.864   4.498  0.00  0.00    -0.084 S 
BRANCH  31  32
ATOM     32  C   UNL     1       9.470  -2.760   5.543  0.00  0.00    +0.077 C 
BRANCH  32  33
ATOM     33  C   UNL     1      10.916  -2.743   5.043  0.00  0.00    +0.008 C 
ATOM     34  C   UNL     1      11.750  -1.812   5.925  0.00  0.00    +0.004 C 
ENDBRANCH  32  33
ENDBRANCH  31  32
ENDBRANCH  15  31
TORSDOF 9
