REMARK  Name = ZINC66557640
REMARK  11 active torsions:
REMARK  status: ('A' for Active; 'I' for Inactive)
REMARK    1  A    between atoms: C_1  and  C_2
REMARK    2  A    between atoms: C_6  and  C_7
REMARK    3  A    between atoms: N_9  and  N_10
REMARK    4  A    between atoms: C_11  and  C_13
REMARK    5  A    between atoms: C_13  and  N_20
REMARK    6  A    between atoms: C_16  and  C_19
REMARK    7  A    between atoms: C_21  and  O_23
REMARK    8  A    between atoms: O_23  and  C_24
REMARK    9  A    between atoms: C_24  and  C_25
REMARK   10  A    between atoms: C_24  and  C_26
REMARK   11  A    between atoms: C_24  and  C_27
REMARK                            x       y       z     vdW  Elec       q    Type
REMARK                         _______ _______ _______ _____ _____    ______ ____
ROOT
ATOM      1  C   UNL     1       0.128  -1.047   7.300  0.00  0.00    +0.115 C 
ATOM      2  C   UNL     1       1.571  -0.672   7.645  0.00  0.00    +0.035 C 
ATOM      3  C   UNL     1       2.452  -1.921   7.581  0.00  0.00    +0.006 C 
ATOM      4  C   UNL     1       1.941  -2.957   8.585  0.00  0.00    -0.014 C 
ATOM      5  C   UNL     1       0.498  -3.332   8.240  0.00  0.00    +0.006 C 
ATOM      6  C   UNL     1      -0.383  -2.083   8.304  0.00  0.00    +0.035 C 
ATOM      7  C   UNL     1       2.822  -4.206   8.521  0.00  0.00    +0.007 C 
ENDROOT
BRANCH   1   9
ATOM      8  N   UNL     1      -1.089  -1.660   5.236  0.00  0.00    -0.232 N 
ATOM      9  C   UNL     1       0.078  -1.627   5.910  0.00  0.00    +0.253 C 
ATOM     10  O   UNL     1       1.087  -2.063   5.399  0.00  0.00    -0.272 OA
ATOM     11  H   UNL     1      -1.909  -1.379   5.670  0.00  0.00    +0.173 HD
BRANCH   8  14
ATOM     12  C   UNL     1      -2.283  -2.135   3.232  0.00  0.00    +0.267 C 
ATOM     13  O   UNL     1      -3.312  -1.782   3.777  0.00  0.00    -0.268 OA
ATOM     14  N   UNL     1      -1.116  -2.102   3.906  0.00  0.00    -0.230 N 
ATOM     15  H   UNL     1      -0.296  -2.383   3.471  0.00  0.00    +0.173 HD
BRANCH  12  21
ATOM     16  C   UNL     1      -4.792  -2.336   1.397  0.00  0.00    +0.045 C 
ATOM     17  C   UNL     1      -3.393  -2.707   0.979  0.00  0.00    -0.031 A 
ATOM     18  C   UNL     1      -3.105  -3.171  -0.282  0.00  0.00    +0.011 A 
ATOM     19  C   UNL     1      -1.823  -3.487  -0.592  0.00  0.00    +0.046 A 
ATOM     20  S   UNL     1      -0.968  -3.165   0.817  0.00  0.00    -0.092 S 
ATOM     21  C   UNL     1      -2.312  -2.597   1.841  0.00  0.00    +0.078 A 
ENDBRANCH  12  21
ENDBRANCH   8  14
ENDBRANCH   1   9
BRANCH   1  22
ATOM     22  N   UNL     1      -0.716   0.149   7.361  0.00  0.00    -0.267 N 
ATOM     23  C   UNL     1      -0.514   1.161   6.494  0.00  0.00    +0.402 C 
ATOM     24  O   UNL     1       0.423   1.121   5.722  0.00  0.00    -0.226 OA
ATOM     25  H   UNL     1      -1.419   0.213   8.026  0.00  0.00    +0.153 HD
BRANCH  23  26
ATOM     26  O   UNL     1      -1.351   2.215   6.483  0.00  0.00    -0.445 OA
BRANCH  26  27
ATOM     27  C   UNL     1      -1.078   3.251   5.537  0.00  0.00    +0.107 C 
ATOM     28  C   UNL     1      -1.124   2.674   4.121  0.00  0.00    +0.055 C 
ATOM     29  C   UNL     1      -2.128   4.356   5.673  0.00  0.00    +0.055 C 
ATOM     30  C   UNL     1       0.312   3.832   5.806  0.00  0.00    +0.055 C 
ENDBRANCH  26  27
ENDBRANCH  23  26
ENDBRANCH   1  22
TORSDOF 6
