REMARK  Name = ZINC09348911
REMARK  9 active torsions:
REMARK  status: ('A' for Active; 'I' for Inactive)
REMARK    1  A    between atoms: C_1  and  C_2
REMARK    2  A    between atoms: C_2  and  O_3
REMARK    3  A    between atoms: O_3  and  C_4
REMARK    4  A    between atoms: C_4  and  C_6
REMARK    5  A    between atoms: C_7  and  C_32
REMARK    6  A    between atoms: C_9  and  N_10
REMARK    7  A    between atoms: C_13  and  C_25
REMARK    8  A    between atoms: C_19  and  C_23
REMARK    9  A    between atoms: C_19  and  C_24
REMARK                            x       y       z     vdW  Elec       q    Type
REMARK                         _______ _______ _______ _____ _____    ______ ____
ROOT
ATOM      1  N   UNL     1       3.381  -3.013  -5.920  0.00  0.00    -0.192 NA
ATOM      2  C   UNL     1       3.736  -1.916  -6.557  0.00  0.00    +0.187 C 
ATOM      3  N   UNL     1       3.459  -0.653  -6.067  0.00  0.00    -0.306 N 
ATOM      4  C   UNL     1       4.592   0.281  -5.998  0.00  0.00    +0.138 C 
ATOM      5  C   UNL     1       5.456   0.116  -7.227  0.00  0.00    +0.037 C 
ATOM      6  C   UNL     1       5.343  -0.970  -8.020  0.00  0.00    +0.020 C 
ATOM      7  N   UNL     1       4.418  -1.947  -7.759  0.00  0.00    -0.290 N 
ATOM      8  C   UNL     1       6.240  -1.148  -9.222  0.00  0.00    +0.058 C 
ATOM      9  C   UNL     1       6.592   0.222  -9.806  0.00  0.00    -0.023 C 
ATOM     10  C   UNL     1       7.284   1.051  -8.719  0.00  0.00    +0.086 C 
ATOM     11  C   UNL     1       6.383   1.133  -7.518  0.00  0.00    +0.163 C 
ATOM     12  O   UNL     1       6.457   2.098  -6.783  0.00  0.00    -0.292 OA
ATOM     13  C   UNL     1       5.314   0.932 -10.259  0.00  0.00    +0.011 C 
ATOM     14  C   UNL     1       7.536   0.046 -10.997  0.00  0.00    +0.011 C 
ATOM     15  H   UNL     1       4.243  -2.646  -8.408  0.00  0.00    +0.154 HD
ATOM     16  H   UNL     1       2.567  -0.397  -5.785  0.00  0.00    +0.150 HD
ENDROOT
BRANCH   1  20
ATOM     17  C   UNL     1       1.427  -2.327  -2.478  0.00  0.00    +0.120 A 
ATOM     18  C   UNL     1       1.642  -3.650  -2.846  0.00  0.00    +0.062 A 
ATOM     19  N   UNL     1       2.273  -3.907  -3.957  0.00  0.00    -0.226 NA
ATOM     20  C   UNL     1       2.717  -2.928  -4.749  0.00  0.00    +0.196 A 
ATOM     21  S   UNL     1       2.193  -1.474  -3.850  0.00  0.00    -0.041 S 
ATOM     22  C   UNL     1       1.152  -4.775  -1.970  0.00  0.00    +0.067 C 
BRANCH  17  23
ATOM     23  C   UNL     1       0.776  -1.801  -1.335  0.00  0.00    +0.348 C 
ATOM     24  O   UNL     1       0.312  -2.553  -0.499  0.00  0.00    -0.244 OA
BRANCH  23  25
ATOM     25  O   UNL     1       0.671  -0.465  -1.174  0.00  0.00    -0.461 OA
BRANCH  25  27
ATOM     26  C   UNL     1      -0.019   1.526   0.010  0.00  0.00    +0.048 C 
ATOM     27  C   UNL     1       0.002  -0.004   0.002  0.00  0.00    +0.229 C 
ENDBRANCH  25  27
ENDBRANCH  23  25
ENDBRANCH  17  23
ENDBRANCH   1  20
BRANCH   4  28
ATOM     28  C   UNL     1       5.409  -0.011  -4.766  0.00  0.00    -0.023 A 
ATOM     29  C   UNL     1       5.646  -1.320  -4.388  0.00  0.00    +0.006 A 
ATOM     30  C   UNL     1       6.396  -1.588  -3.258  0.00  0.00    +0.000 A 
ATOM     31  C   UNL     1       6.909  -0.547  -2.506  0.00  0.00    +0.000 A 
ATOM     32  C   UNL     1       6.672   0.761  -2.884  0.00  0.00    +0.000 A 
ATOM     33  C   UNL     1       5.926   1.029  -4.017  0.00  0.00    +0.006 A 
ENDBRANCH   4  28
TORSDOF 5
