REMARK  Name = ZINC18200394
REMARK  10 active torsions:
REMARK  status: ('A' for Active; 'I' for Inactive)
REMARK    1  A    between atoms: C_1  and  O_2
REMARK    2  A    between atoms: O_2  and  C_3
REMARK    3  A    between atoms: C_5  and  C_13
REMARK    4  A    between atoms: C_7  and  O_11
REMARK    5  A    between atoms: C_8  and  O_9
REMARK    6  A    between atoms: O_9  and  C_10
REMARK    7  A    between atoms: O_11  and  C_12
REMARK    8  A    between atoms: C_18  and  C_26
REMARK    9  A    between atoms: C_29  and  O_32
REMARK   10  A    between atoms: O_32  and  C_33
REMARK                            x       y       z     vdW  Elec       q    Type
REMARK                         _______ _______ _______ _____ _____    ______ ____
ROOT
ATOM      1  C   UNL     1      -1.121   7.130   1.857  0.00  0.00    +0.032 C 
ATOM      2  C   UNL     1      -1.139   7.469   3.349  0.00  0.00    +0.060 C 
ATOM      3  C   UNL     1      -1.213   8.967   3.528  0.00  0.00    +0.020 C 
ATOM      4  C   UNL     1      -0.659   9.802   2.623  0.00  0.00    +0.041 C 
ATOM      5  C   UNL     1      -0.718  11.306   2.775  0.00  0.00    +0.175 C 
ATOM      6  N   UNL     1      -1.131  11.655   4.128  0.00  0.00    -0.221 N 
ATOM      7  C   UNL     1      -1.671  10.765   4.997  0.00  0.00    +0.218 A 
ATOM      8  N   UNL     1      -1.938  11.396   6.107  0.00  0.00    -0.201 NA
ATOM      9  C   UNL     1      -1.580  12.678   5.990  0.00  0.00    +0.247 A 
ATOM     10  N   UNL     1      -1.081  12.879   4.795  0.00  0.00    -0.156 NA
ATOM     11  N   UNL     1      -1.857   9.437   4.648  0.00  0.00    -0.287 N 
ATOM     12  C   UNL     1       0.000   9.300   1.487  0.00  0.00    +0.164 C 
ATOM     13  O   UNL     1       0.508  10.077   0.702  0.00  0.00    -0.292 OA
ATOM     14  C   UNL     1       0.089   7.823   1.220  0.00  0.00    +0.088 C 
ATOM     15  H   UNL     1      -2.425   8.856   5.178  0.00  0.00    +0.155 HD
ENDROOT
BRANCH   1  18
ATOM     16  C   UNL     1       0.202   3.593   2.026  0.00  0.00    +0.165 A 
ATOM     17  C   UNL     1       0.093   4.967   2.185  0.00  0.00    +0.053 A 
ATOM     18  C   UNL     1      -1.003   5.638   1.678  0.00  0.00    -0.036 A 
ATOM     19  C   UNL     1      -1.993   4.945   1.006  0.00  0.00    +0.053 A 
ATOM     20  C   UNL     1      -1.889   3.572   0.838  0.00  0.00    +0.165 A 
ATOM     21  C   UNL     1      -0.787   2.894   1.346  0.00  0.00    +0.204 A 
BRANCH  16  23
ATOM     22  C   UNL     1       2.257   3.716   3.217  0.00  0.00    +0.277 C 
ATOM     23  O   UNL     1       1.279   2.933   2.530  0.00  0.00    -0.491 OA
ENDBRANCH  16  23
BRANCH  21  24
ATOM     24  O   UNL     1      -0.682   1.547   1.184  0.00  0.00    -0.488 OA
ATOM     25  C   UNL     1      -0.013   1.086   0.008  0.00  0.00    +0.277 C 
ENDBRANCH  21  24
BRANCH  20  26
ATOM     26  O   UNL     1      -2.863   2.891   0.178  0.00  0.00    -0.491 OA
ATOM     27  C   UNL     1      -3.966   3.654  -0.317  0.00  0.00    +0.277 C 
ENDBRANCH  20  26
ENDBRANCH   1  18
BRANCH   5  28
ATOM     28  C   UNL     1      -1.707  11.870   1.788  0.00  0.00    -0.018 A 
ATOM     29  C   UNL     1      -3.033  11.480   1.841  0.00  0.00    +0.009 A 
ATOM     30  C   UNL     1      -3.943  12.000   0.941  0.00  0.00    +0.046 A 
ATOM     31  C   UNL     1      -3.524  12.905  -0.023  0.00  0.00    +0.130 A 
ATOM     32  C   UNL     1      -2.192  13.291  -0.077  0.00  0.00    +0.046 A 
ATOM     33  C   UNL     1      -1.287  12.773   0.829  0.00  0.00    +0.009 A 
BRANCH  31  34
ATOM     34  O   UNL     1      -4.416  13.413  -0.913  0.00  0.00    -0.406 OA
BRANCH  34  35
ATOM     35  C   UNL     1      -5.770  12.972  -0.799  0.00  0.00    +0.575 C 
ATOM     36  F   UNL     1      -6.266  13.311   0.465  0.00  0.00    -0.133 F 
ATOM     37  F   UNL     1      -6.547  13.588  -1.785  0.00  0.00    -0.133 F 
ATOM     38  F   UNL     1      -5.823  11.583  -0.964  0.00  0.00    -0.133 F 
ENDBRANCH  34  35
ENDBRANCH  31  34
ENDBRANCH   5  28
TORSDOF 7
