REMARK  Name = ZINC43511121
REMARK  10 active torsions:
REMARK  status: ('A' for Active; 'I' for Inactive)
REMARK    1  A    between atoms: C_1  and  C_2
REMARK    2  A    between atoms: C_4  and  O_32
REMARK    3  A    between atoms: C_7  and  C_31
REMARK    4  A    between atoms: C_12  and  C_18
REMARK    5  A    between atoms: C_15  and  O_17
REMARK    6  A    between atoms: C_25  and  O_30
REMARK    7  A    between atoms: C_27  and  C_28
REMARK    8  A    between atoms: C_27  and  O_29
REMARK    9  A    between atoms: O_32  and  C_33
REMARK   10  A    between atoms: C_33  and  C_35
REMARK                            x       y       z     vdW  Elec       q    Type
REMARK                         _______ _______ _______ _____ _____    ______ ____
ROOT
ATOM      1  C   UNL     1      -0.019   1.527   0.010  0.00  0.00    +0.012 C 
ATOM      2  C   UNL     1       0.002  -0.004   0.002  0.00  0.00    +0.038 C 
ATOM      3  C   UNL     1      -1.434  -0.527  -0.037  0.00  0.00    +0.181 C 
ATOM      4  C   UNL     1      -2.176  -0.126   1.239  0.00  0.00    +0.054 C 
ATOM      5  C   UNL     1      -1.486  -0.741   2.459  0.00  0.00    +0.006 C 
ATOM      6  C   UNL     1      -0.022  -0.337   2.503  0.00  0.00    +0.009 C 
ATOM      7  C   UNL     1       0.746  -0.540   1.215  0.00  0.00    +0.034 C 
ATOM      8  C   UNL     1       1.192  -1.994   0.980  0.00  0.00    +0.049 C 
ATOM      9  C   UNL     1       2.511  -2.100   1.787  0.00  0.00    +0.155 C 
ATOM     10  O   UNL     1       2.971  -0.761   2.020  0.00  0.00    -0.343 OA
ATOM     11  C   UNL     1       2.121   0.168   1.328  0.00  0.00    +0.255 C 
ATOM     12  C   UNL     1       0.670  -1.002   3.694  0.00  0.00    +0.007 C 
ATOM     13  C   UNL     1       0.001  -0.518   4.983  0.00  0.00    +0.034 C 
ATOM     14  C   UNL     1      -1.487  -0.850   4.974  0.00  0.00    +0.146 C 
ATOM     15  C   UNL     1      -2.190  -0.281   3.742  0.00  0.00    +0.095 C 
ATOM     16  C   UNL     1      -2.244   1.241   3.838  0.00  0.00    +0.044 C 
ATOM     17  C   UNL     1      -1.663  -2.264   2.382  0.00  0.00    +0.014 C 
ENDROOT
BRANCH   9  18
ATOM     18  C   UNL     1       3.536  -2.883   1.008  0.00  0.00    +0.019 A 
ATOM     19  C   UNL     1       3.801  -4.268   1.118  0.00  0.00    +0.047 A 
ATOM     20  C   UNL     1       4.785  -4.547   0.245  0.00  0.00    +0.195 A 
ATOM     21  O   UNL     1       5.128  -3.412  -0.385  0.00  0.00    -0.471 OA
ATOM     22  C   UNL     1       4.370  -2.401   0.070  0.00  0.00    +0.201 A 
ENDBRANCH   9  18
BRANCH  11  23
ATOM     23  O   UNL     1       2.657   0.414   0.028  0.00  0.00    -0.366 OA
ATOM     24  H   UNL     1       3.518   0.856   0.035  0.00  0.00    +0.212 HD
ENDBRANCH  11  23
BRANCH  15  25
ATOM     25  O   UNL     1      -3.536  -0.784   3.717  0.00  0.00    -0.386 OA
ATOM     26  H   UNL     1      -4.061  -0.543   4.493  0.00  0.00    +0.210 HD
ENDBRANCH  15  25
BRANCH  14  27
ATOM     27  O   UNL     1      -2.093  -0.288   6.149  0.00  0.00    -0.389 OA
ATOM     28  H   UNL     1      -1.725  -0.621   6.978  0.00  0.00    +0.210 HD
ENDBRANCH  14  27
BRANCH   3  29
ATOM     29  O   UNL     1      -2.108   0.047  -1.166  0.00  0.00    -0.461 OA
BRANCH  29  30
ATOM     30  C   UNL     1      -3.079  -0.686  -1.733  0.00  0.00    +0.304 C 
ATOM     31  O   UNL     1      -3.351  -1.776  -1.289  0.00  0.00    -0.251 OA
ATOM     32  C   UNL     1      -3.832  -0.148  -2.923  0.00  0.00    +0.136 C 
ENDBRANCH  29  30
ENDBRANCH   3  29
TORSDOF 6
