REMARK  Name = ZINC48760077
REMARK  4 active torsions:
REMARK  status: ('A' for Active; 'I' for Inactive)
REMARK    1  A    between atoms: C_1  and  C_2
REMARK    2  A    between atoms: C_7  and  S_10
REMARK    3  A    between atoms: S_10  and  C_11
REMARK    4  A    between atoms: C_16  and  N_17
REMARK                            x       y       z     vdW  Elec       q    Type
REMARK                         _______ _______ _______ _____ _____    ______ ____
ROOT
ATOM      1  S   UNL     1       0.259   2.555  -4.883  0.00  0.00    -0.049 S 
ENDROOT
BRANCH   1   8
ATOM      2  C   UNL     1      -0.045   0.510  -0.205  0.00  0.00    +0.066 C 
ATOM      3  C   UNL     1      -0.769   1.131  -1.372  0.00  0.00    +0.046 A 
ATOM      4  C   UNL     1      -2.123   1.295  -1.324  0.00  0.00    +0.093 A 
ATOM      5  C   UNL     1      -2.777   1.876  -2.425  0.00  0.00    +0.252 A 
ATOM      6  O   UNL     1      -3.987   2.038  -2.415  0.00  0.00    -0.268 OA
ATOM      7  N   UNL     1      -2.042   2.251  -3.493  0.00  0.00    -0.302 N 
ATOM      8  C   UNL     1      -0.693   2.062  -3.484  0.00  0.00    +0.174 A 
ATOM      9  N   UNL     1      -0.087   1.522  -2.445  0.00  0.00    -0.228 NA
ATOM     10  H   UNL     1      -2.472   2.654  -4.263  0.00  0.00    +0.171 HD
ENDBRANCH   1   8
BRANCH   1  11
ATOM     11  C   UNL     1       1.926   2.281  -4.381  0.00  0.00    +0.046 A 
ATOM     12  C   UNL     1       2.619   1.170  -4.846  0.00  0.00    +0.018 A 
ATOM     13  C   UNL     1       3.925   0.958  -4.451  0.00  0.00    +0.016 A 
ATOM     14  C   UNL     1       4.544   1.851  -3.594  0.00  0.00    +0.020 A 
ATOM     15  C   UNL     1       3.856   2.958  -3.129  0.00  0.00    +0.049 A 
ATOM     16  C   UNL     1       2.552   3.179  -3.526  0.00  0.00    +0.141 A 
ATOM     17 BR   UNL     1       6.333   1.557  -3.056  0.00  0.00    -0.050 Br
BRANCH  16  18
ATOM     18  N   UNL     1       1.819   4.367  -3.034  0.00  0.00    +0.058 N 
ATOM     19  O   UNL     1       2.364   5.148  -2.289  0.00  0.00    -0.126 OA
ATOM     20  O   UNL     1       0.675   4.557  -3.377  0.00  0.00    -0.126 OA
ENDBRANCH  16  18
ENDBRANCH   1  11
TORSDOF 3
