REMARK  Name = ZINC34791905
REMARK  8 active torsions:
REMARK  status: ('A' for Active; 'I' for Inactive)
REMARK    1  A    between atoms: C_2  and  C_3
REMARK    2  A    between atoms: C_3  and  N_4
REMARK    3  A    between atoms: C_7  and  C_12
REMARK    4  A    between atoms: N_21  and  C_23
REMARK    5  A    between atoms: C_23  and  C_25
REMARK    6  A    between atoms: C_23  and  C_32
REMARK    7  A    between atoms: C_25  and  C_26
REMARK    8  A    between atoms: N_34  and  C_35
REMARK                            x       y       z     vdW  Elec       q    Type
REMARK                         _______ _______ _______ _____ _____    ______ ____
ROOT
ATOM      1  N   UNL     1      -1.318  -1.700  -1.126  0.00  0.00    -0.253 N 
ATOM      2  C   UNL     1      -1.835  -1.255  -2.309  0.00  0.00    +0.043 C 
ATOM      3  C   UNL     1      -1.887  -2.054  -3.394  0.00  0.00    +0.058 C 
ATOM      4  C   UNL     1      -1.352  -3.465  -3.256  0.00  0.00    +0.142 C 
ATOM      5  N   UNL     1      -0.816  -3.849  -1.939  0.00  0.00    -0.288 N 
ATOM      6  C   UNL     1      -0.827  -2.933  -0.949  0.00  0.00    +0.307 C 
ATOM      7  O   UNL     1      -0.383  -3.239   0.140  0.00  0.00    -0.252 OA
ATOM      8  C   UNL     1      -2.460  -1.366  -4.483  0.00  0.00    +0.247 C 
ATOM      9  O   UNL     1      -2.631  -1.847  -5.588  0.00  0.00    -0.270 OA
ATOM     10  N   UNL     1      -2.795  -0.109  -4.141  0.00  0.00    -0.280 N 
ATOM     11  C   UNL     1      -2.427   0.072  -2.729  0.00  0.00    +0.160 C 
ATOM     12  H   UNL     1      -0.459  -4.738  -1.788  0.00  0.00    +0.151 HD
ENDROOT
BRANCH   4  13
ATOM     13  C   UNL     1      -0.257  -3.649  -4.274  0.00  0.00    -0.022 A 
ATOM     14  C   UNL     1       1.013  -3.164  -4.018  0.00  0.00    +0.007 A 
ATOM     15  C   UNL     1       2.018  -3.333  -4.952  0.00  0.00    +0.020 A 
ATOM     16  C   UNL     1       1.754  -3.985  -6.143  0.00  0.00    +0.041 A 
ATOM     17  C   UNL     1       0.483  -4.470  -6.398  0.00  0.00    +0.020 A 
ATOM     18  C   UNL     1      -0.520  -4.306  -5.461  0.00  0.00    +0.007 A 
ATOM     19 CL   UNL     1       3.015  -4.196  -7.316  0.00  0.00    -0.084 Cl
ENDBRANCH   4  13
BRANCH   1  20
ATOM     20  C   UNL     1      -1.293  -0.775   0.010  0.00  0.00    +0.141 C 
BRANCH  20  22
ATOM     21  C   UNL     1      -0.016   1.306   0.009  0.00  0.00    +0.005 C 
ATOM     22  C   UNL     1       0.002  -0.004   0.002  0.00  0.00    -0.015 C 
ENDBRANCH  20  22
ENDBRANCH   1  20
BRANCH  10  23
ATOM     23  C   UNL     1      -3.412   0.894  -5.014  0.00  0.00    +0.167 C 
BRANCH  23  24
ATOM     24  C   UNL     1      -4.740   0.381  -5.507  0.00  0.00    +0.234 C 
ATOM     25  O   UNL     1      -5.133  -0.714  -5.164  0.00  0.00    -0.274 OA
ATOM     26  N   UNL     1      -5.492   1.139  -6.330  0.00  0.00    -0.311 N 
ATOM     27  H   UNL     1      -5.178   2.015  -6.604  0.00  0.00    +0.149 HD
BRANCH  26  28
ATOM     28  C   UNL     1      -6.783   0.641  -6.809  0.00  0.00    +0.073 C 
ATOM     29  C   UNL     1      -6.566  -0.229  -8.049  0.00  0.00    +0.022 C 
ATOM     30  C   UNL     1      -7.915  -0.749  -8.550  0.00  0.00    +0.002 C 
ATOM     31  C   UNL     1      -8.816   0.434  -8.909  0.00  0.00    +0.000 C 
ATOM     32  C   UNL     1      -9.034   1.304  -7.669  0.00  0.00    +0.002 C 
ATOM     33  C   UNL     1      -7.685   1.824  -7.168  0.00  0.00    +0.022 C 
ENDBRANCH  26  28
ENDBRANCH  23  24
BRANCH  23  34
ATOM     34  C   UNL     1      -2.494   1.165  -6.208  0.00  0.00    +0.067 C 
BRANCH  34  35
ATOM     35  C   UNL     1      -1.212   1.792  -5.724  0.00  0.00    -0.045 A 
ATOM     36  C   UNL     1      -1.111   3.166  -5.622  0.00  0.00    +0.004 A 
ATOM     37  C   UNL     1       0.065   3.742  -5.178  0.00  0.00    +0.000 A 
ATOM     38  C   UNL     1       1.140   2.942  -4.836  0.00  0.00    +0.000 A 
ATOM     39  C   UNL     1       1.038   1.567  -4.936  0.00  0.00    +0.000 A 
ATOM     40  C   UNL     1      -0.140   0.992  -5.376  0.00  0.00    +0.004 A 
ENDBRANCH  34  35
ENDBRANCH  23  34
ENDBRANCH  10  23
TORSDOF 8
