REMARK  Name = ZINC62440541
REMARK  9 active torsions:
REMARK  status: ('A' for Active; 'I' for Inactive)
REMARK    1  A    between atoms: C_1  and  N_2
REMARK    2  A    between atoms: N_2  and  C_3
REMARK    3  A    between atoms: N_2  and  C_4
REMARK    4  A    between atoms: C_4  and  C_6
REMARK    5  A    between atoms: C_4  and  C_17
REMARK    6  A    between atoms: C_6  and  N_7
REMARK    7  A    between atoms: N_7  and  S_8
REMARK    8  A    between atoms: S_8  and  N_11
REMARK    9  A    between atoms: N_11  and  C_12
REMARK                            x       y       z     vdW  Elec       q    Type
REMARK                         _______ _______ _______ _____ _____    ______ ____
ROOT
ATOM      1  C   UNL     1       0.349  -0.204  -1.325  0.00  0.00    -0.023 C 
ENDROOT
BRANCH   1   2
ATOM      2  C   UNL     1       1.826   0.097  -1.311  0.00  0.00    -0.056 A 
ATOM      3  C   UNL     1       2.576  -0.180  -0.182  0.00  0.00    +0.006 A 
ATOM      4  C   UNL     1       3.930   0.094  -0.165  0.00  0.00    +0.050 A 
ATOM      5  C   UNL     1       4.540   0.648  -1.279  0.00  0.00    +0.166 A 
ATOM      6  C   UNL     1       3.785   0.927  -2.415  0.00  0.00    +0.166 A 
ATOM      7  C   UNL     1       2.429   0.644  -2.428  0.00  0.00    +0.051 A 
ATOM      8  O   UNL     1       4.607   1.461  -3.365  0.00  0.00    -0.453 OA
ATOM      9  C   UNL     1       5.788   1.885  -2.657  0.00  0.00    +0.466 C 
ATOM     10  O   UNL     1       5.836   1.008  -1.516  0.00  0.00    -0.453 OA
ENDBRANCH   1   2
BRANCH   1  12
ATOM     11  C   UNL     1       0.013   1.575   0.249  0.00  0.00    -0.096 C 
ATOM     12  N   UNL     1      -0.236   0.153  -0.026  0.00  0.00    +0.381 N 
ATOM     13  C   UNL     1      -1.683  -0.093  -0.056  0.00  0.00    -0.096 C 
ATOM     14  H   UNL     1       0.186  -0.408   0.699  0.00  0.00    -0.082 HD
ENDBRANCH   1  12
BRANCH   1  15
ATOM     15  C   UNL     1       0.136  -1.696  -1.587  0.00  0.00    +0.096 C 
BRANCH  15  16
ATOM     16  N   UNL     1       0.616  -2.029  -2.931  0.00  0.00    -0.181 NA
ATOM     17  H   UNL     1       0.789  -1.323  -3.573  0.00  0.00    +0.149 HD
BRANCH  16  18
ATOM     18  S   UNL     1       0.862  -3.611  -3.354  0.00  0.00    +0.095 S 
ATOM     19  O   UNL     1       1.295  -3.607  -4.707  0.00  0.00    -0.141 OA
ATOM     20  O   UNL     1       1.629  -4.195  -2.310  0.00  0.00    -0.141 OA
BRANCH  18  21
ATOM     21  N   UNL     1      -0.615  -4.360  -3.331  0.00  0.00    -0.177 NA
ATOM     22  H   UNL     1      -0.792  -5.064  -2.688  0.00  0.00    +0.149 HD
BRANCH  21  23
ATOM     23  C   UNL     1      -1.654  -3.958  -4.282  0.00  0.00    +0.078 C 
ATOM     24  C   UNL     1      -1.671  -4.924  -5.485  0.00  0.00    +0.020 C 
ATOM     25  C   UNL     1      -2.773  -5.953  -5.131  0.00  0.00    +0.002 C 
ATOM     26  C   UNL     1      -3.851  -5.077  -4.445  0.00  0.00    +0.002 C 
ATOM     27  C   UNL     1      -3.040  -4.056  -3.621  0.00  0.00    +0.020 C 
ENDBRANCH  21  23
ENDBRANCH  18  21
ENDBRANCH  16  18
ENDBRANCH  15  16
ENDBRANCH   1  15
TORSDOF 7
