REMARK  Name = ZINC01603449
REMARK  7 active torsions:
REMARK  status: ('A' for Active; 'I' for Inactive)
REMARK    1  A    between atoms: C_1  and  C_2
REMARK    2  A    between atoms: C_7  and  C_15
REMARK    3  A    between atoms: C_7  and  C_16
REMARK    4  A    between atoms: C_8  and  C_9
REMARK    5  A    between atoms: C_8  and  O_14
REMARK    6  A    between atoms: C_10  and  C_11
REMARK    7  A    between atoms: C_11  and  C_13
REMARK                            x       y       z     vdW  Elec       q    Type
REMARK                         _______ _______ _______ _____ _____    ______ ____
ROOT
ATOM      1  C   UNL     1       0.006   1.454   2.508  0.00  0.00    +0.011 C 
ATOM      2  C   UNL     1      -0.734   1.961   1.269  0.00  0.00    +0.030 C 
ATOM      3  C   UNL     1      -2.169   1.432   1.280  0.00  0.00    +0.007 C 
ATOM      4  C   UNL     1      -2.909   1.938   0.040  0.00  0.00    +0.001 C 
ATOM      5  C   UNL     1      -2.193   1.445  -1.219  0.00  0.00    +0.010 C 
ATOM      6  C   UNL     1      -0.758   1.975  -1.229  0.00  0.00    +0.005 C 
ATOM      7  C   UNL     1      -0.018   1.468   0.010  0.00  0.00    +0.134 C 
ATOM      8  C   UNL     1      -0.779   3.504  -1.221  0.00  0.00    +0.015 C 
ATOM      9  C   UNL     1      -0.042   1.481  -2.488  0.00  0.00    +0.015 C 
ENDROOT
BRANCH   7  10
ATOM     10  C   UNL     1       0.002  -0.004   0.002  0.00  0.00    -0.059 C 
ATOM     11  C   UNL     1       0.018  -1.178  -0.004  0.00  0.00    -0.026 C 
BRANCH  11  12
ATOM     12  C   UNL     1       0.037  -2.610  -0.012  0.00  0.00    +0.203 C 
ATOM     13  O   UNL     1      -1.005  -3.231  -0.006  0.00  0.00    -0.283 OA
ATOM     14  C   UNL     1       1.353  -3.345  -0.029  0.00  0.00    +0.101 C 
ENDBRANCH  11  12
ENDBRANCH   7  10
BRANCH   7  15
ATOM     15  O   UNL     1       1.323   1.962   0.000  0.00  0.00    -0.376 OA
ATOM     16  H   UNL     1       1.852   1.680   0.758  0.00  0.00    +0.211 HD
ENDBRANCH   7  15
TORSDOF 3
