REMARK  Name = ZINC28560724
REMARK  6 active torsions:
REMARK  status: ('A' for Active; 'I' for Inactive)
REMARK    1  A    between atoms: C_1  and  C_2
REMARK    2  A    between atoms: N_7  and  C_10
REMARK    3  A    between atoms: C_10  and  C_12
REMARK    4  A    between atoms: C_10  and  C_13
REMARK    5  A    between atoms: N_18  and  C_21
REMARK    6  A    between atoms: N_22  and  C_24
REMARK                            x       y       z     vdW  Elec       q    Type
REMARK                         _______ _______ _______ _____ _____    ______ ____
ROOT
ATOM      1  C   UNL     1       0.006   2.702   1.446  0.00  0.00    +0.070 C 
ATOM      2  C   UNL     1       1.407   2.806   0.901  0.00  0.00    +0.088 A 
ATOM      3  C   UNL     1       2.303   1.733   0.728  0.00  0.00    +0.141 A 
ATOM      4  C   UNL     1       3.483   2.269   0.200  0.00  0.00    +0.155 A 
ATOM      5  C   UNL     1       4.567   1.398  -0.075  0.00  0.00    +0.296 A 
ATOM      6  O   UNL     1       5.611   1.825  -0.536  0.00  0.00    -0.264 OA
ATOM      7  N   UNL     1       4.410   0.081   0.186  0.00  0.00    -0.197 N 
ATOM      8  N   UNL     1       3.202  -0.388   0.714  0.00  0.00    -0.061 NA
ATOM      9  N   UNL     1       2.218   0.401   0.964  0.00  0.00    -0.127 NA
ATOM     10  N   UNL     1       3.288   3.612   0.067  0.00  0.00    -0.260 N 
ATOM     11  N   UNL     1       1.992   3.906   0.511  0.00  0.00    -0.174 NA
ATOM     12  C   UNL     1       4.262   4.577  -0.449  0.00  0.00    +0.173 C 
ENDROOT
BRANCH   7  13
ATOM     13  C   UNL     1       5.504  -0.855  -0.084  0.00  0.00    +0.195 C 
ATOM     14  C   UNL     1       5.040  -1.904  -1.096  0.00  0.00    +0.043 C 
BRANCH  13  15
ATOM     15  C   UNL     1       5.908  -1.538   1.198  0.00  0.00    +0.240 C 
ATOM     16  O   UNL     1       5.160  -1.529   2.152  0.00  0.00    -0.273 OA
ATOM     17  N   UNL     1       7.102  -2.159   1.283  0.00  0.00    -0.297 N 
ATOM     18  C   UNL     1       8.069  -2.091   0.177  0.00  0.00    +0.123 C 
ATOM     19  C   UNL     1       9.424  -1.646   0.749  0.00  0.00    +0.103 C 
ATOM     20  N   UNL     1       9.803  -2.541   1.850  0.00  0.00    -0.302 NA
ATOM     21  C   UNL     1       8.845  -2.454   2.961  0.00  0.00    +0.103 C 
ATOM     22  C   UNL     1       7.469  -2.927   2.482  0.00  0.00    +0.123 C 
ATOM     23  C   UNL     1      11.170  -2.261   2.310  0.00  0.00    +0.105 C 
ENDBRANCH  13  15
ENDBRANCH   7  13
TORSDOF 2
