REMARK  Name = ZINC49473223
REMARK  7 active torsions:
REMARK  status: ('A' for Active; 'I' for Inactive)
REMARK    1  A    between atoms: C_1  and  C_2
REMARK    2  A    between atoms: C_2  and  C_3
REMARK    3  A    between atoms: C_2  and  C_4
REMARK    4  A    between atoms: C_14  and  N_16
REMARK    5  A    between atoms: C_17  and  C_19
REMARK    6  A    between atoms: C_25  and  O_30
REMARK    7  A    between atoms: O_30  and  C_31
REMARK                            x       y       z     vdW  Elec       q    Type
REMARK                         _______ _______ _______ _____ _____    ______ ____
ROOT
ATOM      1  N   UNL     1      -0.235   1.159  -6.484  0.00  0.00    -0.281 N 
ATOM      2  C   UNL     1       0.281   0.468  -7.520  0.00  0.00    +0.255 C 
ATOM      3  O   UNL     1       0.944  -0.530  -7.315  0.00  0.00    -0.270 OA
ATOM      4  H   UNL     1      -0.825   1.911  -6.648  0.00  0.00    +0.155 HD
ENDROOT
BRANCH   1  15
ATOM      5  C   UNL     1       1.025  -0.318  -1.204  0.00  0.00    -0.031 A 
ATOM      6  C   UNL     1       2.265  -0.815  -0.961  0.00  0.00    +0.074 A 
ATOM      7  C   UNL     1       3.197  -0.944  -2.011  0.00  0.00    +0.249 A 
ATOM      8  O   UNL     1       4.304  -1.393  -1.770  0.00  0.00    -0.268 OA
ATOM      9  N   UNL     1       2.894  -0.586  -3.271  0.00  0.00    -0.322 N 
ATOM     10  H   UNL     1       3.559  -0.689  -3.970  0.00  0.00    +0.169 HD
ATOM     11  C   UNL     1       1.652  -0.075  -3.584  0.00  0.00    +0.051 A 
ATOM     12  C   UNL     1       0.683   0.070  -2.572  0.00  0.00    +0.002 A 
ATOM     13  C   UNL     1      -0.582   0.584  -2.882  0.00  0.00    +0.012 A 
ATOM     14  C   UNL     1      -0.873   0.938  -4.167  0.00  0.00    +0.024 A 
ATOM     15  C   UNL     1       0.080   0.792  -5.176  0.00  0.00    +0.036 A 
ATOM     16  C   UNL     1       1.341   0.295  -4.886  0.00  0.00    +0.049 A 
BRANCH   5  18
ATOM     17  C   UNL     1      -1.009  -1.303  -0.183  0.00  0.00    +0.012 C 
ATOM     18  C   UNL     1       0.021  -0.176  -0.089  0.00  0.00    +0.014 C 
ATOM     19  C   UNL     1       0.741  -0.253   1.259  0.00  0.00    +0.012 C 
ENDBRANCH   5  18
ENDBRANCH   1  15
BRANCH   2  20
ATOM     20  C   UNL     1       0.040   0.923  -8.900  0.00  0.00    +0.122 A 
ATOM     21  C   UNL     1       0.553   0.229  -9.988  0.00  0.00    +0.032 A 
ATOM     22  C   UNL     1       0.307   0.746 -11.286  0.00  0.00    +0.022 A 
ATOM     23  C   UNL     1       0.623  -0.009 -12.425  0.00  0.00    +0.012 A 
ATOM     24  C   UNL     1       0.343   0.482 -13.667  0.00  0.00    +0.004 A 
ATOM     25  C   UNL     1      -0.247   1.730 -13.817  0.00  0.00    +0.049 A 
ATOM     26  C   UNL     1      -0.551   2.502 -12.710  0.00  0.00    +0.163 A 
ATOM     27  C   UNL     1      -0.266   2.022 -11.434  0.00  0.00    +0.180 A 
ATOM     28  O   UNL     1      -0.519   2.785 -10.342  0.00  0.00    -0.418 OA
ATOM     29  C   UNL     1      -0.759   2.129  -9.181  0.00  0.00    +0.350 A 
ATOM     30  O   UNL     1      -1.601   2.523  -8.396  0.00  0.00    -0.244 OA
BRANCH  26  31
ATOM     31  O   UNL     1      -1.124   3.725 -12.868  0.00  0.00    -0.491 OA
ATOM     32  C   UNL     1      -1.386   4.151 -14.206  0.00  0.00    +0.277 C 
ENDBRANCH  26  31
ENDBRANCH   2  20
TORSDOF 4
