REMARK  Name = ZINC12420142
REMARK  7 active torsions:
REMARK  status: ('A' for Active; 'I' for Inactive)
REMARK    1  A    between atoms: C_1  and  O_2
REMARK    2  A    between atoms: O_2  and  C_3
REMARK    3  A    between atoms: C_6  and  C_13
REMARK    4  A    between atoms: C_7  and  O_11
REMARK    5  A    between atoms: C_8  and  O_9
REMARK    6  A    between atoms: O_9  and  C_10
REMARK    7  A    between atoms: O_11  and  C_12
REMARK                            x       y       z     vdW  Elec       q    Type
REMARK                         _______ _______ _______ _____ _____    ______ ____
ROOT
ATOM      1  C   UNL     1       2.497   3.946   0.221  0.00  0.00    +0.072 C 
ATOM      2  C   UNL     1       3.144   3.681   1.589  0.00  0.00    +0.109 C 
ATOM      3  C   UNL     1       3.817   2.337   1.602  0.00  0.00    +0.219 C 
ATOM      4  O   UNL     1       3.760   1.675   2.617  0.00  0.00    -0.275 OA
ATOM      5  N   UNL     1       4.478   1.834   0.546  0.00  0.00    -0.270 N 
ATOM      6  C   UNL     1       4.375   2.498  -0.707  0.00  0.00    +0.138 A 
ATOM      7  C   UNL     1       3.440   3.486  -0.835  0.00  0.00    +0.041 A 
ATOM      8  S   UNL     1       3.664   4.016  -2.507  0.00  0.00    -0.055 S 
ATOM      9  C   UNL     1       4.939   2.906  -2.915  0.00  0.00    +0.158 A 
ATOM     10  N   UNL     1       5.100   2.237  -1.788  0.00  0.00    -0.210 NA
ATOM     11  N   UNL     1       5.614   2.760  -4.117  0.00  0.00    -0.337 N 
ATOM     12  H   UNL     1       5.015   1.032   0.636  0.00  0.00    +0.156 HD
ATOM     13  H   UNL     1       6.311   2.092  -4.204  0.00  0.00    +0.144 HD
ATOM     14  H   UNL     1       5.388   3.327  -4.871  0.00  0.00    +0.144 HD
ENDROOT
BRANCH   1  18
ATOM     15  C   UNL     1      -1.177   1.774  -0.085  0.00  0.00    +0.165 A 
ATOM     16  C   UNL     1       0.017   1.100   0.122  0.00  0.00    +0.050 A 
ATOM     17  C   UNL     1       1.202   1.804   0.218  0.00  0.00    +0.011 A 
ATOM     18  C   UNL     1       1.202   3.183   0.115  0.00  0.00    +0.007 A 
ATOM     19  C   UNL     1       0.012   3.865  -0.087  0.00  0.00    +0.169 A 
ATOM     20  C   UNL     1      -1.183   3.160  -0.185  0.00  0.00    +0.204 A 
BRANCH  15  22
ATOM     21  C   UNL     1      -2.262  -0.343  -0.068  0.00  0.00    +0.277 C 
ATOM     22  O   UNL     1      -2.342   1.079  -0.185  0.00  0.00    -0.491 OA
ENDBRANCH  15  22
BRANCH  20  23
ATOM     23  O   UNL     1      -2.353   3.825  -0.383  0.00  0.00    -0.488 OA
ATOM     24  C   UNL     1      -3.073   4.232   0.783  0.00  0.00    +0.277 C 
ENDBRANCH  20  23
BRANCH  19  25
ATOM     25  O   UNL     1       0.012   5.221  -0.189  0.00  0.00    -0.491 OA
ATOM     26  C   UNL     1       0.058   5.772  -1.506  0.00  0.00    +0.277 C 
ENDBRANCH  19  25
ENDBRANCH   1  18
TORSDOF 4
