REMARK  Name = ZINC64896906
REMARK  6 active torsions:
REMARK  status: ('A' for Active; 'I' for Inactive)
REMARK    1  A    between atoms: C_1  and  C_2
REMARK    2  A    between atoms: C_2  and  C_3
REMARK    3  A    between atoms: C_5  and  C_21
REMARK    4  A    between atoms: C_6  and  C_8
REMARK    5  A    between atoms: N_10  and  C_11
REMARK    6  A    between atoms: C_13  and  N_18
REMARK                            x       y       z     vdW  Elec       q    Type
REMARK                         _______ _______ _______ _____ _____    ______ ____
ROOT
ATOM      1  C   UNL     1      -5.120  -1.906   0.956  0.00  0.00    +0.257 C 
ATOM      2  O   UNL     1      -6.000  -2.224   0.179  0.00  0.00    -0.269 OA
ATOM      3  N   UNL     1      -5.334  -1.983   2.285  0.00  0.00    -0.279 N 
ATOM      4  H   UNL     1      -4.612  -1.792   2.904  0.00  0.00    +0.155 HD
ENDROOT
BRANCH   3   5
ATOM      5  C   UNL     1      -6.597  -2.338   2.771  0.00  0.00    +0.071 A 
ATOM      6  C   UNL     1      -7.377  -3.254   2.077  0.00  0.00    +0.059 A 
ATOM      7  C   UNL     1      -8.623  -3.603   2.559  0.00  0.00    +0.128 A 
ATOM      8  C   UNL     1      -9.096  -3.043   3.732  0.00  0.00    +0.035 A 
ATOM      9  C   UNL     1      -8.323  -2.131   4.427  0.00  0.00    +0.042 A 
ATOM     10  C   UNL     1      -7.072  -1.780   3.953  0.00  0.00    +0.145 A 
ATOM     11  F   UNL     1      -6.314  -0.893   4.634  0.00  0.00    -0.204 F 
BRANCH   7  12
ATOM     12  N   UNL     1      -9.455  -4.579   1.819  0.00  0.00    +0.056 N 
ATOM     13  O   UNL     1      -9.044  -5.069   0.794  0.00  0.00    -0.126 OA
ATOM     14  O   UNL     1     -10.546  -4.885   2.241  0.00  0.00    -0.126 OA
ENDBRANCH   7  12
ENDBRANCH   3   5
BRANCH   1  18
ATOM     15  C   UNL     1      -1.399  -0.562   0.011  0.00  0.00    +0.079 A 
ATOM     16  N   UNL     1      -2.172  -0.842  -1.014  0.00  0.00    -0.248 NA
ATOM     17  C   UNL     1      -3.394  -1.284  -0.852  0.00  0.00    +0.058 A 
ATOM     18  C   UNL     1      -3.826  -1.439   0.448  0.00  0.00    +0.097 A 
ATOM     19  S   UNL     1      -2.369  -0.919   1.340  0.00  0.00    -0.067 S 
ATOM     20  C   UNL     1      -4.283  -1.605  -2.025  0.00  0.00    +0.067 C 
BRANCH  15  22
ATOM     21  C   UNL     1       0.008   1.479   0.002  0.00  0.00    +0.011 C 
ATOM     22  C   UNL     1       0.018  -0.051  -0.001  0.00  0.00    +0.059 C 
ENDBRANCH  15  22
ENDBRANCH   1  18
TORSDOF 4
