REMARK  Name = ZINC35298960
REMARK  4 active torsions:
REMARK  status: ('A' for Active; 'I' for Inactive)
REMARK    1  A    between atoms: C_1  and  C_2
REMARK    2  A    between atoms: C_9  and  C_11
REMARK    3  A    between atoms: C_11  and  N_12
REMARK    4  A    between atoms: C_17  and  C_19
REMARK                            x       y       z     vdW  Elec       q    Type
REMARK                         _______ _______ _______ _____ _____    ______ ____
ROOT
ATOM      1  C   UNL     1      -2.006  -4.310  -0.421  0.00  0.00    +0.020 C 
ENDROOT
BRANCH   1   9
ATOM      2  C   UNL     1      -0.019   1.526   0.010  0.00  0.00    +0.039 C 
ATOM      3  C   UNL     1       0.002  -0.004   0.002  0.00  0.00    +0.132 C 
ATOM      4  C   UNL     1      -1.436  -0.536   0.015  0.00  0.00    +0.139 C 
ATOM      5  N   UNL     1      -1.389  -1.995   0.196  0.00  0.00    -0.298 N 
ATOM      6  C   UNL     1      -0.578  -2.530   1.302  0.00  0.00    +0.136 C 
ATOM      7  C   UNL     1       0.818  -1.901   1.226  0.00  0.00    +0.179 C 
ATOM      8  O   UNL     1       0.691  -0.479   1.161  0.00  0.00    -0.374 OA
ATOM      9  C   UNL     1      -2.069  -2.818  -0.627  0.00  0.00    +0.199 C 
ATOM     10  O   UNL     1      -2.732  -2.358  -1.532  0.00  0.00    -0.278 OA
ENDBRANCH   1   9
BRANCH   1  11
ATOM     11  N   UNL     1      -2.826  -4.980  -1.440  0.00  0.00    +0.394 N 
ATOM     12  C   UNL     1      -2.249  -4.737  -2.768  0.00  0.00    -0.077 C 
ATOM     13  C   UNL     1      -3.144  -5.364  -3.839  0.00  0.00    -0.019 C 
ATOM     14  C   UNL     1      -3.246  -6.872  -3.593  0.00  0.00    -0.003 C 
ATOM     15  C   UNL     1      -3.779  -7.113  -2.177  0.00  0.00    -0.004 C 
ATOM     16  C   UNL     1      -2.860  -6.421  -1.167  0.00  0.00    +0.047 C 
ATOM     17  H   UNL     1      -3.764  -4.610  -1.410  0.00  0.00    -0.080 HD
BRANCH  16  18
ATOM     18  C   UNL     1      -3.381  -6.657   0.227  0.00  0.00    +0.343 C 
ATOM     19  O   UNL     1      -4.173  -5.873   0.722  0.00  0.00    -0.248 OA
ATOM     20  O   UNL     1      -3.010  -7.630   0.860  0.00  0.00    -0.248 OA
ENDBRANCH  16  18
ENDBRANCH   1  11
TORSDOF 3
