REMARK  Name = ZINC67020533
REMARK  9 active torsions:
REMARK  status: ('A' for Active; 'I' for Inactive)
REMARK    1  A    between atoms: C_1  and  C_2
REMARK    2  A    between atoms: C_7  and  N_8
REMARK    3  A    between atoms: N_8  and  C_9
REMARK    4  A    between atoms: C_9  and  C_10
REMARK    5  A    between atoms: N_12  and  C_13
REMARK    6  A    between atoms: C_14  and  C_16
REMARK    7  A    between atoms: C_16  and  C_17
REMARK    8  A    between atoms: C_18  and  C_29
REMARK    9  A    between atoms: C_27  and  C_28
REMARK                            x       y       z     vdW  Elec       q    Type
REMARK                         _______ _______ _______ _____ _____    ______ ____
ROOT
ATOM      1  N   UNL     1      -0.167  -0.035   2.389  0.00  0.00    -0.262 N 
ATOM      2  C   UNL     1      -1.382   0.095   2.958  0.00  0.00    +0.225 C 
ATOM      3  O   UNL     1      -1.499   0.688   4.009  0.00  0.00    -0.275 OA
ENDROOT
BRANCH   1  10
ATOM      4  C   UNL     1       0.467  -2.808   2.474  0.00  0.00    +0.045 C 
ATOM      5  C   UNL     1       0.277  -2.073   1.172  0.00  0.00    -0.029 A 
ATOM      6  C   UNL     1       0.404  -2.747  -0.027  0.00  0.00    +0.005 A 
ATOM      7  C   UNL     1       0.229  -2.074  -1.222  0.00  0.00    +0.000 A 
ATOM      8  C   UNL     1      -0.073  -0.724  -1.222  0.00  0.00    +0.002 A 
ATOM      9  C   UNL     1      -0.202  -0.045  -0.026  0.00  0.00    +0.024 A 
ATOM     10  C   UNL     1      -0.032  -0.719   1.176  0.00  0.00    +0.040 A 
ENDBRANCH   1  10
BRANCH   1  11
ATOM     11  C   UNL     1       1.012   0.540   3.041  0.00  0.00    +0.209 C 
BRANCH  11  12
ATOM     12  C   UNL     1       1.146   1.989   2.648  0.00  0.00    +0.231 C 
ATOM     13  O   UNL     1       0.376   2.474   1.847  0.00  0.00    -0.274 OA
ATOM     14  N   UNL     1       2.122   2.746   3.188  0.00  0.00    -0.317 N 
ATOM     15  C   UNL     1       2.253   4.154   2.806  0.00  0.00    +0.128 C 
ATOM     16  H   UNL     1       2.739   2.358   3.829  0.00  0.00    +0.148 HD
ENDBRANCH  11  12
ENDBRANCH   1  11
BRANCH   2  17
ATOM     17  C   UNL     1      -2.595  -0.497   2.287  0.00  0.00    +0.135 C 
BRANCH  17  18
ATOM     18  C   UNL     1      -3.818  -0.213   3.121  0.00  0.00    +0.003 A 
ATOM     19  C   UNL     1      -4.158  -1.056   4.185  0.00  0.00    +0.046 A 
ATOM     20  N   UNL     1      -5.226  -0.807   4.911  0.00  0.00    -0.233 NA
ATOM     21  C   UNL     1      -6.003   0.250   4.648  0.00  0.00    +0.158 A 
ATOM     22  C   UNL     1      -7.165   0.727   5.251  0.00  0.00    +0.119 A 
ATOM     23  C   UNL     1      -7.559   1.874   4.565  0.00  0.00    +0.267 A 
ATOM     24  O   UNL     1      -8.537   2.558   4.819  0.00  0.00    -0.266 OA
ATOM     25  N   UNL     1      -6.675   2.100   3.574  0.00  0.00    -0.258 N 
ATOM     26  H   UNL     1      -6.709   2.835   2.941  0.00  0.00    +0.191 HD
ATOM     27  N   UNL     1      -5.700   1.097   3.612  0.00  0.00    -0.238 N 
ATOM     28  C   UNL     1      -4.598   0.866   2.849  0.00  0.00    +0.045 A 
ATOM     29  C   UNL     1      -4.250   1.792   1.713  0.00  0.00    +0.066 C 
ATOM     30  C   UNL     1      -3.297  -2.252   4.500  0.00  0.00    +0.066 C 
ENDBRANCH  17  18
ENDBRANCH   2  17
TORSDOF 5
