REMARK  Name = ZINC06793869
REMARK  6 active torsions:
REMARK  status: ('A' for Active; 'I' for Inactive)
REMARK    1  A    between atoms: C_1  and  C_2
REMARK    2  A    between atoms: C_21  and  C_22
REMARK    3  A    between atoms: N_24  and  C_25
REMARK    4  A    between atoms: C_25  and  C_26
REMARK    5  A    between atoms: C_26  and  O_27
REMARK    6  A    between atoms: O_27  and  C_28
REMARK                            x       y       z     vdW  Elec       q    Type
REMARK                         _______ _______ _______ _____ _____    ______ ____
ROOT
ATOM      1  C   UNL     1       2.989   1.772   6.011  0.00  0.00    +0.048 C 
ATOM      2  C   UNL     1       3.865   1.848   4.788  0.00  0.00    +0.008 A 
ATOM      3  C   UNL     1       3.646   2.649   3.642  0.00  0.00    +0.038 A 
ATOM      4  C   UNL     1       4.713   2.394   2.765  0.00  0.00    +0.137 A 
ATOM      5  C   UNL     1       4.764   3.054   1.540  0.00  0.00    +0.050 A 
ATOM      6  C   UNL     1       3.792   3.962   1.186  0.00  0.00    +0.050 A 
ATOM      7  C   UNL     1       2.727   4.240   2.043  0.00  0.00    +0.133 A 
ATOM      8  C   UNL     1       2.642   3.567   3.269  0.00  0.00    +0.070 A 
ATOM      9  C   UNL     1       1.493   3.835   4.134  0.00  0.00    +0.171 C 
ATOM     10  O   UNL     1       1.275   3.139   5.104  0.00  0.00    -0.292 OA
ATOM     11  C   UNL     1       0.588   4.989   3.801  0.00  0.00    +0.127 C 
ATOM     12  C   UNL     1       0.514   5.210   2.288  0.00  0.00    +0.118 C 
ATOM     13  O   UNL     1       1.800   5.145   1.687  0.00  0.00    -0.485 OA
ATOM     14  C   UNL     1      -0.395   4.169   1.677  0.00  0.00    +0.048 C 
ATOM     15  C   UNL     1       0.109   3.826   0.266  0.00  0.00    +0.004 C 
ATOM     16  C   UNL     1      -0.319   4.809  -0.719  0.00  0.00    +0.000 C 
ATOM     17  C   UNL     1       0.238   6.218  -0.421  0.00  0.00    +0.000 C 
ATOM     18  C   UNL     1      -0.609   6.850   0.651  0.00  0.00    +0.004 C 
ATOM     19  C   UNL     1      -0.033   6.638   2.064  0.00  0.00    +0.048 C 
ATOM     20  O   UNL     1       5.518   1.492   3.363  0.00  0.00    -0.450 OA
ATOM     21  C   UNL     1       5.017   1.161   4.572  0.00  0.00    +0.193 A 
ENDROOT
BRANCH  21  22
ATOM     22  C   UNL     1       5.625   0.204   5.511  0.00  0.00    +0.280 C 
ATOM     23  O   UNL     1       5.089  -0.023   6.579  0.00  0.00    -0.267 OA
ATOM     24  N   UNL     1       6.774  -0.420   5.187  0.00  0.00    -0.307 N 
ATOM     25  H   UNL     1       7.201  -0.238   4.335  0.00  0.00    +0.149 HD
BRANCH  24  26
ATOM     26  C   UNL     1       7.379  -1.373   6.121  0.00  0.00    +0.132 C 
BRANCH  26  27
ATOM     27  C   UNL     1       8.666  -1.934   5.515  0.00  0.00    +0.178 C 
BRANCH  27  28
ATOM     28  O   UNL     1       9.624  -0.883   5.374  0.00  0.00    -0.381 OA
ATOM     29  C   UNL     1      10.870  -1.303   4.813  0.00  0.00    +0.194 C 
ENDBRANCH  27  28
ENDBRANCH  26  27
ENDBRANCH  24  26
ENDBRANCH  21  22
TORSDOF 4
