REMARK  Name = ZINC11104601
REMARK  8 active torsions:
REMARK  status: ('A' for Active; 'I' for Inactive)
REMARK    1  A    between atoms: C_1  and  C_2
REMARK    2  A    between atoms: C_2  and  C_3
REMARK    3  A    between atoms: C_6  and  C_15
REMARK    4  A    between atoms: C_13  and  O_14
REMARK    5  A    between atoms: C_15  and  N_16
REMARK    6  A    between atoms: C_19  and  N_22
REMARK    7  A    between atoms: N_22  and  S_23
REMARK    8  A    between atoms: S_23  and  C_26
REMARK                            x       y       z     vdW  Elec       q    Type
REMARK                         _______ _______ _______ _____ _____    ______ ____
ROOT
ATOM      1  C   UNL     1       0.707  -0.490  -1.238  0.00  0.00    -0.005 A 
ATOM      2  C   UNL     1       2.008  -0.898  -1.162  0.00  0.00    +0.019 A 
ATOM      3  C   UNL     1       2.663  -1.349  -2.313  0.00  0.00    +0.019 A 
ATOM      4  C   UNL     1       4.057  -1.794  -2.262  0.00  0.00    -0.047 A 
ATOM      5  C   UNL     1       4.637  -2.221  -3.414  0.00  0.00    +0.094 A 
ATOM      6  C   UNL     1       3.895  -2.227  -4.613  0.00  0.00    +0.337 A 
ATOM      7  O   UNL     1       4.428  -2.613  -5.638  0.00  0.00    -0.245 OA
ATOM      8  O   UNL     1       2.617  -1.819  -4.653  0.00  0.00    -0.422 OA
ATOM      9  C   UNL     1       1.982  -1.382  -3.545  0.00  0.00    +0.143 A 
ATOM     10  C   UNL     1       0.661  -0.963  -3.604  0.00  0.00    +0.092 A 
ATOM     11  C   UNL     1       0.026  -0.525  -2.453  0.00  0.00    +0.124 A 
ENDROOT
BRANCH   1  13
ATOM     12  C   UNL     1      -0.019   1.526   0.010  0.00  0.00    +0.009 C 
ATOM     13  C   UNL     1       0.002  -0.004   0.002  0.00  0.00    +0.035 C 
ENDBRANCH   1  13
BRANCH  11  14
ATOM     14  O   UNL     1      -1.268  -0.121  -2.510  0.00  0.00    -0.506 OA
ATOM     15  H   UNL     1      -1.379   0.820  -2.700  0.00  0.00    +0.292 HD
ENDBRANCH  11  14
BRANCH   4  16
ATOM     16  C   UNL     1       4.828  -1.777  -0.967  0.00  0.00    -0.042 C 
BRANCH  16  17
ATOM     17  N   UNL     1       5.402  -0.441  -0.756  0.00  0.00    +0.382 N 
ATOM     18  C   UNL     1       4.317   0.534  -0.585  0.00  0.00    -0.077 C 
ATOM     19  C   UNL     1       4.907   1.939  -0.446  0.00  0.00    +0.002 C 
ATOM     20  C   UNL     1       5.830   1.980   0.775  0.00  0.00    +0.073 C 
ATOM     21  C   UNL     1       6.913   0.909   0.621  0.00  0.00    +0.002 C 
ATOM     22  C   UNL     1       6.250  -0.458   0.442  0.00  0.00    -0.077 C 
ATOM     23  H   UNL     1       5.958  -0.184  -1.558  0.00  0.00    -0.081 HD
BRANCH  20  24
ATOM     24  N   UNL     1       6.457   3.301   0.871  0.00  0.00    -0.192 NA
ATOM     25  H   UNL     1       6.695   3.784   0.064  0.00  0.00    +0.148 HD
BRANCH  24  26
ATOM     26  S   UNL     1       6.758   3.969   2.356  0.00  0.00    +0.027 S 
ATOM     27  O   UNL     1       7.336   5.236   2.073  0.00  0.00    -0.158 OA
ATOM     28  O   UNL     1       5.523   3.876   3.053  0.00  0.00    -0.158 OA
ATOM     29  C   UNL     1       7.990   2.876   3.117  0.00  0.00    +0.214 C 
ENDBRANCH  24  26
ENDBRANCH  20  24
ENDBRANCH  16  17
ENDBRANCH   4  16
TORSDOF 6
