REMARK  Name = ZINC14459501
REMARK  7 active torsions:
REMARK  status: ('A' for Active; 'I' for Inactive)
REMARK    1  A    between atoms: C_1  and  O_2
REMARK    2  A    between atoms: O_2  and  C_3
REMARK    3  A    between atoms: C_7  and  C_10
REMARK    4  A    between atoms: C_8  and  O_9
REMARK    5  A    between atoms: C_21  and  S_26
REMARK    6  A    between atoms: S_26  and  N_29
REMARK    7  A    between atoms: N_29  and  C_30
REMARK                            x       y       z     vdW  Elec       q    Type
REMARK                         _______ _______ _______ _____ _____    ______ ____
ROOT
ATOM      1  C   UNL     1       3.568   1.744   0.422  0.00  0.00    +0.109 C 
ATOM      2  C   UNL     1       4.323   2.872  -0.288  0.00  0.00    +0.029 C 
ATOM      3  C   UNL     1       5.629   3.134   0.518  0.00  0.00    +0.033 C 
ATOM      4  C   UNL     1       5.169   4.035   1.648  0.00  0.00    -0.030 C 
ATOM      5  C   UNL     1       4.049   4.636   1.329  0.00  0.00    -0.023 C 
ATOM      6  C   UNL     1       3.605   4.214  -0.052  0.00  0.00    +0.049 C 
ATOM      7  C   UNL     1       2.116   4.102  -0.137  0.00  0.00    -0.018 A 
ATOM      8  C   UNL     1       1.362   5.267  -0.196  0.00  0.00    +0.034 A 
ATOM      9  C   UNL     1      -0.014   5.209  -0.280  0.00  0.00    +0.106 A 
ATOM     10  C   UNL     1      -0.660   3.986  -0.312  0.00  0.00    +0.030 A 
ATOM     11  C   UNL     1       0.078   2.821  -0.246  0.00  0.00    +0.025 A 
ATOM     12  C   UNL     1       1.464   2.879  -0.161  0.00  0.00    +0.031 A 
ATOM     13  N   UNL     1       2.197   1.690  -0.096  0.00  0.00    -0.336 N 
ATOM     14  H   UNL     1       1.809   0.850  -0.386  0.00  0.00    +0.147 HD
ENDROOT
BRANCH   1  19
ATOM     15  C   UNL     1       4.457   1.692   4.101  0.00  0.00    +0.162 A 
ATOM     16  C   UNL     1       3.475   2.514   4.630  0.00  0.00    +0.049 A 
ATOM     17  C   UNL     1       2.528   3.082   3.798  0.00  0.00    +0.004 A 
ATOM     18  C   UNL     1       2.563   2.837   2.437  0.00  0.00    +0.009 A 
ATOM     19  C   UNL     1       3.537   2.013   1.905  0.00  0.00    +0.018 A 
ATOM     20  C   UNL     1       4.489   1.441   2.733  0.00  0.00    +0.163 A 
BRANCH  15  22
ATOM     21  C   UNL     1       5.296   1.434   6.312  0.00  0.00    +0.277 C 
ATOM     22  O   UNL     1       5.390   1.132   4.919  0.00  0.00    -0.491 OA
ENDBRANCH  15  22
BRANCH  20  23
ATOM     23  O   UNL     1       5.451   0.634   2.210  0.00  0.00    -0.503 OA
ATOM     24  H   UNL     1       6.288   1.085   2.034  0.00  0.00    +0.292 HD
ENDBRANCH  20  23
ENDBRANCH   1  19
BRANCH   9  25
ATOM     25  S   UNL     1      -0.952   6.698  -0.354  0.00  0.00    +0.059 S 
ATOM     26  O   UNL     1      -2.254   6.383   0.121  0.00  0.00    -0.153 OA
ATOM     27  O   UNL     1      -0.151   7.713   0.236  0.00  0.00    -0.153 OA
BRANCH  25  28
ATOM     28  N   UNL     1      -1.115   7.095  -1.954  0.00  0.00    -0.187 NA
ATOM     29  H   UNL     1      -0.708   7.906  -2.296  0.00  0.00    +0.148 HD
BRANCH  28  30
ATOM     30  C   UNL     1      -1.876   6.222  -2.851  0.00  0.00    +0.077 C 
ATOM     31  C   UNL     1      -0.918   5.264  -3.563  0.00  0.00    +0.020 C 
ATOM     32  C   UNL     1      -1.712   4.352  -4.500  0.00  0.00    +0.002 C 
ATOM     33  C   UNL     1      -2.448   5.203  -5.538  0.00  0.00    +0.000 C 
ATOM     34  C   UNL     1      -3.405   6.160  -4.826  0.00  0.00    +0.002 C 
ATOM     35  C   UNL     1      -2.611   7.072  -3.888  0.00  0.00    +0.020 C 
ENDBRANCH  28  30
ENDBRANCH  25  28
ENDBRANCH   9  25
TORSDOF 6
