REMARK  Name = ZINC65181843
REMARK  8 active torsions:
REMARK  status: ('A' for Active; 'I' for Inactive)
REMARK    1  A    between atoms: C_1  and  N_2
REMARK    2  A    between atoms: N_2  and  C_3
REMARK    3  A    between atoms: C_3  and  C_4
REMARK    4  A    between atoms: C_4  and  C_5
REMARK    5  A    between atoms: C_8  and  C_11
REMARK    6  A    between atoms: C_17  and  O_21
REMARK    7  A    between atoms: O_21  and  C_22
REMARK    8  A    between atoms: C_23  and  C_25
REMARK                            x       y       z     vdW  Elec       q    Type
REMARK                         _______ _______ _______ _____ _____    ______ ____
ROOT
ATOM      1  C   UNL     1      -0.581  -1.508   3.285  0.00  0.00    +0.139 C 
ATOM      2  N   UNL     1       0.449  -2.207   3.597  0.00  0.00    -0.072 NA
ATOM      3  O   UNL     1       0.274  -2.838   4.851  0.00  0.00    -0.367 OA
ATOM      4  C   UNL     1      -1.027  -2.451   5.320  0.00  0.00    +0.318 C 
ATOM      5  N   UNL     1      -1.548  -1.573   4.260  0.00  0.00    -0.291 N 
ATOM      6  H   UNL     1      -2.410  -1.127   4.250  0.00  0.00    +0.151 HD
ENDROOT
BRANCH   4   7
ATOM      7  C   UNL     1      -1.921  -3.680   5.495  0.00  0.00    +0.165 C 
ATOM      8  C   UNL     1      -3.281  -3.266   6.010  0.00  0.00    +0.012 C 
ATOM      9  C   UNL     1      -3.435  -3.884   7.202  0.00  0.00    -0.004 A 
ATOM     10  C   UNL     1      -4.526  -3.886   8.186  0.00  0.00    +0.013 A 
ATOM     11  C   UNL     1      -4.392  -4.617   9.313  0.00  0.00    +0.046 A 
ATOM     12  C   UNL     1      -3.234  -5.376   9.568  0.00  0.00    +0.122 A 
ATOM     13  C   UNL     1      -2.187  -5.421   8.705  0.00  0.00    +0.071 A 
ATOM     14  C   UNL     1      -2.227  -4.690   7.491  0.00  0.00    +0.046 A 
ATOM     15  N   UNL     1      -1.358  -4.574   6.512  0.00  0.00    -0.373 N 
ATOM     16  H   UNL     1      -0.490  -5.007   6.468  0.00  0.00    +0.160 HD
BRANCH  12  17
ATOM     17  O   UNL     1      -3.161  -6.089  10.719  0.00  0.00    -0.495 OA
ATOM     18  C   UNL     1      -4.284  -6.014  11.600  0.00  0.00    +0.277 C 
ENDBRANCH  12  17
ENDBRANCH   4   7
BRANCH   1  19
ATOM     19  C   UNL     1      -0.712  -0.711   2.013  0.00  0.00    +0.094 C 
BRANCH  19  20
ATOM     20  C   UNL     1       0.557  -0.879   1.173  0.00  0.00    +0.115 C 
BRANCH  20  22
ATOM     21  C   UNL     1       0.881   1.289  -0.105  0.00  0.00    +0.132 C 
ATOM     22  N   UNL     1       0.430  -0.104  -0.063  0.00  0.00    -0.300 N 
ATOM     23  C   UNL     1      -0.102  -0.673  -1.163  0.00  0.00    +0.249 C 
ATOM     24  O   UNL     1      -0.563  -1.796  -1.104  0.00  0.00    -0.270 OA
BRANCH  23  25
ATOM     25  C   UNL     1      -0.124   0.067  -2.440  0.00  0.00    +0.072 A 
ATOM     26  C   UNL     1       0.998   0.792  -2.850  0.00  0.00    +0.019 A 
ATOM     27  C   UNL     1       0.972   1.482  -4.042  0.00  0.00    +0.039 A 
ATOM     28  C   UNL     1      -0.166   1.458  -4.837  0.00  0.00    +0.126 A 
ATOM     29  C   UNL     1      -1.282   0.742  -4.438  0.00  0.00    +0.077 A 
ATOM     30  C   UNL     1      -1.266   0.042  -3.247  0.00  0.00    +0.138 A 
ATOM     31  F   UNL     1      -2.353  -0.661  -2.860  0.00  0.00    -0.205 F 
ATOM     32  F   UNL     1      -0.184   2.137  -6.005  0.00  0.00    -0.205 F 
ENDBRANCH  23  25
ENDBRANCH  20  22
ENDBRANCH  19  20
ENDBRANCH   1  19
TORSDOF 6
