REMARK  Name = ZINC49273510
REMARK  10 active torsions:
REMARK  status: ('A' for Active; 'I' for Inactive)
REMARK    1  A    between atoms: C_1  and  C_2
REMARK    2  A    between atoms: C_5  and  O_28
REMARK    3  A    between atoms: C_6  and  C_8
REMARK    4  A    between atoms: C_8  and  C_10
REMARK    5  A    between atoms: C_8  and  N_11
REMARK    6  A    between atoms: C_12  and  C_14
REMARK    7  A    between atoms: N_16  and  C_17
REMARK    8  A    between atoms: C_24  and  C_26
REMARK    9  A    between atoms: C_24  and  C_27
REMARK   10  A    between atoms: O_28  and  C_29
REMARK                            x       y       z     vdW  Elec       q    Type
REMARK                         _______ _______ _______ _____ _____    ______ ____
ROOT
ATOM      1  N   UNL     1       0.923  -1.956   3.384  0.00  0.00    -0.301 N 
ATOM      2  C   UNL     1       1.440  -2.533   4.486  0.00  0.00    +0.300 C 
ATOM      3  O   UNL     1       1.420  -3.741   4.605  0.00  0.00    -0.265 OA
ATOM      4  H   UNL     1       0.939  -0.991   3.289  0.00  0.00    +0.150 HD
ENDROOT
BRANCH   2   5
ATOM      5  C   UNL     1       2.037  -1.687   5.562  0.00  0.00    +0.303 C 
ATOM      6  O   UNL     1       2.057  -0.479   5.444  0.00  0.00    -0.265 OA
ATOM      7  N   UNL     1       2.554  -2.265   6.665  0.00  0.00    -0.278 N 
ATOM      8  H   UNL     1       2.607  -3.231   6.727  0.00  0.00    +0.155 HD
BRANCH   7   9
ATOM      9  C   UNL     1       3.015  -1.470   7.720  0.00  0.00    +0.038 A 
ATOM     10  C   UNL     1       4.103  -1.885   8.478  0.00  0.00    +0.027 A 
ATOM     11  C   UNL     1       4.559  -1.102   9.520  0.00  0.00    +0.051 A 
ATOM     12  C   UNL     1       3.933   0.100   9.813  0.00  0.00    +0.167 A 
ATOM     13  C   UNL     1       2.842   0.518   9.054  0.00  0.00    +0.169 A 
ATOM     14  C   UNL     1       2.389  -0.264   8.006  0.00  0.00    +0.073 A 
ATOM     15  O   UNL     1       2.410   1.720   9.537  0.00  0.00    -0.448 OA
ATOM     16  C   UNL     1       2.986   1.835  10.852  0.00  0.00    +0.248 C 
ATOM     17  O   UNL     1       4.183   1.039  10.772  0.00  0.00    -0.448 OA
ATOM     18  C   UNL     1       3.329   3.293  11.162  0.00  0.00    +0.104 C 
ATOM     19  C   UNL     1       2.034   1.269  11.908  0.00  0.00    +0.104 C 
ENDBRANCH   7   9
ENDBRANCH   2   5
BRANCH   1  20
ATOM     20  C   UNL     1       0.337  -2.786   2.328  0.00  0.00    +0.104 C 
ATOM     21  C   UNL     1      -1.146  -3.018   2.626  0.00  0.00    +0.033 C 
BRANCH  20  27
ATOM     22  C   UNL     1       0.751   1.441  -0.318  0.00  0.00    +0.044 C 
ATOM     23  C   UNL     1       0.677  -0.064  -0.266  0.00  0.00    -0.050 A 
ATOM     24  C   UNL     1       0.741  -0.798  -1.435  0.00  0.00    +0.007 A 
ATOM     25  C   UNL     1       0.673  -2.177  -1.391  0.00  0.00    +0.046 A 
ATOM     26  C   UNL     1       0.542  -2.825  -0.171  0.00  0.00    +0.125 A 
ATOM     27  C   UNL     1       0.479  -2.086   1.001  0.00  0.00    +0.014 A 
ATOM     28  C   UNL     1       0.553  -0.707   0.952  0.00  0.00    +0.012 A 
BRANCH  26  29
ATOM     29  O   UNL     1       0.475  -4.181  -0.124  0.00  0.00    -0.495 OA
ATOM     30  C   UNL     1       0.545  -4.878  -1.370  0.00  0.00    +0.277 C 
ENDBRANCH  26  29
ENDBRANCH  20  27
ENDBRANCH   1  20
TORSDOF 5
