REMARK  Name = ZINC04026259
REMARK  6 active torsions:
REMARK  status: ('A' for Active; 'I' for Inactive)
REMARK    1  A    between atoms: C_1  and  C_2
REMARK    2  A    between atoms: C_5  and  O_8
REMARK    3  A    between atoms: O_8  and  C_9
REMARK    4  A    between atoms: C_11  and  O_21
REMARK    5  A    between atoms: C_13  and  O_20
REMARK    6  A    between atoms: C_15  and  O_19
REMARK                            x       y       z     vdW  Elec       q    Type
REMARK                         _______ _______ _______ _____ _____    ______ ____
ROOT
ATOM      1  C   UNL     1       2.111   1.181  -1.299  0.00  0.00    +0.339 C 
ATOM      2  C   UNL     1       1.424   1.618  -0.003  0.00  0.00    +0.214 C 
ATOM      3  C   UNL     1      -0.013   1.086   0.008  0.00  0.00    +0.180 C 
ATOM      4  C   UNL     1      -0.744   1.595  -1.238  0.00  0.00    +0.171 C 
ATOM      5  C   UNL     1       0.028   1.159  -2.486  0.00  0.00    +0.198 C 
ATOM      6  O   UNL     1       1.364   1.661  -2.418  0.00  0.00    -0.337 OA
ENDROOT
BRANCH   4   7
ATOM      7  O   UNL     1      -2.062   1.046  -1.276  0.00  0.00    -0.387 OA
ATOM      8  H   UNL     1      -2.584   1.327  -2.041  0.00  0.00    +0.210 HD
ENDBRANCH   4   7
BRANCH   3   9
ATOM      9  O   UNL     1      -0.685   1.548   1.181  0.00  0.00    -0.386 OA
ATOM     10  H   UNL     1      -1.602   1.251   1.252  0.00  0.00    +0.210 HD
ENDBRANCH   3   9
BRANCH   2  11
ATOM     11  O   UNL     1       2.137   1.090   1.117  0.00  0.00    -0.383 OA
ATOM     12  H   UNL     1       3.056   1.386   1.173  0.00  0.00    +0.210 HD
ENDBRANCH   2  11
BRANCH   1  13
ATOM     13  O   UNL     1       3.434   1.721  -1.342  0.00  0.00    -0.461 OA
BRANCH  13  18
ATOM     14  C   UNL     1       6.699   0.149  -5.654  0.00  0.00    +0.044 C 
ATOM     15  C   UNL     1       5.825   0.570  -4.500  0.00  0.00    -0.050 A 
ATOM     16  C   UNL     1       6.316   1.441  -3.545  0.00  0.00    +0.007 A 
ATOM     17  C   UNL     1       5.517   1.828  -2.486  0.00  0.00    +0.046 A 
ATOM     18  C   UNL     1       4.222   1.342  -2.382  0.00  0.00    +0.124 A 
ATOM     19  C   UNL     1       3.734   0.464  -3.339  0.00  0.00    +0.046 A 
ATOM     20  C   UNL     1       4.534   0.085  -4.399  0.00  0.00    +0.007 A 
ENDBRANCH  13  18
ENDBRANCH   1  13
TORSDOF 5
