REMARK  Name = ZINC02104443
REMARK  15 active torsions:
REMARK  status: ('A' for Active; 'I' for Inactive)
REMARK    1  A    between atoms: C_1  and  C_2
REMARK    2  A    between atoms: C_2  and  C_3
REMARK    3  A    between atoms: C_3  and  C_4
REMARK    4  A    between atoms: C_4  and  C_5
REMARK    5  A    between atoms: C_5  and  C_6
REMARK    6  A    between atoms: C_6  and  S_7
REMARK    7  A    between atoms: S_7  and  C_8
REMARK    8  A    between atoms: C_21  and  C_24
REMARK    9  A    between atoms: C_27  and  O_34
REMARK   10  A    between atoms: C_28  and  O_32
REMARK   11  A    between atoms: C_29  and  O_30
REMARK   12  A    between atoms: O_30  and  C_31
REMARK   13  A    between atoms: O_32  and  C_33
REMARK   14  A    between atoms: O_34  and  C_35
REMARK   15  A    between atoms: C_36  and  C_38
REMARK                            x       y       z     vdW  Elec       q    Type
REMARK                         _______ _______ _______ _____ _____    ______ ____
ROOT
ATOM      1  C   UNL     1      -3.505   3.387   0.125  0.00  0.00    +0.212 A 
ATOM      2  N   UNL     1      -2.596   3.746  -0.777  0.00  0.00    -0.184 NA
ATOM      3  C   UNL     1      -1.426   3.131  -0.797  0.00  0.00    +0.248 A 
ATOM      4  C   UNL     1      -1.178   2.113   0.152  0.00  0.00    +0.156 A 
ATOM      5  N   UNL     1      -2.127   1.800   1.021  0.00  0.00    -0.141 NA
ATOM      6  N   UNL     1      -3.255   2.423   1.002  0.00  0.00    -0.122 NA
ATOM      7  C   UNL     1       0.129   1.423   0.157  0.00  0.00    +0.029 A 
ATOM      8  C   UNL     1       0.219   0.038   0.222  0.00  0.00    +0.012 A 
ATOM      9  C   UNL     1       1.460  -0.568   0.249  0.00  0.00    +0.001 A 
ATOM     10  C   UNL     1       2.614   0.196   0.211  0.00  0.00    +0.002 A 
ATOM     11  C   UNL     1       2.538   1.575   0.141  0.00  0.00    +0.024 A 
ATOM     12  C   UNL     1       1.304   2.195   0.107  0.00  0.00    +0.049 A 
ATOM     13  N   UNL     1       1.189   3.588   0.007  0.00  0.00    -0.231 N 
ATOM     14  C   UNL     1       0.667   4.164  -1.229  0.00  0.00    +0.306 C 
ATOM     15  O   UNL     1      -0.472   3.454  -1.702  0.00  0.00    -0.448 OA
ATOM     16  C   UNL     1       1.555   4.383   1.033  0.00  0.00    +0.220 C 
ATOM     17  O   UNL     1       1.451   5.587   0.934  0.00  0.00    -0.275 OA
ATOM     18  C   UNL     1       2.092   3.774   2.302  0.00  0.00    +0.110 C 
ENDROOT
BRANCH  14  19
ATOM     19  C   UNL     1       1.743   4.123  -2.283  0.00  0.00    +0.057 A 
ATOM     20  C   UNL     1       3.059   3.907  -1.918  0.00  0.00    +0.016 A 
ATOM     21  C   UNL     1       4.050   3.867  -2.881  0.00  0.00    +0.050 A 
ATOM     22  C   UNL     1       3.727   4.045  -4.218  0.00  0.00    +0.165 A 
ATOM     23  C   UNL     1       2.406   4.263  -4.589  0.00  0.00    +0.204 A 
ATOM     24  C   UNL     1       1.412   4.296  -3.618  0.00  0.00    +0.173 A 
BRANCH  24  25
ATOM     25  O   UNL     1       0.117   4.503  -3.977  0.00  0.00    -0.491 OA
ATOM     26  C   UNL     1      -0.334   5.858  -4.027  0.00  0.00    +0.277 C 
ENDBRANCH  24  25
BRANCH  23  27
ATOM     27  O   UNL     1       2.086   4.437  -5.900  0.00  0.00    -0.488 OA
ATOM     28  C   UNL     1       1.761   3.265  -6.650  0.00  0.00    +0.277 C 
ENDBRANCH  23  27
BRANCH  22  29
ATOM     29  O   UNL     1       4.703   4.006  -5.164  0.00  0.00    -0.491 OA
ATOM     30  C   UNL     1       6.039   3.779  -4.710  0.00  0.00    +0.277 C 
ENDBRANCH  22  29
ENDBRANCH  14  19
BRANCH   1  31
ATOM     31  S   UNL     1      -5.066   4.204   0.156  0.00  0.00    -0.084 S 
BRANCH  31  32
ATOM     32  C   UNL     1      -5.850   3.330   1.533  0.00  0.00    +0.077 C 
BRANCH  32  33
ATOM     33  C   UNL     1      -7.259   3.886   1.753  0.00  0.00    +0.011 C 
BRANCH  33  34
ATOM     34  C   UNL     1      -7.922   3.147   2.917  0.00  0.00    +0.001 C 
BRANCH  34  35
ATOM     35  C   UNL     1      -9.331   3.703   3.138  0.00  0.00    -0.000 C 
BRANCH  35  37
ATOM     36  C   UNL     1     -11.402   3.519   4.522  0.00  0.00    +0.004 C 
ATOM     37  C   UNL     1      -9.994   2.963   4.301  0.00  0.00    -0.003 C 
ENDBRANCH  35  37
ENDBRANCH  34  35
ENDBRANCH  33  34
ENDBRANCH  32  33
ENDBRANCH  31  32
ENDBRANCH   1  31
TORSDOF 10
