REMARK  Name = ZINC06504265
REMARK  7 active torsions:
REMARK  status: ('A' for Active; 'I' for Inactive)
REMARK    1  A    between atoms: C_1  and  C_2
REMARK    2  A    between atoms: C_6  and  C_8
REMARK    3  A    between atoms: N_10  and  N_11
REMARK    4  A    between atoms: N_11  and  C_12
REMARK    5  A    between atoms: C_12  and  N_14
REMARK    6  A    between atoms: C_15  and  C_17
REMARK    7  A    between atoms: C_17  and  C_18
REMARK                            x       y       z     vdW  Elec       q    Type
REMARK                         _______ _______ _______ _____ _____    ______ ____
ROOT
ATOM      1  C   UNL     1       2.227   8.103   0.026  0.00  0.00    +0.153 C 
ATOM      2  S   UNL     1       2.203   9.815   0.036  0.00  0.00    -0.017 S 
ENDROOT
BRANCH   1   3
ATOM      3  N   UNL     1       3.403   7.445   0.011  0.00  0.00    -0.266 N 
ATOM      4  C   UNL     1       4.561   8.135   0.004  0.00  0.00    +0.223 C 
ATOM      5  O   UNL     1       4.544   9.347   0.012  0.00  0.00    -0.275 OA
ATOM      6  H   UNL     1       3.416   6.476   0.006  0.00  0.00    +0.157 HD
BRANCH   4   7
ATOM      7  C   UNL     1       5.876   7.399  -0.012  0.00  0.00    +0.131 C 
BRANCH   7   8
ATOM      8  C   UNL     1       7.008   8.394  -0.017  0.00  0.00    -0.031 A 
ATOM      9  C   UNL     1       7.579   8.775  -1.192  0.00  0.00    +0.005 A 
ATOM     10  C   UNL     1       8.626   9.694  -1.217  0.00  0.00    +0.001 A 
ATOM     11  C   UNL     1       9.109  10.237  -0.066  0.00  0.00    +0.008 A 
ATOM     12  C   UNL     1       8.545   9.868   1.167  0.00  0.00    -0.018 A 
ATOM     13  C   UNL     1       7.476   8.937   1.191  0.00  0.00    -0.014 A 
ATOM     14  C   UNL     1       6.915   8.565   2.425  0.00  0.00    +0.009 A 
ATOM     15  C   UNL     1       7.398   9.107   3.576  0.00  0.00    +0.001 A 
ATOM     16  C   UNL     1       8.446  10.026   3.551  0.00  0.00    +0.001 A 
ATOM     17  C   UNL     1       9.017  10.407   2.376  0.00  0.00    +0.008 A 
ENDBRANCH   7   8
ENDBRANCH   4   7
ENDBRANCH   1   3
BRANCH   1  18
ATOM     18  N   UNL     1       1.069   7.414   0.033  0.00  0.00    -0.245 N 
ATOM     19  H   UNL     1       0.222   7.887   0.044  0.00  0.00    +0.172 HD
BRANCH  18  22
ATOM     20  C   UNL     1      -0.070   5.323   0.032  0.00  0.00    +0.260 C 
ATOM     21  O   UNL     1      -1.131   5.916   0.045  0.00  0.00    -0.269 OA
ATOM     22  N   UNL     1       1.088   6.013   0.025  0.00  0.00    -0.231 N 
ATOM     23  H   UNL     1       1.934   5.539   0.014  0.00  0.00    +0.173 HD
BRANCH  20  29
ATOM     24  C   UNL     1      -2.514   0.972   0.019  0.00  0.00    +0.044 C 
ATOM     25  C   UNL     1      -1.222   1.748   0.017  0.00  0.00    -0.050 A 
ATOM     26  C   UNL     1      -0.013   1.076   0.008  0.00  0.00    +0.003 A 
ATOM     27  C   UNL     1       1.178   1.781   0.000  0.00  0.00    +0.001 A 
ATOM     28  C   UNL     1       1.166   3.160   0.008  0.00  0.00    +0.013 A 
ATOM     29  C   UNL     1      -0.050   3.845   0.023  0.00  0.00    +0.038 A 
ATOM     30  C   UNL     1      -1.248   3.127   0.031  0.00  0.00    +0.016 A 
ENDBRANCH  20  29
ENDBRANCH  18  22
ENDBRANCH   1  18
TORSDOF 6
