REMARK  Name = ZINC14474425
REMARK  5 active torsions:
REMARK  status: ('A' for Active; 'I' for Inactive)
REMARK    1  A    between atoms: C_4  and  C_7
REMARK    2  A    between atoms: C_7  and  O_8
REMARK    3  A    between atoms: O_8  and  C_9
REMARK    4  A    between atoms: C_22  and  C_25
REMARK    5  A    between atoms: C_30  and  O_31
REMARK                            x       y       z     vdW  Elec       q    Type
REMARK                         _______ _______ _______ _____ _____    ______ ____
ROOT
ATOM      1  C   UNL     1      -5.201   3.283   1.988  0.00  0.00    +0.121 A 
ATOM      2  C   UNL     1      -4.923   3.244   3.346  0.00  0.00    +0.047 A 
ATOM      3  C   UNL     1      -3.780   2.620   3.801  0.00  0.00    +0.027 A 
ATOM      4  C   UNL     1      -2.898   2.027   2.905  0.00  0.00    +0.032 A 
ATOM      5  C   UNL     1      -3.189   2.059   1.537  0.00  0.00    -0.016 A 
ATOM      6  C   UNL     1      -4.331   2.687   1.088  0.00  0.00    +0.051 A 
ATOM      7  C   UNL     1      -2.234   1.399   0.620  0.00  0.00    +0.049 C 
ATOM      8  C   UNL     1      -2.087   1.821  -0.796  0.00  0.00    -0.023 C 
ATOM      9  C   UNL     1      -0.827   1.629  -1.167  0.00  0.00    -0.030 C 
ATOM     10  C   UNL     1      -0.013   1.086   0.008  0.00  0.00    +0.033 C 
ATOM     11  C   UNL     1      -0.807   1.618   1.208  0.00  0.00    +0.029 C 
ATOM     12  C   UNL     1      -0.767   0.771   2.477  0.00  0.00    +0.108 C 
ATOM     13  N   UNL     1      -1.732   1.418   3.393  0.00  0.00    -0.336 N 
ATOM     14  H   UNL     1      -1.556   1.421   4.346  0.00  0.00    +0.147 HD
ENDROOT
BRANCH  12  15
ATOM     15  C   UNL     1      -1.186  -0.649   2.197  0.00  0.00    +0.014 A 
ATOM     16  C   UNL     1      -2.514  -1.013   2.312  0.00  0.00    +0.009 A 
ATOM     17  C   UNL     1      -2.900  -2.315   2.054  0.00  0.00    +0.001 A 
ATOM     18  C   UNL     1      -1.958  -3.257   1.681  0.00  0.00    +0.004 A 
ATOM     19  C   UNL     1      -0.629  -2.898   1.565  0.00  0.00    +0.046 A 
ATOM     20  C   UNL     1      -0.241  -1.590   1.817  0.00  0.00    +0.122 A 
BRANCH  20  21
ATOM     21  O   UNL     1       1.065  -1.232   1.697  0.00  0.00    -0.506 OA
ATOM     22  H   UNL     1       1.577  -1.336   2.511  0.00  0.00    +0.292 HD
ENDBRANCH  20  21
ENDBRANCH  12  15
BRANCH   1  23
ATOM     23  O   UNL     1      -6.326   3.903   1.540  0.00  0.00    -0.487 OA
BRANCH  23  24
ATOM     24  C   UNL     1      -7.177   4.494   2.524  0.00  0.00    +0.264 C 
BRANCH  24  28
ATOM     25  C   UNL     1     -10.540   6.295   0.604  0.00  0.00    +0.000 A 
ATOM     26  C   UNL     1     -10.601   4.975   1.009  0.00  0.00    +0.000 A 
ATOM     27  C   UNL     1      -9.512   4.392   1.630  0.00  0.00    +0.007 A 
ATOM     28  C   UNL     1      -8.363   5.129   1.847  0.00  0.00    -0.010 A 
ATOM     29  C   UNL     1      -8.305   6.451   1.446  0.00  0.00    +0.007 A 
ATOM     30  C   UNL     1      -9.391   7.032   0.820  0.00  0.00    +0.000 A 
ENDBRANCH  24  28
ENDBRANCH  23  24
ENDBRANCH   1  23
TORSDOF 5
