REMARK  Name = ZINC33599588
REMARK  11 active torsions:
REMARK  status: ('A' for Active; 'I' for Inactive)
REMARK    1  A    between atoms: C_1  and  C_2
REMARK    2  A    between atoms: C_2  and  C_3
REMARK    3  A    between atoms: C_7  and  C_40
REMARK    4  A    between atoms: C_8  and  N_9
REMARK    5  A    between atoms: C_14  and  C_32
REMARK    6  A    between atoms: C_17  and  C_22
REMARK    7  A    between atoms: C_17  and  C_29
REMARK    8  A    between atoms: C_22  and  C_23
REMARK    9  A    between atoms: C_34  and  C_39
REMARK   10  A    between atoms: C_37  and  C_38
REMARK   11  A    between atoms: C_40  and  C_41
REMARK                            x       y       z     vdW  Elec       q    Type
REMARK                         _______ _______ _______ _____ _____    ______ ____
ROOT
ATOM      1  N   UNL     1      -0.346   0.221   2.210  0.00  0.00    -0.209 N 
ATOM      2  C   UNL     1       0.892   0.680   2.586  0.00  0.00    +0.229 C 
ATOM      3  O   UNL     1       1.881   0.780   1.892  0.00  0.00    -0.275 OA
ATOM      4  C   UNL     1       0.766   1.018   3.977  0.00  0.00    +0.077 C 
ATOM      5  C   UNL     1       1.419   1.781   5.049  0.00  0.00    -0.026 C 
ATOM      6  N   UNL     1       0.428   1.677   6.175  0.00  0.00    +0.395 N 
ATOM      7  C   UNL     1      -0.910   1.379   5.582  0.00  0.00    +0.048 C 
ATOM      8  C   UNL     1      -0.731   1.490   4.078  0.00  0.00    +0.086 C 
ATOM      9  C   UNL     1      -1.309   0.474   3.146  0.00  0.00    +0.229 C 
ATOM     10  O   UNL     1      -2.412  -0.026   3.208  0.00  0.00    -0.275 OA
ATOM     11  H   UNL     1       0.731   0.869   6.857  0.00  0.00    -0.083 HD
ATOM     12  H   UNL     1       0.397   2.629   6.725  0.00  0.00    -0.083 HD
ENDROOT
BRANCH   5  13
ATOM     13  C   UNL     1       2.732   1.149   5.433  0.00  0.00    -0.057 A 
ATOM     14  C   UNL     1       2.772   0.187   6.426  0.00  0.00    +0.005 A 
ATOM     15  C   UNL     1       3.976  -0.396   6.773  0.00  0.00    -0.050 A 
ATOM     16  C   UNL     1       5.141  -0.010   6.136  0.00  0.00    +0.003 A 
ATOM     17  C   UNL     1       5.101   0.954   5.148  0.00  0.00    +0.004 A 
ATOM     18  C   UNL     1       3.896   1.534   4.796  0.00  0.00    -0.049 A 
ATOM     19  C   UNL     1       3.853   2.586   3.718  0.00  0.00    +0.044 C 
ATOM     20  C   UNL     1       4.020  -1.449   7.851  0.00  0.00    +0.044 C 
ENDBRANCH   5  13
BRANCH   1  26
ATOM     21  C   UNL     1      -0.954   0.286  -0.128  0.00  0.00    -0.026 A 
ATOM     22  C   UNL     1      -1.203  -0.369  -1.319  0.00  0.00    +0.005 A 
ATOM     23  C   UNL     1      -1.086  -1.745  -1.390  0.00  0.00    +0.001 A 
ATOM     24  C   UNL     1      -0.728  -2.470  -0.269  0.00  0.00    +0.005 A 
ATOM     25  C   UNL     1      -0.482  -1.822   0.926  0.00  0.00    -0.026 A 
ATOM     26  C   UNL     1      -0.594  -0.440   0.999  0.00  0.00    +0.050 A 
BRANCH  21  28
ATOM     27  C   UNL     1       0.298   2.422  -0.262  0.00  0.00    +0.009 C 
ATOM     28  C   UNL     1      -1.077   1.786  -0.052  0.00  0.00    +0.033 C 
ENDBRANCH  21  28
BRANCH  25  29
ATOM     29  C   UNL     1      -0.093  -2.613   2.148  0.00  0.00    +0.033 C 
ATOM     30  C   UNL     1      -1.340  -2.906   2.984  0.00  0.00    +0.009 C 
ENDBRANCH  25  29
ENDBRANCH   1  26
BRANCH   7  31
ATOM     31  C   UNL     1      -1.926   2.383   6.060  0.00  0.00    +0.346 C 
ATOM     32  O   UNL     1      -2.772   2.795   5.301  0.00  0.00    -0.248 OA
ATOM     33  O   UNL     1      -1.893   2.821   7.329  0.00  0.00    -0.248 OA
ENDBRANCH   7  31
BRANCH   7  34
ATOM     34  C   UNL     1      -1.352  -0.037   5.958  0.00  0.00    +0.003 C 
BRANCH  34  35
ATOM     35  C   UNL     1      -1.650  -0.098   7.457  0.00  0.00    -0.012 C 
ATOM     36  C   UNL     1      -0.353   0.104   8.244  0.00  0.00    +0.003 C 
ATOM     37  C   UNL     1      -0.652   0.044   9.743  0.00  0.00    +0.000 C 
ATOM     38  C   UNL     1      -1.252  -1.321  10.089  0.00  0.00    +0.000 C 
ATOM     39  C   UNL     1      -2.548  -1.522   9.303  0.00  0.00    +0.000 C 
ATOM     40  C   UNL     1      -2.250  -1.462   7.803  0.00  0.00    +0.003 C 
ENDBRANCH  34  35
ENDBRANCH   7  34
TORSDOF 7
