REMARK  Name = ZINC02997761
REMARK  2 active torsions:
REMARK  status: ('A' for Active; 'I' for Inactive)
REMARK    1  A    between atoms: C_4  and  S_7
REMARK    2  A    between atoms: S_7  and  N_10
REMARK                            x       y       z     vdW  Elec       q    Type
REMARK                         _______ _______ _______ _____ _____    ______ ____
ROOT
ATOM      1  N   UNL     1      -0.011   1.377   0.040  0.00  0.00    -0.197 N 
ATOM      2  C   UNL     1       0.001  -0.005  -0.067  0.00  0.00    +0.179 A 
ATOM      3  C   UNL     1      -1.212  -0.729   0.032  0.00  0.00    +0.168 A 
ATOM      4  N   UNL     1      -1.216  -2.042  -0.068  0.00  0.00    -0.227 NA
ATOM      5  C   UNL     1      -0.062  -2.698  -0.266  0.00  0.00    +0.091 A 
ATOM      6  C   UNL     1      -0.040  -4.097  -0.377  0.00  0.00    +0.030 A 
ATOM      7  C   UNL     1       1.144  -4.741  -0.578  0.00  0.00    +0.002 A 
ATOM      8  C   UNL     1       2.337  -4.029  -0.675  0.00  0.00    +0.002 A 
ATOM      9  C   UNL     1       2.351  -2.671  -0.572  0.00  0.00    +0.030 A 
ATOM     10  C   UNL     1       1.150  -1.975  -0.365  0.00  0.00    +0.091 A 
ATOM     11  N   UNL     1       1.139  -0.637  -0.266  0.00  0.00    -0.226 NA
ATOM     12  N   UNL     1      -2.405  -0.050   0.237  0.00  0.00    -0.282 N 
ATOM     13  C   UNL     1      -2.828   0.324   1.594  0.00  0.00    +0.113 C 
ATOM     14  C   UNL     1      -4.314  -0.012   1.736  0.00  0.00    +0.024 C 
ATOM     15  C   UNL     1      -5.112   0.833   0.744  0.00  0.00    +0.038 C 
ATOM     16  C   UNL     1      -4.532   0.709  -0.640  0.00  0.00    -0.026 A 
ATOM     17  C   UNL     1      -3.228   0.284  -0.844  0.00  0.00    +0.038 A 
ATOM     18  C   UNL     1      -2.723   0.186  -2.136  0.00  0.00    +0.024 A 
ATOM     19  C   UNL     1      -3.520   0.508  -3.216  0.00  0.00    +0.002 A 
ATOM     20  C   UNL     1      -4.821   0.929  -3.012  0.00  0.00    +0.000 A 
ATOM     21  C   UNL     1      -5.325   1.028  -1.729  0.00  0.00    +0.005 A 
ATOM     22  H   UNL     1      -0.853   1.850   0.130  0.00  0.00    +0.175 HD
ENDROOT
BRANCH   1  23
ATOM     23  S   UNL     1       1.413   2.222   0.007  0.00  0.00    +0.074 S 
ATOM     24  O   UNL     1       1.073   3.596   0.132  0.00  0.00    -0.150 OA
ATOM     25  O   UNL     1       2.293   1.569   0.912  0.00  0.00    -0.150 OA
BRANCH  23  29
ATOM     26  C   UNL     1       3.186   1.698  -4.125  0.00  0.00    +0.000 A 
ATOM     27  C   UNL     1       2.329   2.752  -3.869  0.00  0.00    +0.002 A 
ATOM     28  C   UNL     1       1.788   2.912  -2.607  0.00  0.00    +0.029 A 
ATOM     29  C   UNL     1       2.103   2.018  -1.601  0.00  0.00    +0.109 A 
ATOM     30  C   UNL     1       2.965   0.967  -1.855  0.00  0.00    +0.029 A 
ATOM     31  C   UNL     1       3.502   0.804  -3.119  0.00  0.00    +0.002 A 
ENDBRANCH  23  29
ENDBRANCH   1  23
TORSDOF 2
