REMARK  Name = ZINC67227036
REMARK  9 active torsions:
REMARK  status: ('A' for Active; 'I' for Inactive)
REMARK    1  A    between atoms: C_1  and  C_2
REMARK    2  A    between atoms: C_5  and  C_11
REMARK    3  A    between atoms: C_6  and  C_10
REMARK    4  A    between atoms: C_7  and  O_8
REMARK    5  A    between atoms: O_8  and  C_9
REMARK    6  A    between atoms: C_11  and  N_12
REMARK    7  A    between atoms: N_15  and  C_18
REMARK    8  A    between atoms: C_21  and  S_24
REMARK    9  A    between atoms: S_24  and  N_27
REMARK                            x       y       z     vdW  Elec       q    Type
REMARK                         _______ _______ _______ _____ _____    ______ ____
ROOT
ATOM      1  N   UNL     1      -1.633  -4.461   0.655  0.00  0.00    -0.294 NA
ATOM      2  C   UNL     1      -1.978  -3.793   1.918  0.00  0.00    +0.103 C 
ATOM      3  C   UNL     1      -3.481  -3.944   2.177  0.00  0.00    +0.120 C 
ATOM      4  N   UNL     1      -3.825  -5.373   2.115  0.00  0.00    -0.327 N 
ATOM      5  C   UNL     1      -3.391  -6.142   0.939  0.00  0.00    +0.120 C 
ATOM      6  C   UNL     1      -1.892  -5.905   0.728  0.00  0.00    +0.103 C 
ENDROOT
BRANCH   4   7
ATOM      7  C   UNL     1      -4.544  -5.982   3.146  0.00  0.00    +0.030 A 
ATOM      8  C   UNL     1      -4.858  -5.266   4.294  0.00  0.00    +0.025 A 
ATOM      9  C   UNL     1      -5.570  -5.872   5.310  0.00  0.00    +0.030 A 
ATOM     10  C   UNL     1      -5.970  -7.190   5.187  0.00  0.00    +0.105 A 
ATOM     11  C   UNL     1      -5.658  -7.906   4.045  0.00  0.00    +0.030 A 
ATOM     12  C   UNL     1      -4.952  -7.304   3.022  0.00  0.00    +0.025 A 
BRANCH  10  13
ATOM     13  S   UNL     1      -6.876  -7.960   6.487  0.00  0.00    +0.056 S 
ATOM     14  O   UNL     1      -6.660  -9.358   6.361  0.00  0.00    -0.153 OA
ATOM     15  O   UNL     1      -6.567  -7.245   7.676  0.00  0.00    -0.153 OA
BRANCH  13  16
ATOM     16  N   UNL     1      -8.483  -7.700   6.183  0.00  0.00    -0.204 NA
ATOM     17  H   UNL     1      -9.143  -8.349   6.475  0.00  0.00    +0.144 HD
ATOM     18  H   UNL     1      -8.765  -6.900   5.712  0.00  0.00    +0.144 HD
ENDBRANCH  13  16
ENDBRANCH  10  13
ENDBRANCH   4   7
BRANCH   1  19
ATOM     19  C   UNL     1      -0.238  -4.194   0.283  0.00  0.00    +0.138 C 
BRANCH  19  24
ATOM     20  C   UNL     1       0.342   1.299  -1.267  0.00  0.00    +0.049 C 
ATOM     21  C   UNL     1       0.172  -0.151  -0.895  0.00  0.00    +0.007 A 
ATOM     22  C   UNL     1       0.619  -0.617   0.325  0.00  0.00    +0.089 A 
ATOM     23  N   UNL     1       0.474  -1.885   0.658  0.00  0.00    -0.363 N 
ATOM     24  C   UNL     1      -0.099  -2.757  -0.150  0.00  0.00    +0.037 A 
ATOM     25  C   UNL     1      -0.573  -2.370  -1.387  0.00  0.00    +0.012 A 
ATOM     26  C   UNL     1      -0.444  -1.038  -1.774  0.00  0.00    +0.129 A 
ATOM     27  C   UNL     1      -1.225  -3.372  -2.303  0.00  0.00    +0.049 C 
ATOM     28  H   UNL     1       0.797  -2.185   1.522  0.00  0.00    +0.165 HD
BRANCH  26  29
ATOM     29  O   UNL     1      -0.901  -0.617  -2.981  0.00  0.00    -0.494 OA
ATOM     30  C   UNL     1       0.010  -0.683  -4.079  0.00  0.00    +0.277 C 
ENDBRANCH  26  29
ENDBRANCH  19  24
ENDBRANCH   1  19
TORSDOF 6
