REMARK  Name = ZINC05884777
REMARK  3 active torsions:
REMARK  status: ('A' for Active; 'I' for Inactive)
REMARK    1  A    between atoms: C_1  and  C_2
REMARK    2  A    between atoms: C_12  and  C_13
REMARK    3  A    between atoms: C_12  and  O_15
REMARK                            x       y       z     vdW  Elec       q    Type
REMARK                         _______ _______ _______ _____ _____    ______ ____
ROOT
ATOM      1  C   UNL     1       0.260   3.493  -1.167  0.00  0.00    +0.020 C 
ATOM      2  C   UNL     1       1.143   3.088   0.015  0.00  0.00    +0.030 C 
ATOM      3  C   UNL     1       0.428   3.509   1.286  0.00  0.00    +0.022 C 
ATOM      4  C   UNL     1       0.625   4.995   1.581  0.00  0.00    +0.080 C 
ATOM      5  C   UNL     1       2.118   5.243   1.684  0.00  0.00    +0.156 C 
ATOM      6  O   UNL     1       2.602   5.847   2.619  0.00  0.00    -0.293 OA
ATOM      7  C   UNL     1       2.945   4.715   0.595  0.00  0.00    +0.046 C 
ATOM      8  C   UNL     1       2.488   3.724  -0.170  0.00  0.00    -0.057 C 
ATOM      9  C   UNL     1       3.381   3.228  -1.293  0.00  0.00    +0.031 C 
ATOM     10  C   UNL     1       3.457   1.701  -1.227  0.00  0.00    +0.008 C 
ATOM     11  C   UNL     1       2.038   1.127  -1.260  0.00  0.00    +0.049 C 
ATOM     12  C   UNL     1       1.286   1.562  -0.002  0.00  0.00    +0.135 C 
ENDROOT
BRANCH  12  13
ATOM     13  C   UNL     1       2.034   1.128   1.190  0.00  0.00    -0.070 C 
ATOM     14  C   UNL     1       2.631   0.782   2.140  0.00  0.00    +0.007 C 
ENDBRANCH  12  13
BRANCH  12  15
ATOM     15  O   UNL     1      -0.011   0.963   0.007  0.00  0.00    -0.376 OA
ATOM     16  H   UNL     1       0.002  -0.004   0.002  0.00  0.00    +0.211 HD
ENDBRANCH  12  15
TORSDOF 2
