REMARK  Name = ZINC40116801
REMARK  8 active torsions:
REMARK  status: ('A' for Active; 'I' for Inactive)
REMARK    1  A    between atoms: C_1  and  C_2
REMARK    2  A    between atoms: C_2  and  C_3
REMARK    3  A    between atoms: C_2  and  N_4
REMARK    4  A    between atoms: C_5  and  C_7
REMARK    5  A    between atoms: C_7  and  N_8
REMARK    6  A    between atoms: C_11  and  C_15
REMARK    7  A    between atoms: C_11  and  C_16
REMARK    8  A    between atoms: C_20  and  C_22
REMARK                            x       y       z     vdW  Elec       q    Type
REMARK                         _______ _______ _______ _____ _____    ______ ____
ROOT
ATOM      1  N   UNL     1       4.181  -1.104  -2.214  0.00  0.00    -0.215 N 
ATOM      2  C   UNL     1       5.010  -0.068  -2.449  0.00  0.00    +0.251 C 
ATOM      3  O   UNL     1       4.713   1.024  -2.883  0.00  0.00    -0.272 OA
ATOM      4  C   UNL     1       6.392  -0.552  -2.057  0.00  0.00    +0.135 C 
ATOM      5  N   UNL     1       6.160  -1.934  -1.605  0.00  0.00    -0.281 N 
ATOM      6  C   UNL     1       4.840  -2.163  -1.729  0.00  0.00    +0.310 C 
ATOM      7  O   UNL     1       4.306  -3.214  -1.436  0.00  0.00    -0.252 OA
ATOM      8  C   UNL     1       6.958   0.300  -0.919  0.00  0.00    +0.047 C 
ATOM      9  H   UNL     1       6.827  -2.557  -1.278  0.00  0.00    +0.152 HD
ENDROOT
BRANCH   4  10
ATOM     10  C   UNL     1       7.318  -0.532  -3.247  0.00  0.00    -0.015 A 
ATOM     11  C   UNL     1       7.134   0.401  -4.250  0.00  0.00    +0.006 A 
ATOM     12  C   UNL     1       7.983   0.419  -5.341  0.00  0.00    +0.001 A 
ATOM     13  C   UNL     1       9.016  -0.496  -5.428  0.00  0.00    +0.012 A 
ATOM     14  C   UNL     1       9.200  -1.428  -4.424  0.00  0.00    +0.055 A 
ATOM     15  C   UNL     1       8.354  -1.443  -3.331  0.00  0.00    +0.018 A 
BRANCH  14  16
ATOM     16  C   UNL     1      10.326  -2.425  -4.519  0.00  0.00    +0.417 C 
ATOM     17  F   UNL     1      11.040  -2.211  -5.703  0.00  0.00    -0.166 F 
ATOM     18  F   UNL     1      11.182  -2.269  -3.423  0.00  0.00    -0.166 F 
ATOM     19  F   UNL     1       9.802  -3.722  -4.520  0.00  0.00    -0.166 F 
ENDBRANCH  14  16
ENDBRANCH   4  10
BRANCH   1  20
ATOM     20  C   UNL     1       2.736  -1.073  -2.455  0.00  0.00    +0.213 C 
BRANCH  20  22
ATOM     21  N   UNL     1       0.688  -0.476  -1.203  0.00  0.00    -0.312 N 
ATOM     22  C   UNL     1       2.031  -0.587  -1.215  0.00  0.00    +0.231 C 
ATOM     23  O   UNL     1       2.672  -0.295  -0.228  0.00  0.00    -0.274 OA
ATOM     24  H   UNL     1       0.175  -0.710  -1.993  0.00  0.00    +0.149 HD
BRANCH  21  26
ATOM     25  C   UNL     1      -0.019   1.526   0.010  0.00  0.00    +0.027 C 
ATOM     26  C   UNL     1       0.002  -0.004   0.002  0.00  0.00    +0.067 C 
ATOM     27  C   UNL     1      -1.433  -0.534   0.013  0.00  0.00    +0.027 C 
ENDBRANCH  21  26
ENDBRANCH  20  22
ENDBRANCH   1  20
TORSDOF 5
