REMARK  Name = ZINC65076485
REMARK  7 active torsions:
REMARK  status: ('A' for Active; 'I' for Inactive)
REMARK    1  A    between atoms: C_1  and  C_2
REMARK    2  A    between atoms: C_5  and  C_8
REMARK    3  A    between atoms: C_8  and  N_9
REMARK    4  A    between atoms: C_10  and  C_12
REMARK    5  A    between atoms: C_12  and  N_13
REMARK    6  A    between atoms: C_18  and  C_20
REMARK    7  A    between atoms: C_30  and  C_32
REMARK                            x       y       z     vdW  Elec       q    Type
REMARK                         _______ _______ _______ _____ _____    ______ ____
ROOT
ATOM      1  N   UNL     1       3.288  -7.986  -0.061  0.00  0.00    -0.220 N 
ATOM      2  C   UNL     1       3.166  -8.624  -1.240  0.00  0.00    +0.268 A 
ATOM      3  O   UNL     1       3.097  -7.989  -2.278  0.00  0.00    -0.266 OA
ATOM      4  C   UNL     1       3.120 -10.036  -1.266  0.00  0.00    +0.074 A 
ATOM      5  C   UNL     1       3.201 -10.700  -0.078  0.00  0.00    +0.040 A 
ATOM      6  C   UNL     1       3.328  -9.937   1.109  0.00  0.00    +0.146 A 
ATOM      7  N   UNL     1       3.369  -8.625   1.050  0.00  0.00    -0.163 NA
ENDROOT
BRANCH   6   8
ATOM      8  C   UNL     1       3.419 -10.620   2.417  0.00  0.00    +0.271 C 
ATOM      9  O   UNL     1       3.508 -11.831   2.466  0.00  0.00    -0.268 OA
ATOM     10  N   UNL     1       3.403  -9.898   3.556  0.00  0.00    -0.263 N 
ATOM     11  C   UNL     1       3.617 -10.417   4.835  0.00  0.00    +0.040 A 
ATOM     12  C   UNL     1       3.882 -11.732   5.224  0.00  0.00    +0.024 A 
ATOM     13  C   UNL     1       4.064 -12.040   6.556  0.00  0.00    +0.002 A 
ATOM     14  C   UNL     1       3.984 -11.048   7.517  0.00  0.00    +0.000 A 
ATOM     15  C   UNL     1       3.722  -9.744   7.139  0.00  0.00    +0.005 A 
ATOM     16  C   UNL     1       3.540  -9.431   5.806  0.00  0.00    -0.024 A 
ATOM     17  C   UNL     1       3.245  -8.111   5.129  0.00  0.00    +0.059 C 
ATOM     18  C   UNL     1       3.165  -8.454   3.632  0.00  0.00    +0.083 C 
ATOM     19  C   UNL     1       1.777  -8.115   3.086  0.00  0.00    +0.029 C 
ENDBRANCH   6   8
BRANCH   1  20
ATOM     20  C   UNL     1       3.335  -6.522  -0.045  0.00  0.00    +0.243 C 
BRANCH  20  22
ATOM     21  N   UNL     1       1.728  -4.642  -0.020  0.00  0.00    -0.310 N 
ATOM     22  C   UNL     1       1.931  -5.974  -0.035  0.00  0.00    +0.235 C 
ATOM     23  O   UNL     1       0.985  -6.732  -0.040  0.00  0.00    -0.274 OA
ATOM     24  H   UNL     1       2.485  -4.035  -0.016  0.00  0.00    +0.149 HD
BRANCH  21  25
ATOM     25  C   UNL     1       0.363  -4.109  -0.010  0.00  0.00    +0.139 C 
BRANCH  25  30
ATOM     26  C   UNL     1       0.546   1.666   0.051  0.00  0.00    +0.044 C 
ATOM     27  C   UNL     1       0.498   0.160   0.035  0.00  0.00    -0.050 A 
ATOM     28  C   UNL     1       0.474  -0.518  -1.169  0.00  0.00    +0.003 A 
ATOM     29  C   UNL     1       0.430  -1.899  -1.184  0.00  0.00    +0.005 A 
ATOM     30  C   UNL     1       0.412  -2.603   0.006  0.00  0.00    -0.030 A 
ATOM     31  C   UNL     1       0.437  -1.925   1.210  0.00  0.00    +0.005 A 
ATOM     32  C   UNL     1       0.485  -0.544   1.225  0.00  0.00    +0.003 A 
ENDBRANCH  25  30
ENDBRANCH  21  25
ENDBRANCH  20  22
ENDBRANCH   1  20
TORSDOF 5
