REMARK  Name = ZINC13075502
REMARK  11 active torsions:
REMARK  status: ('A' for Active; 'I' for Inactive)
REMARK    1  A    between atoms: C_1  and  C_2
REMARK    2  A    between atoms: C_7  and  C_8
REMARK    3  A    between atoms: C_8  and  C_10
REMARK    4  A    between atoms: C_8  and  N_11
REMARK    5  A    between atoms: C_12  and  C_14
REMARK    6  A    between atoms: C_14  and  S_15
REMARK    7  A    between atoms: S_15  and  C_16
REMARK    8  A    between atoms: C_19  and  C_28
REMARK    9  A    between atoms: N_20  and  C_21
REMARK   10  A    between atoms: C_28  and  C_30
REMARK   11  A    between atoms: C_28  and  N_66
REMARK                            x       y       z     vdW  Elec       q    Type
REMARK                         _______ _______ _______ _____ _____    ______ ____
ROOT
ATOM      1  C   UNL     1      -4.015   0.976   1.177  0.00  0.00    +0.197 A 
ATOM      2  N   UNL     1      -4.119   2.283   1.112  0.00  0.00    -0.122 NA
ATOM      3  N   UNL     1      -5.342   2.635   1.291  0.00  0.00    -0.135 NA
ATOM      4  C   UNL     1      -6.088   1.583   1.480  0.00  0.00    +0.125 A 
ATOM      5  N   UNL     1      -5.270   0.486   1.410  0.00  0.00    -0.275 N 
ENDROOT
BRANCH   5   6
ATOM      6  C   UNL     1      -5.643  -0.860   1.549  0.00  0.00    +0.050 A 
ATOM      7  C   UNL     1      -6.489  -1.447   0.618  0.00  0.00    +0.029 A 
ATOM      8  C   UNL     1      -6.849  -2.773   0.754  0.00  0.00    +0.040 A 
ATOM      9  C   UNL     1      -6.378  -3.514   1.825  0.00  0.00    +0.124 A 
ATOM     10  C   UNL     1      -5.539  -2.928   2.758  0.00  0.00    +0.040 A 
ATOM     11  C   UNL     1      -5.171  -1.603   2.622  0.00  0.00    +0.029 A 
ATOM     12  F   UNL     1      -6.737  -4.809   1.960  0.00  0.00    -0.205 F 
ENDBRANCH   5   6
BRANCH   4  13
ATOM     13  C   UNL     1      -7.574   1.575   1.726  0.00  0.00    -0.002 C 
ATOM     14  C   UNL     1      -7.856   2.006   3.167  0.00  0.00    -0.005 C 
BRANCH  13  20
ATOM     15  C   UNL     1      -9.686   2.497   0.983  0.00  0.00    -0.078 C 
ATOM     16  C   UNL     1     -10.320   3.580   0.108  0.00  0.00    -0.019 C 
ATOM     17  C   UNL     1      -9.970   3.313  -1.359  0.00  0.00    -0.004 C 
ATOM     18  C   UNL     1      -8.447   3.282  -1.515  0.00  0.00    -0.019 C 
ATOM     19  C   UNL     1      -7.867   2.207  -0.592  0.00  0.00    -0.078 C 
ATOM     20  N   UNL     1      -8.219   2.534   0.806  0.00  0.00    +0.386 N 
ATOM     21  H   UNL     1      -7.882   3.480   1.021  0.00  0.00    -0.081 HD
ENDBRANCH  13  20
ENDBRANCH   4  13
BRANCH   1  22
ATOM     22  S   UNL     1      -2.539   0.032   0.992  0.00  0.00    -0.076 S 
BRANCH  22  23
ATOM     23  C   UNL     1      -1.346   1.364   0.712  0.00  0.00    +0.173 C 
BRANCH  23  25
ATOM     24  N   UNL     1       1.081   1.585   0.291  0.00  0.00    -0.308 N 
ATOM     25  C   UNL     1       0.028   0.776   0.521  0.00  0.00    +0.224 C 
ATOM     26  O   UNL     1       0.186  -0.426   0.571  0.00  0.00    -0.275 OA
ATOM     27  H   UNL     1       0.955   2.546   0.252  0.00  0.00    +0.149 HD
BRANCH  24  28
ATOM     28  C   UNL     1       2.417   1.013   0.100  0.00  0.00    +0.100 C 
ATOM     29  C   UNL     1       2.600   0.626  -1.369  0.00  0.00    +0.033 C 
BRANCH  28  36
ATOM     30  C   UNL     1       5.021   0.144   0.998  0.00  0.00    +0.044 C 
ATOM     31  C   UNL     1       4.705   1.615   0.915  0.00  0.00    -0.046 A 
ATOM     32  C   UNL     1       5.661   2.549   1.269  0.00  0.00    +0.004 A 
ATOM     33  C   UNL     1       5.372   3.898   1.192  0.00  0.00    +0.000 A 
ATOM     34  C   UNL     1       4.125   4.314   0.762  0.00  0.00    +0.000 A 
ATOM     35  C   UNL     1       3.171   3.380   0.404  0.00  0.00    +0.006 A 
ATOM     36  C   UNL     1       3.459   2.031   0.486  0.00  0.00    -0.025 A 
ENDBRANCH  28  36
ENDBRANCH  24  28
ENDBRANCH  23  25
ENDBRANCH  22  23
ENDBRANCH   1  22
TORSDOF 8
