REMARK  Name = ZINC04581019
REMARK  6 active torsions:
REMARK  status: ('A' for Active; 'I' for Inactive)
REMARK    1  A    between atoms: C_1  and  C_2
REMARK    2  A    between atoms: C_2  and  C_3
REMARK    3  A    between atoms: C_3  and  C_28
REMARK    4  A    between atoms: C_8  and  C_10
REMARK    5  A    between atoms: C_15  and  O_16
REMARK    6  A    between atoms: N_19  and  C_22
REMARK                            x       y       z     vdW  Elec       q    Type
REMARK                         _______ _______ _______ _____ _____    ______ ____
ROOT
ATOM      1  C   UNL     1      -5.396   4.059   1.286  0.00  0.00    +0.048 C 
ATOM      2  C   UNL     1      -4.623   4.331  -0.021  0.00  0.00    +0.086 C 
ATOM      3  C   UNL     1      -4.010   5.747   0.148  0.00  0.00    +0.077 C 
ATOM      4  C   UNL     1      -4.472   6.194   1.568  0.00  0.00    -0.023 C 
ATOM      5  C   UNL     1      -2.521   5.482   0.173  0.00  0.00    +0.229 C 
ATOM      6  O   UNL     1      -1.661   6.328   0.296  0.00  0.00    -0.275 OA
ATOM      7  N   UNL     1      -2.301   4.170   0.035  0.00  0.00    -0.210 N 
ATOM      8  C   UNL     1      -3.410   3.430  -0.078  0.00  0.00    +0.229 C 
ATOM      9  O   UNL     1      -3.438   2.225  -0.208  0.00  0.00    -0.275 OA
ATOM     10  N   UNL     1      -4.753   4.938   2.263  0.00  0.00    +0.396 N 
ATOM     11  H   UNL     1      -3.881   4.515   2.600  0.00  0.00    -0.083 HD
ATOM     12  H   UNL     1      -5.382   5.105   3.057  0.00  0.00    -0.083 HD
ENDROOT
BRANCH   4  13
ATOM     13  C   UNL     1      -3.381   6.972   2.258  0.00  0.00    -0.019 A 
ATOM     14  C   UNL     1      -2.454   6.316   3.044  0.00  0.00    +0.005 A 
ATOM     15  C   UNL     1      -1.453   7.029   3.677  0.00  0.00    +0.000 A 
ATOM     16  C   UNL     1      -1.377   8.401   3.525  0.00  0.00    +0.004 A 
ATOM     17  C   UNL     1      -2.302   9.063   2.741  0.00  0.00    +0.045 A 
ATOM     18  C   UNL     1      -3.304   8.348   2.100  0.00  0.00    +0.118 A 
BRANCH  18  19
ATOM     19  O   UNL     1      -4.211   8.996   1.323  0.00  0.00    -0.507 OA
ATOM     20  H   UNL     1      -4.997   9.294   1.801  0.00  0.00    +0.292 HD
ENDBRANCH  18  19
ENDBRANCH   4  13
BRANCH   7  21
ATOM     21  C   UNL     1      -1.014   3.614   0.017  0.00  0.00    +0.044 A 
ATOM     22  C   UNL     1      -0.154   3.885  -1.039  0.00  0.00    +0.024 A 
ATOM     23  C   UNL     1       1.112   3.333  -1.056  0.00  0.00    +0.002 A 
ATOM     24  C   UNL     1       1.527   2.519  -0.018  0.00  0.00    +0.000 A 
ATOM     25  C   UNL     1       0.675   2.252   1.037  0.00  0.00    +0.002 A 
ATOM     26  C   UNL     1      -0.594   2.797   1.058  0.00  0.00    +0.024 A 
ENDBRANCH   7  21
BRANCH   1  27
ATOM     27  C   UNL     1      -5.271   2.609   1.678  0.00  0.00    +0.346 C 
ATOM     28  O   UNL     1      -6.105   1.812   1.321  0.00  0.00    -0.248 OA
ATOM     29  O   UNL     1      -4.231   2.204   2.424  0.00  0.00    -0.248 OA
ENDBRANCH   1  27
BRANCH   1  31
ATOM     30  C   UNL     1      -7.589   4.280   2.463  0.00  0.00    +0.003 C 
ATOM     31  C   UNL     1      -6.869   4.440   1.122  0.00  0.00    -0.004 C 
ENDBRANCH   1  31
TORSDOF 5
