REMARK  Name = ZINC32639611
REMARK  7 active torsions:
REMARK  status: ('A' for Active; 'I' for Inactive)
REMARK    1  A    between atoms: C_1  and  C_2
REMARK    2  A    between atoms: C_2  and  C_3
REMARK    3  A    between atoms: C_3  and  C_4
REMARK    4  A    between atoms: C_3  and  C_6
REMARK    5  A    between atoms: C_4  and  C_5
REMARK    6  A    between atoms: C_6  and  N_8
REMARK    7  A    between atoms: N_10  and  C_21
REMARK                            x       y       z     vdW  Elec       q    Type
REMARK                         _______ _______ _______ _____ _____    ______ ____
ROOT
ATOM      1  N   UNL     1       1.906  -2.181  -0.290  0.00  0.00    -0.159 NA
ATOM      2  C   UNL     1       1.814  -3.494  -0.472  0.00  0.00    +0.154 C 
ATOM      3  N   UNL     1       1.291  -4.434   0.421  0.00  0.00    -0.276 N 
ATOM      4  C   UNL     1       2.001  -5.676   0.299  0.00  0.00    +0.116 C 
ATOM      5  C   UNL     1       1.707  -6.939   1.079  0.00  0.00    +0.190 C 
ATOM      6  S   UNL     1       2.592  -8.181   0.026  0.00  0.00    -0.028 S 
ATOM      7  O   UNL     1       3.785  -8.583   0.686  0.00  0.00    -0.174 OA
ATOM      8  O   UNL     1       1.666  -9.168  -0.407  0.00  0.00    -0.174 OA
ATOM      9  C   UNL     1       3.031  -7.088  -1.408  0.00  0.00    +0.182 C 
ATOM     10  C   UNL     1       1.896  -6.050  -1.230  0.00  0.00    +0.097 C 
ATOM     11  S   UNL     1       2.299  -4.373  -1.836  0.00  0.00    -0.086 S 
ENDROOT
BRANCH   3  12
ATOM     12  C   UNL     1       0.232  -4.199   1.305  0.00  0.00    +0.037 A 
ATOM     13  C   UNL     1      -1.070  -4.126   0.827  0.00  0.00    +0.023 A 
ATOM     14  C   UNL     1      -2.113  -3.894   1.701  0.00  0.00    +0.003 A 
ATOM     15  C   UNL     1      -1.863  -3.734   3.052  0.00  0.00    +0.014 A 
ATOM     16  C   UNL     1      -0.568  -3.806   3.531  0.00  0.00    +0.015 A 
ATOM     17  C   UNL     1       0.480  -4.044   2.662  0.00  0.00    +0.037 A 
ATOM     18  I   UNL     1      -0.194  -3.563   5.578  0.00  0.00    -0.044 I 
ENDBRANCH   3  12
BRANCH   1  19
ATOM     19  C   UNL     1       1.509  -1.639   0.859  0.00  0.00    +0.241 C 
ATOM     20  O   UNL     1       2.006  -2.004   1.906  0.00  0.00    -0.273 OA
BRANCH  19  21
ATOM     21  C   UNL     1       0.444  -0.573   0.861  0.00  0.00    +0.077 C 
BRANCH  21  23
ATOM     22  C   UNL     1      -1.872  -0.014   0.111  0.00  0.00    +0.004 C 
ATOM     23  C   UNL     1      -0.843  -1.136   0.255  0.00  0.00    +0.009 C 
ENDBRANCH  21  23
BRANCH  21  24
ATOM     24  C   UNL     1       0.176  -0.123   2.299  0.00  0.00    +0.009 C 
ATOM     25  C   UNL     1       1.414   0.589   2.849  0.00  0.00    +0.004 C 
ENDBRANCH  21  24
ENDBRANCH  19  21
ENDBRANCH   1  19
TORSDOF 5
