REMARK  Name = ZINC02770169
REMARK  7 active torsions:
REMARK  status: ('A' for Active; 'I' for Inactive)
REMARK    1  A    between atoms: C_1  and  C_2
REMARK    2  A    between atoms: C_2  and  C_31
REMARK    3  A    between atoms: C_10  and  C_29
REMARK    4  A    between atoms: C_12  and  C_14
REMARK    5  A    between atoms: N_16  and  C_17
REMARK    6  A    between atoms: C_22  and  C_23
REMARK    7  A    between atoms: C_23  and  C_25
REMARK                            x       y       z     vdW  Elec       q    Type
REMARK                         _______ _______ _______ _____ _____    ______ ____
ROOT
ATOM      1  C   UNL     1       2.467   4.192  -0.020  0.00  0.00    +0.222 C 
ATOM      2  O   UNL     1       2.643   3.591   1.018  0.00  0.00    -0.275 OA
ATOM      3  N   UNL     1       2.373   3.516  -1.182  0.00  0.00    -0.285 N 
ATOM      4  H   UNL     1       2.314   4.000  -2.021  0.00  0.00    +0.155 HD
ENDROOT
BRANCH   1  13
ATOM      5  C   UNL     1       4.322   9.230  -1.066  0.00  0.00    +0.039 C 
ATOM      6  C   UNL     1       3.715   8.930   0.280  0.00  0.00    -0.076 C 
ATOM      7  C   UNL     1       3.502   7.689   0.640  0.00  0.00    -0.063 C 
ATOM      8  C   UNL     1       3.764   6.350  -0.087  0.00  0.00    +0.028 C 
ATOM      9  C   UNL     1       4.609   5.596   0.984  0.00  0.00    +0.009 C 
ATOM     10  C   UNL     1       4.045   6.101   2.345  0.00  0.00    +0.009 C 
ATOM     11  C   UNL     1       2.907   7.083   1.932  0.00  0.00    +0.030 C 
ATOM     12  C   UNL     1       1.778   6.185   1.340  0.00  0.00    +0.122 C 
ATOM     13  C   UNL     1       2.352   5.694  -0.010  0.00  0.00    +0.097 C 
ATOM     14  C   UNL     1       3.353  10.058   1.212  0.00  0.00    +0.039 C 
BRANCH  12  15
ATOM     15  C   UNL     1       0.524   6.990   1.119  0.00  0.00    +0.360 C 
ATOM     16  O   UNL     1       0.482   8.149   1.460  0.00  0.00    -0.246 OA
ATOM     17  O   UNL     1      -0.547   6.421   0.544  0.00  0.00    -0.246 OA
ENDBRANCH  12  15
ENDBRANCH   1  13
BRANCH   3  18
ATOM     18  C   UNL     1       2.362   2.123  -1.180  0.00  0.00    +0.048 A 
ATOM     19  C   UNL     1       1.746   1.436  -0.146  0.00  0.00    +0.073 A 
ATOM     20  C   UNL     1       1.733   0.050  -0.142  0.00  0.00    +0.168 A 
ATOM     21  C   UNL     1       2.342  -0.663  -1.180  0.00  0.00    +0.167 A 
ATOM     22  C   UNL     1       2.958   0.008  -2.213  0.00  0.00    +0.062 A 
ATOM     23  C   UNL     1       2.975   1.411  -2.225  0.00  0.00    +0.042 A 
ATOM     24  O   UNL     1       2.189  -1.999  -0.937  0.00  0.00    -0.453 OA
ATOM     25  C   UNL     1       1.844  -2.098   0.458  0.00  0.00    +0.466 C 
ATOM     26  O   UNL     1       1.202  -0.841   0.743  0.00  0.00    -0.453 OA
BRANCH  23  27
ATOM     27  C   UNL     1       3.634   2.129  -3.319  0.00  0.00    +0.162 C 
ATOM     28  O   UNL     1       3.569   3.339  -3.375  0.00  0.00    -0.292 OA
ATOM     29  C   UNL     1       4.393   1.365  -4.373  0.00  0.00    +0.091 C 
ENDBRANCH  23  27
ENDBRANCH   3  18
TORSDOF 4
