REMARK  Name = ZINC39110813
REMARK  1 active torsions:
REMARK  status: ('A' for Active; 'I' for Inactive)
REMARK    1  A    between atoms: C_1  and  C_2
REMARK                            x       y       z     vdW  Elec       q    Type
REMARK                         _______ _______ _______ _____ _____    ______ ____
ROOT
ATOM      1  C   UNL     1      -0.019   1.526   0.010  0.00  0.00    +0.031 C 
ATOM      2  C   UNL     1       0.002  -0.004   0.002  0.00  0.00    +0.115 C 
ATOM      3  S   UNL     1      -1.703  -0.634   0.016  0.00  0.00    -0.072 S 
ATOM      4  C   UNL     1      -1.453  -2.369   0.255  0.00  0.00    +0.183 C 
ATOM      5  N   UNL     1      -2.029  -3.246  -0.529  0.00  0.00    -0.276 NA
ATOM      6  N   UNL     1      -0.649  -2.766   1.268  0.00  0.00    -0.208 NA
ATOM      7  C   UNL     1       0.305  -2.104   1.795  0.00  0.00    +0.143 C 
ATOM      8  S   UNL     1       0.876  -0.604   1.468  0.00  0.00    -0.084 S 
ATOM      9 BR   UNL     1       1.215  -3.006   3.185  0.00  0.00    -0.021 Br
ATOM     10  H   UNL     1      -2.603  -2.947  -1.252  0.00  0.00    +0.189 HD
ENDROOT
TORSDOF 0
