REMARK  Name = ZINC39584511
REMARK  8 active torsions:
REMARK  status: ('A' for Active; 'I' for Inactive)
REMARK    1  A    between atoms: C_1  and  C_2
REMARK    2  A    between atoms: C_5  and  C_9
REMARK    3  A    between atoms: C_7  and  C_8
REMARK    4  A    between atoms: C_11  and  C_15
REMARK    5  A    between atoms: N_17  and  N_18
REMARK    6  A    between atoms: C_19  and  C_20
REMARK    7  A    between atoms: C_19  and  C_21
REMARK    8  A    between atoms: C_26  and  O_27
REMARK                            x       y       z     vdW  Elec       q    Type
REMARK                         _______ _______ _______ _____ _____    ______ ____
ROOT
ATOM      1  C   UNL     1       1.447  -6.946  -1.139  0.00  0.00    +0.263 C 
ATOM      2  O   UNL     1       2.392  -7.047  -0.386  0.00  0.00    -0.271 OA
ATOM      3  N   UNL     1       1.482  -7.540  -2.348  0.00  0.00    -0.205 N 
ATOM      4  H   UNL     1       0.726  -7.459  -2.951  0.00  0.00    +0.177 HD
ENDROOT
BRANCH   1   7
ATOM      5  C   UNL     1       0.293  -3.941  -0.282  0.00  0.00    +0.092 C 
ATOM      6  C   UNL     1       0.259  -4.769  -1.344  0.00  0.00    +0.041 C 
ATOM      7  C   UNL     1       0.233  -6.154  -0.724  0.00  0.00    +0.240 C 
ATOM      8  N   UNL     1       0.260  -5.876   0.722  0.00  0.00    -0.170 NA
ATOM      9  N   UNL     1       0.298  -4.653   0.875  0.00  0.00    -0.153 NA
BRANCH   5  14
ATOM     10  C   UNL     1       0.428   1.808  -0.602  0.00  0.00    +0.044 C 
ATOM     11  C   UNL     1       0.393   0.304  -0.519  0.00  0.00    -0.047 A 
ATOM     12  C   UNL     1       0.353  -0.450  -1.678  0.00  0.00    +0.004 A 
ATOM     13  C   UNL     1       0.321  -1.828  -1.607  0.00  0.00    +0.010 A 
ATOM     14  C   UNL     1       0.329  -2.460  -0.365  0.00  0.00    +0.002 A 
ATOM     15  C   UNL     1       0.369  -1.695   0.800  0.00  0.00    +0.013 A 
ATOM     16  C   UNL     1       0.406  -0.318   0.717  0.00  0.00    -0.047 A 
ATOM     17  C   UNL     1       0.455   0.510   1.975  0.00  0.00    +0.044 C 
ENDBRANCH   5  14
ENDBRANCH   1   7
BRANCH   3  18
ATOM     18  N   UNL     1       2.610  -8.276  -2.735  0.00  0.00    -0.184 NA
ATOM     19  C   UNL     1       2.607  -8.927  -3.857  0.00  0.00    +0.067 C 
ATOM     20  C   UNL     1       3.767  -9.820  -4.214  0.00  0.00    +0.068 C 
BRANCH  19  21
ATOM     21  C   UNL     1       1.469  -8.793  -4.784  0.00  0.00    +0.039 A 
ATOM     22  C   UNL     1       1.206  -7.567  -5.401  0.00  0.00    +0.013 A 
ATOM     23  C   UNL     1       0.139  -7.449  -6.267  0.00  0.00    +0.001 A 
ATOM     24  C   UNL     1      -0.672  -8.539  -6.528  0.00  0.00    +0.004 A 
ATOM     25  C   UNL     1      -0.423  -9.757  -5.924  0.00  0.00    +0.046 A 
ATOM     26  C   UNL     1       0.648  -9.895  -5.056  0.00  0.00    +0.126 A 
BRANCH  26  27
ATOM     27  O   UNL     1       0.897 -11.093  -4.466  0.00  0.00    -0.506 OA
ATOM     28  H   UNL     1       0.507 -11.187  -3.586  0.00  0.00    +0.292 HD
ENDBRANCH  26  27
ENDBRANCH  19  21
ENDBRANCH   3  18
TORSDOF 5
