REMARK  Name = ZINC16721189
REMARK  5 active torsions:
REMARK  status: ('A' for Active; 'I' for Inactive)
REMARK    1  A    between atoms: C_8  and  N_9
REMARK    2  A    between atoms: N_9  and  C_10
REMARK    3  A    between atoms: C_15  and  S_16
REMARK    4  A    between atoms: S_16  and  C_17
REMARK    5  A    between atoms: C_17  and  C_18
REMARK                            x       y       z     vdW  Elec       q    Type
REMARK                         _______ _______ _______ _____ _____    ______ ____
ROOT
ATOM      1  N   UNL     1      -1.063  -2.327   0.101  0.00  0.00    -0.319 N 
ATOM      2  H   UNL     1      -1.133  -1.359   0.108  0.00  0.00    +0.152 HD
ENDROOT
BRANCH   1  10
ATOM      3  C   UNL     1       0.298   0.832   2.077  0.00  0.00    +0.001 A 
ATOM      4  C   UNL     1       1.480   1.559   2.076  0.00  0.00    +0.001 A 
ATOM      5  C   UNL     1       2.595   1.090   1.415  0.00  0.00    +0.013 A 
ATOM      6  C   UNL     1       2.535  -0.130   0.740  0.00  0.00    +0.045 A 
ATOM      7  C   UNL     1       1.332  -0.866   0.743  0.00  0.00    +0.000 A 
ATOM      8  C   UNL     1       0.218  -0.376   1.416  0.00  0.00    +0.009 A 
ATOM      9  C   UNL     1       1.299  -2.153   0.018  0.00  0.00    +0.059 C 
ATOM     10  C   UNL     1       0.154  -2.919  -0.016  0.00  0.00    +0.085 C 
ATOM     11  C   UNL     1       2.522  -2.591  -0.664  0.00  0.00    +0.252 C 
ATOM     12  O   UNL     1       2.528  -3.647  -1.270  0.00  0.00    -0.270 OA
ATOM     13  N   UNL     1       3.634  -1.839  -0.626  0.00  0.00    -0.248 N 
ATOM     14  C   UNL     1       3.699  -0.665   0.022  0.00  0.00    +0.251 C 
ATOM     15  O   UNL     1       4.739  -0.035   0.016  0.00  0.00    -0.270 OA
ATOM     16  H   UNL     1       4.425  -2.159  -1.088  0.00  0.00    +0.158 HD
ENDBRANCH   1  10
BRANCH   1  17
ATOM     17  C   UNL     1      -2.216  -3.113   0.213  0.00  0.00    +0.045 A 
ATOM     18  C   UNL     1      -2.117  -4.496   0.210  0.00  0.00    +0.024 A 
ATOM     19  C   UNL     1      -3.257  -5.271   0.321  0.00  0.00    +0.002 A 
ATOM     20  C   UNL     1      -4.498  -4.670   0.434  0.00  0.00    +0.001 A 
ATOM     21  C   UNL     1      -4.606  -3.293   0.439  0.00  0.00    +0.016 A 
ATOM     22  C   UNL     1      -3.467  -2.507   0.334  0.00  0.00    +0.029 A 
BRANCH  22  23
ATOM     23  S   UNL     1      -3.601  -0.750   0.345  0.00  0.00    -0.114 S 
BRANCH  23  24
ATOM     24  C   UNL     1      -5.381  -0.447   0.517  0.00  0.00    +0.169 C 
BRANCH  24  25
ATOM     25  C   UNL     1      -5.638   1.038   0.541  0.00  0.00    +0.221 C 
ATOM     26  O   UNL     1      -4.712   1.815   0.451  0.00  0.00    -0.275 OA
ATOM     27  N   UNL     1      -6.898   1.502   0.662  0.00  0.00    -0.329 N 
ATOM     28  H   UNL     1      -7.639   0.881   0.735  0.00  0.00    +0.145 HD
ATOM     29  H   UNL     1      -7.063   2.458   0.677  0.00  0.00    +0.145 HD
ENDBRANCH  24  25
ENDBRANCH  23  24
ENDBRANCH  22  23
ENDBRANCH   1  17
TORSDOF 5
