REMARK  Name = ZINC40734772
REMARK  8 active torsions:
REMARK  status: ('A' for Active; 'I' for Inactive)
REMARK    1  A    between atoms: C_1  and  C_2
REMARK    2  A    between atoms: C_7  and  C_9
REMARK    3  A    between atoms: C_7  and  C_10
REMARK    4  A    between atoms: C_14  and  N_28
REMARK    5  A    between atoms: C_15  and  N_19
REMARK    6  A    between atoms: N_19  and  C_20
REMARK    7  A    between atoms: C_20  and  C_21
REMARK    8  A    between atoms: C_21  and  N_22
REMARK                            x       y       z     vdW  Elec       q    Type
REMARK                         _______ _______ _______ _____ _____    ______ ____
ROOT
ATOM      1  C   UNL     1       0.390   0.170   1.982  0.00  0.00    +0.013 C 
ATOM      2  C   UNL     1      -0.016  -1.292   1.740  0.00  0.00    -0.014 C 
ATOM      3  C   UNL     1       0.948  -2.020   0.763  0.00  0.00    +0.030 C 
ATOM      4  C   UNL     1       0.048  -3.211   0.351  0.00  0.00    +0.076 C 
ATOM      5  C   UNL     1       0.035  -4.194   1.519  0.00  0.00    +0.029 C 
ATOM      6  C   UNL     1      -0.396  -3.579   2.838  0.00  0.00    -0.033 C 
ATOM      7  C   UNL     1      -0.060  -2.112   3.029  0.00  0.00    +0.014 C 
ATOM      8  C   UNL     1       0.326  -4.363   3.963  0.00  0.00    +0.011 C 
ATOM      9  C   UNL     1      -1.900  -3.807   3.049  0.00  0.00    +0.011 C 
ATOM     10  N   UNL     1      -1.301  -2.631   0.193  0.00  0.00    -0.310 N 
ATOM     11  C   UNL     1      -1.374  -1.412   1.013  0.00  0.00    +0.113 C 
ATOM     12  C   UNL     1      -2.322  -3.140  -0.601  0.00  0.00    +0.147 A 
ATOM     13  C   UNL     1      -3.591  -2.559  -0.582  0.00  0.00    +0.105 A 
ATOM     14  C   UNL     1      -4.580  -3.109  -1.399  0.00  0.00    +0.145 A 
ATOM     15  N   UNL     1      -4.278  -4.159  -2.159  0.00  0.00    -0.219 NA
ATOM     16  C   UNL     1      -3.067  -4.678  -2.146  0.00  0.00    +0.225 A 
ATOM     17  N   UNL     1      -2.103  -4.186  -1.394  0.00  0.00    -0.219 NA
ENDROOT
BRANCH  13  18
ATOM     18  N   UNL     1      -3.865  -1.450   0.236  0.00  0.00    -0.353 N 
ATOM     19  H   UNL     1      -3.183  -0.777   0.386  0.00  0.00    +0.143 HD
ATOM     20  H   UNL     1      -4.737  -1.358   0.652  0.00  0.00    +0.143 HD
ENDBRANCH  13  18
BRANCH  14  21
ATOM     21  N   UNL     1      -5.860  -2.569  -1.419  0.00  0.00    -0.329 N 
ATOM     22  H   UNL     1      -6.072  -1.803  -0.862  0.00  0.00    +0.147 HD
BRANCH  21  23
ATOM     23  C   UNL     1      -6.890  -3.155  -2.280  0.00  0.00    +0.084 C 
BRANCH  23  24
ATOM     24  C   UNL     1      -8.197  -2.379  -2.114  0.00  0.00    -0.060 C 
BRANCH  24  25
ATOM     25  N   UNL     1      -9.230  -2.967  -2.978  0.00  0.00    +0.381 N 
ATOM     26  C   UNL     1      -8.844  -2.797  -4.384  0.00  0.00    -0.079 C 
ATOM     27  C   UNL     1      -9.875  -3.479  -5.285  0.00  0.00    -0.019 C 
ATOM     28  C   UNL     1     -11.249  -2.844  -5.051  0.00  0.00    -0.004 C 
ATOM     29  C   UNL     1     -11.608  -2.961  -3.567  0.00  0.00    -0.019 C 
ATOM     30  C   UNL     1     -10.513  -2.299  -2.729  0.00  0.00    -0.079 C 
ATOM     31  H   UNL     1      -9.319  -3.951  -2.772  0.00  0.00    -0.082 HD
ENDBRANCH  24  25
ENDBRANCH  23  24
ENDBRANCH  21  23
ENDBRANCH  14  21
TORSDOF 5
