REMARK  Name = ZINC24918842
REMARK  10 active torsions:
REMARK  status: ('A' for Active; 'I' for Inactive)
REMARK    1  A    between atoms: C_1  and  C_2
REMARK    2  A    between atoms: C_2  and  C_4
REMARK    3  A    between atoms: C_2  and  N_27
REMARK    4  A    between atoms: C_7  and  S_16
REMARK    5  A    between atoms: N_8  and  C_9
REMARK    6  A    between atoms: S_16  and  C_17
REMARK    7  A    between atoms: C_17  and  C_18
REMARK    8  A    between atoms: C_24  and  C_26
REMARK    9  A    between atoms: N_27  and  C_28
REMARK   10  A    between atoms: N_27  and  C_29
REMARK                            x       y       z     vdW  Elec       q    Type
REMARK                         _______ _______ _______ _____ _____    ______ ____
ROOT
ATOM      1  C   UNL     1       1.063   2.241   0.004  0.00  0.00    +0.125 A 
ATOM      2  N   UNL     1       0.603   3.460   0.014  0.00  0.00    -0.135 NA
ATOM      3  N   UNL     1      -0.682   3.449   0.026  0.00  0.00    -0.122 NA
ATOM      4  C   UNL     1      -1.118   2.210   0.019  0.00  0.00    +0.196 A 
ATOM      5  N   UNL     1      -0.017   1.399   0.010  0.00  0.00    -0.275 N 
ENDROOT
BRANCH   5   6
ATOM      6  C   UNL     1       0.002  -0.004   0.002  0.00  0.00    +0.050 A 
ATOM      7  C   UNL     1       0.503  -0.686  -1.098  0.00  0.00    +0.028 A 
ATOM      8  C   UNL     1       0.526  -2.067  -1.101  0.00  0.00    +0.022 A 
ATOM      9  C   UNL     1       0.039  -2.771  -0.014  0.00  0.00    +0.041 A 
ATOM     10  C   UNL     1      -0.467  -2.093   1.082  0.00  0.00    +0.022 A 
ATOM     11  C   UNL     1      -0.486  -0.712   1.092  0.00  0.00    +0.028 A 
ATOM     12 CL   UNL     1       0.062  -4.507  -0.023  0.00  0.00    -0.084 Cl
ENDBRANCH   5   6
BRANCH   1  14
ATOM     13  C   UNL     1       3.119   2.048   1.377  0.00  0.00    -0.005 C 
ATOM     14  C   UNL     1       2.514   1.833  -0.012  0.00  0.00    -0.003 C 
BRANCH  14  15
ATOM     15  N   UNL     1       3.241   2.649  -0.994  0.00  0.00    +0.382 N 
ATOM     16  C   UNL     1       4.662   2.279  -1.037  0.00  0.00    -0.096 C 
ATOM     17  C   UNL     1       2.628   2.541  -2.325  0.00  0.00    -0.096 C 
ATOM     18  H   UNL     1       3.175   3.700  -0.676  0.00  0.00    -0.082 HD
ENDBRANCH  14  15
ENDBRANCH   1  14
BRANCH   4  19
ATOM     19  S   UNL     1      -2.802   1.692   0.023  0.00  0.00    -0.079 S 
BRANCH  19  20
ATOM     20  C   UNL     1      -3.627   3.304   0.035  0.00  0.00    +0.133 C 
BRANCH  20  21
ATOM     21  C   UNL     1      -5.120   3.103   0.040  0.00  0.00    +0.061 A 
ATOM     22  C   UNL     1      -5.813   3.023  -1.122  0.00  0.00    +0.072 A 
ATOM     23  S   UNL     1      -7.473   2.792  -0.503  0.00  0.00    -0.060 S 
ATOM     24  C   UNL     1      -7.091   2.834   1.190  0.00  0.00    +0.165 A 
ATOM     25  N   UNL     1      -5.784   3.008   1.175  0.00  0.00    -0.229 NA
ATOM     26  N   UNL     1      -7.944   2.714   2.281  0.00  0.00    -0.265 N 
ATOM     27  C   UNL     1      -9.266   2.538   2.087  0.00  0.00    +0.216 C 
ATOM     28  O   UNL     1      -9.712   2.485   0.960  0.00  0.00    -0.276 OA
ATOM     29  C   UNL     1     -10.191   2.409   3.269  0.00  0.00    +0.109 C 
ATOM     30  H   UNL     1      -7.540   2.763   3.303  0.00  0.00    +0.157 HD
ENDBRANCH  20  21
ENDBRANCH  19  20
ENDBRANCH   4  19
TORSDOF 6
