REMARK  Name = ZINC21354818
REMARK  10 active torsions:
REMARK  status: ('A' for Active; 'I' for Inactive)
REMARK    1  A    between atoms: C_1  and  C_2
REMARK    2  A    between atoms: C_4  and  C_37
REMARK    3  A    between atoms: N_5  and  C_11
REMARK    4  A    between atoms: C_8  and  C_9
REMARK    5  A    between atoms: C_11  and  C_12
REMARK    6  A    between atoms: N_14  and  C_15
REMARK    7  A    between atoms: C_18  and  C_21
REMARK    8  A    between atoms: N_26  and  C_29
REMARK    9  A    between atoms: C_34  and  O_35
REMARK   10  A    between atoms: O_35  and  C_36
REMARK                            x       y       z     vdW  Elec       q    Type
REMARK                         _______ _______ _______ _____ _____    ______ ____
ROOT
ATOM      1  C   UNL     1       9.273   1.586   4.039  0.00  0.00    +0.033 A 
ATOM      2  C   UNL     1      10.030   1.905   2.916  0.00  0.00    +0.024 A 
ATOM      3  C   UNL     1       9.569   1.584   1.659  0.00  0.00    +0.015 A 
ATOM      4  C   UNL     1       8.339   0.938   1.512  0.00  0.00    +0.037 A 
ATOM      5  C   UNL     1       7.578   0.624   2.641  0.00  0.00    +0.015 A 
ATOM      6  C   UNL     1       8.047   0.943   3.896  0.00  0.00    +0.024 A 
ENDROOT
BRANCH   4   7
ATOM      7  C   UNL     1       7.841   0.593   0.166  0.00  0.00    +0.247 C 
ATOM      8  O   UNL     1       8.112   1.304  -0.783  0.00  0.00    -0.270 OA
ATOM      9  N   UNL     1       7.087  -0.509  -0.012  0.00  0.00    -0.295 N 
ATOM     10  C   UNL     1       6.850  -1.448   1.095  0.00  0.00    +0.127 C 
ATOM     11  C   UNL     1       7.188  -2.863   0.614  0.00  0.00    +0.124 C 
ATOM     12  N   UNL     1       6.438  -3.151  -0.616  0.00  0.00    -0.324 N 
ATOM     13  C   UNL     1       6.832  -2.246  -1.704  0.00  0.00    +0.124 C 
ATOM     14  C   UNL     1       6.479  -0.806  -1.318  0.00  0.00    +0.127 C 
BRANCH  12  15
ATOM     15  C   UNL     1       6.593  -4.489  -0.996  0.00  0.00    +0.072 A 
ATOM     16  C   UNL     1       7.856  -4.991  -1.276  0.00  0.00    +0.027 A 
ATOM     17  C   UNL     1       8.007  -6.313  -1.651  0.00  0.00    +0.002 A 
ATOM     18  C   UNL     1       6.901  -7.138  -1.747  0.00  0.00    +0.004 A 
ATOM     19  C   UNL     1       5.640  -6.646  -1.464  0.00  0.00    +0.047 A 
ATOM     20  C   UNL     1       5.480  -5.321  -1.094  0.00  0.00    +0.141 A 
BRANCH  20  21
ATOM     21  O   UNL     1       4.239  -4.835  -0.821  0.00  0.00    -0.493 OA
ATOM     22  C   UNL     1       3.145  -5.745  -0.942  0.00  0.00    +0.277 C 
ENDBRANCH  20  21
ENDBRANCH  12  15
ENDBRANCH   4   7
BRANCH   1  25
ATOM     23  C   UNL     1       8.874   2.245   6.285  0.00  0.00    +0.237 C 
ATOM     24  O   UNL     1       7.693   2.357   6.033  0.00  0.00    -0.274 OA
ATOM     25  N   UNL     1       9.743   1.912   5.311  0.00  0.00    -0.284 N 
ATOM     26  H   UNL     1      10.823   1.897   5.518  0.00  0.00    +0.155 HD
BRANCH  23  27
ATOM     27  C   UNL     1       9.369   2.478   7.689  0.00  0.00    +0.221 C 
BRANCH  27  32
ATOM     28  C   UNL     1       4.935   3.763  11.087  0.00  0.00    +0.045 C 
ATOM     29  C   UNL     1       6.104   3.442  10.191  0.00  0.00    -0.026 A 
ATOM     30  C   UNL     1       6.465   2.117   9.946  0.00  0.00    +0.026 A 
ATOM     31  C   UNL     1       7.515   1.836   9.134  0.00  0.00    +0.020 A 
ATOM     32  N   UNL     1       8.239   2.825   8.555  0.00  0.00    -0.303 N 
ATOM     33  C   UNL     1       7.933   4.120   8.758  0.00  0.00    +0.270 A 
ATOM     34  O   UNL     1       8.592   4.996   8.224  0.00  0.00    -0.266 OA
ATOM     35  C   UNL     1       6.839   4.463   9.595  0.00  0.00    +0.119 A 
ATOM     36  C   UNL     1       7.887   0.399   8.875  0.00  0.00    +0.063 C 
BRANCH  35  37
ATOM     37  C   UNL     1       6.498   5.835   9.823  0.00  0.00    +0.105 C 
ATOM     38  N   UNL     1       6.228   6.924  10.003  0.00  0.00    -0.191 NA
ENDBRANCH  35  37
ENDBRANCH  27  32
ENDBRANCH  23  27
ENDBRANCH   1  25
TORSDOF 7
