REMARK  Name = ZINC21967860
REMARK  5 active torsions:
REMARK  status: ('A' for Active; 'I' for Inactive)
REMARK    1  A    between atoms: C_1  and  N_2
REMARK    2  A    between atoms: C_7  and  C_9
REMARK    3  A    between atoms: C_9  and  C_10
REMARK    4  A    between atoms: C_10  and  C_11
REMARK    5  A    between atoms: N_20  and  C_23
REMARK                            x       y       z     vdW  Elec       q    Type
REMARK                         _______ _______ _______ _____ _____    ______ ____
ROOT
ATOM      1  C   UNL     1       5.919   2.553  -2.337  0.00  0.00    +0.155 C 
ATOM      2  N   UNL     1       4.480   2.279  -2.357  0.00  0.00    -0.282 N 
ATOM      3  C   UNL     1       3.794   2.140  -1.170  0.00  0.00    +0.131 A 
ATOM      4  C   UNL     1       2.412   1.877  -1.214  0.00  0.00    +0.113 A 
ATOM      5  C   UNL     1       1.714   1.735  -0.005  0.00  0.00    +0.125 A 
ATOM      6  N   UNL     1       2.399   1.863   1.133  0.00  0.00    -0.226 NA
ATOM      7  C   UNL     1       3.694   2.105   1.125  0.00  0.00    +0.110 A 
ATOM      8  N   UNL     1       4.388   2.245   0.011  0.00  0.00    -0.329 N 
ATOM      9  S   UNL     1      -0.017   1.406   0.010  0.00  0.00    -0.030 S 
ATOM     10  C   UNL     1       1.761   1.762  -2.522  0.00  0.00    +0.268 A 
ATOM     11  O   UNL     1       0.569   1.535  -2.611  0.00  0.00    -0.267 OA
ATOM     12  N   UNL     1       2.524   1.914  -3.628  0.00  0.00    -0.263 N 
ATOM     13  C   UNL     1       3.840   2.164  -3.535  0.00  0.00    +0.333 A 
ATOM     14  O   UNL     1       4.481   2.294  -4.559  0.00  0.00    -0.246 OA
ATOM     15  C   UNL     1       1.905   1.804  -4.951  0.00  0.00    +0.157 C 
ATOM     16  H   UNL     1       5.467   2.451   0.067  0.00  0.00    +0.168 HD
ENDROOT
BRANCH   7  17
ATOM     17  C   UNL     1       4.412   2.232   2.443  0.00  0.00    +0.074 C 
BRANCH  17  18
ATOM     18  C   UNL     1       4.386   3.692   2.900  0.00  0.00    +0.011 C 
BRANCH  18  19
ATOM     19  C   UNL     1       5.115   3.822   4.238  0.00  0.00    -0.011 C 
ATOM     20  C   UNL     1       4.350   3.048   5.313  0.00  0.00    +0.003 C 
ATOM     21  C   UNL     1       5.079   3.177   6.652  0.00  0.00    +0.000 C 
ATOM     22  C   UNL     1       5.162   4.652   7.047  0.00  0.00    +0.000 C 
ATOM     23  C   UNL     1       5.927   5.427   5.973  0.00  0.00    +0.000 C 
ATOM     24  C   UNL     1       5.198   5.297   4.634  0.00  0.00    +0.003 C 
ENDBRANCH  18  19
ENDBRANCH  17  18
ENDBRANCH   7  17
TORSDOF 3
