REMARK  Name = ZINC05679817
REMARK  8 active torsions:
REMARK  status: ('A' for Active; 'I' for Inactive)
REMARK    1  A    between atoms: C_1  and  C_2
REMARK    2  A    between atoms: C_2  and  C_3
REMARK    3  A    between atoms: C_2  and  C_4
REMARK    4  A    between atoms: C_4  and  C_5
REMARK    5  A    between atoms: C_4  and  C_6
REMARK    6  A    between atoms: C_4  and  N_8
REMARK    7  A    between atoms: C_9  and  C_11
REMARK    8  A    between atoms: C_11  and  N_12
REMARK                            x       y       z     vdW  Elec       q    Type
REMARK                         _______ _______ _______ _____ _____    ______ ____
ROOT
ATOM      1  N   UNL     1       0.333   1.981   3.241  0.00  0.00    -0.215 N 
ATOM      2  C   UNL     1      -0.119   0.948   2.500  0.00  0.00    +0.251 C 
ATOM      3  O   UNL     1      -0.057  -0.233   2.770  0.00  0.00    -0.272 OA
ATOM      4  C   UNL     1      -0.719   1.573   1.264  0.00  0.00    +0.139 C 
ATOM      5  C   UNL     1      -0.013   1.086   0.008  0.00  0.00    +0.040 C 
ATOM      6  C   UNL     1      -0.748   1.591  -1.238  0.00  0.00    +0.008 C 
ATOM      7  C   UNL     1      -2.107   0.880  -1.335  0.00  0.00    +0.043 C 
ATOM      8  C   UNL     1      -2.774   0.947   0.000  0.00  0.00    -0.005 A 
ATOM      9  C   UNL     1      -2.200   1.254   1.197  0.00  0.00    -0.005 A 
ATOM     10  C   UNL     1      -3.042   1.250   2.309  0.00  0.00    +0.014 A 
ATOM     11  C   UNL     1      -4.353   0.952   2.166  0.00  0.00    +0.046 A 
ATOM     12  S   UNL     1      -4.473   0.651   0.409  0.00  0.00    -0.101 S 
ATOM     13  N   UNL     1      -0.525   3.014   1.457  0.00  0.00    -0.281 N 
ATOM     14  C   UNL     1       0.100   3.156   2.643  0.00  0.00    +0.310 C 
ATOM     15  O   UNL     1       0.415   4.230   3.116  0.00  0.00    -0.252 OA
ATOM     16  H   UNL     1      -0.792   3.723   0.852  0.00  0.00    +0.152 HD
ENDROOT
BRANCH   1  17
ATOM     17  C   UNL     1       0.997   1.835   4.539  0.00  0.00    +0.213 C 
BRANCH  17  19
ATOM     18  N   UNL     1       3.303   1.558   5.391  0.00  0.00    -0.296 N 
ATOM     19  C   UNL     1       2.484   1.704   4.330  0.00  0.00    +0.232 C 
ATOM     20  O   UNL     1       2.943   1.729   3.208  0.00  0.00    -0.274 OA
ATOM     21  H   UNL     1       2.935   1.538   6.288  0.00  0.00    +0.150 HD
BRANCH  18  22
ATOM     22  C   UNL     1       4.748   1.429   5.188  0.00  0.00    +0.121 C 
ATOM     23  C   UNL     1       5.277   2.680   4.482  0.00  0.00    +0.048 C 
BRANCH  22  25
ATOM     24  C   UNL     1       5.006  -0.037   7.195  0.00  0.00    +0.010 C 
ATOM     25  C   UNL     1       5.441   1.277   6.543  0.00  0.00    +0.020 C 
ATOM     26  C   UNL     1       6.958   1.269   6.342  0.00  0.00    +0.010 C 
ENDBRANCH  22  25
BRANCH  22  27
ATOM     27  C   UNL     1       5.024   0.244   4.360  0.00  0.00    +0.088 C 
ATOM     28  N   UNL     1       5.237  -0.670   3.721  0.00  0.00    -0.194 NA
ENDBRANCH  22  27
ENDBRANCH  18  22
ENDBRANCH  17  19
ENDBRANCH   1  17
TORSDOF 5
