REMARK  Name = ZINC15840357
REMARK  5 active torsions:
REMARK  status: ('A' for Active; 'I' for Inactive)
REMARK    1  A    between atoms: C_10  and  C_11
REMARK    2  A    between atoms: C_11  and  N_13
REMARK    3  A    between atoms: C_11  and  S_14
REMARK    4  A    between atoms: S_14  and  C_15
REMARK    5  A    between atoms: N_18  and  C_22
REMARK                            x       y       z     vdW  Elec       q    Type
REMARK                         _______ _______ _______ _____ _____    ______ ____
ROOT
ATOM      1  C   UNL     1      -2.461   0.216   0.612  0.00  0.00    +0.109 A 
ATOM      2  C   UNL     1      -3.584  -0.482   1.106  0.00  0.00    +0.004 A 
ATOM      3  C   UNL     1      -3.528  -1.018   2.346  0.00  0.00    +0.029 A 
ATOM      4  N   UNL     1      -2.393  -0.860   3.088  0.00  0.00    -0.293 N 
ATOM      5  C   UNL     1      -1.342  -0.186   2.591  0.00  0.00    +0.350 A 
ATOM      6  O   UNL     1      -0.337  -0.056   3.271  0.00  0.00    -0.244 OA
ATOM      7  N   UNL     1      -1.379   0.344   1.370  0.00  0.00    -0.186 NA
ATOM      8  C   UNL     1      -4.827  -1.723   2.670  0.00  0.00    +0.054 C 
ATOM      9  C   UNL     1      -5.846  -1.173   1.643  0.00  0.00    +0.011 C 
ATOM     10  C   UNL     1      -4.926  -0.769   0.470  0.00  0.00    +0.040 C 
ENDROOT
BRANCH   4  11
ATOM     11  C   UNL     1      -2.321  -1.430   4.436  0.00  0.00    +0.092 C 
ATOM     12  C   UNL     1      -2.083  -0.311   5.451  0.00  0.00    +0.025 C 
ATOM     13  C   UNL     1      -2.007  -0.906   6.859  0.00  0.00    +0.002 C 
ATOM     14  C   UNL     1      -0.854  -1.910   6.926  0.00  0.00    +0.000 C 
ATOM     15  C   UNL     1      -1.092  -3.029   5.911  0.00  0.00    +0.002 C 
ATOM     16  C   UNL     1      -1.168  -2.434   4.504  0.00  0.00    +0.025 C 
ENDBRANCH   4  11
BRANCH   1  17
ATOM     17  S   UNL     1      -2.498   0.923  -1.002  0.00  0.00    -0.082 S 
BRANCH  17  18
ATOM     18  C   UNL     1      -0.794   1.524  -1.121  0.00  0.00    +0.147 C 
BRANCH  18  28
ATOM     19  C   UNL     1      -1.025   6.492  -2.331  0.00  0.00    +0.001 A 
ATOM     20  C   UNL     1      -1.176   5.761  -1.154  0.00  0.00    +0.001 A 
ATOM     21  C   UNL     1      -1.053   4.406  -1.149  0.00  0.00    +0.009 A 
ATOM     22  C   UNL     1      -0.774   3.729  -2.349  0.00  0.00    -0.012 A 
ATOM     23  C   UNL     1      -0.615   4.473  -3.546  0.00  0.00    -0.018 A 
ATOM     24  C   UNL     1      -0.749   5.871  -3.510  0.00  0.00    +0.008 A 
ATOM     25  C   UNL     1      -0.331   3.797  -4.744  0.00  0.00    +0.008 A 
ATOM     26  C   UNL     1      -0.207   2.441  -4.740  0.00  0.00    +0.001 A 
ATOM     27  C   UNL     1      -0.358   1.711  -3.563  0.00  0.00    +0.006 A 
ATOM     28  C   UNL     1      -0.634   2.332  -2.383  0.00  0.00    -0.013 A 
ENDBRANCH  18  28
BRANCH  18  29
ATOM     29  N   UNL     1       0.127   0.380  -1.152  0.00  0.00    -0.315 NA
ATOM     30  H   UNL     1       0.010  -0.210  -0.231  0.00  0.00    +0.120 HD
ATOM     31  H   UNL     1      -0.101  -0.252  -2.023  0.00  0.00    +0.120 HD
ENDBRANCH  18  29
ENDBRANCH  17  18
ENDBRANCH   1  17
TORSDOF 5
