REMARK  Name = ZINC41787451
REMARK  8 active torsions:
REMARK  status: ('A' for Active; 'I' for Inactive)
REMARK    1  A    between atoms: C_1  and  C_2
REMARK    2  A    between atoms: N_8  and  C_9
REMARK    3  A    between atoms: C_9  and  C_10
REMARK    4  A    between atoms: C_10  and  C_11
REMARK    5  A    between atoms: C_11  and  C_12
REMARK    6  A    between atoms: C_12  and  N_13
REMARK    7  A    between atoms: C_14  and  C_16
REMARK    8  A    between atoms: N_18  and  C_19
REMARK                            x       y       z     vdW  Elec       q    Type
REMARK                         _______ _______ _______ _____ _____    ______ ____
ROOT
ATOM      1  N   UNL     1       6.219   0.446   3.876  0.00  0.00    -0.308 N 
ATOM      2  C   UNL     1       7.024   0.222   4.934  0.00  0.00    +0.299 C 
ATOM      3  O   UNL     1       6.629  -0.447   5.866  0.00  0.00    -0.265 OA
ATOM      4  H   UNL     1       6.534   0.981   3.131  0.00  0.00    +0.149 HD
ENDROOT
BRANCH   2   5
ATOM      5  C   UNL     1       8.402   0.798   4.958  0.00  0.00    +0.303 C 
ATOM      6  O   UNL     1       8.796   1.467   4.025  0.00  0.00    -0.265 OA
ATOM      7  N   UNL     1       9.207   0.574   6.015  0.00  0.00    -0.278 N 
ATOM      8  H   UNL     1       8.870   0.097   6.789  0.00  0.00    +0.155 HD
BRANCH   7   9
ATOM      9  C   UNL     1      10.529   1.031   5.996  0.00  0.00    +0.038 A 
ATOM     10  C   UNL     1      11.531   0.282   6.600  0.00  0.00    +0.027 A 
ATOM     11  C   UNL     1      12.837   0.732   6.583  0.00  0.00    +0.051 A 
ATOM     12  C   UNL     1      13.151   1.931   5.963  0.00  0.00    +0.173 A 
ATOM     13  C   UNL     1      12.149   2.684   5.356  0.00  0.00    +0.174 A 
ATOM     14  C   UNL     1      10.841   2.230   5.369  0.00  0.00    +0.073 A 
ATOM     15  O   UNL     1      12.710   3.808   4.823  0.00  0.00    -0.395 OA
ATOM     16  C   UNL     1      13.993   3.938   5.463  0.00  0.00    +0.589 C 
ATOM     17  O   UNL     1      14.341   2.584   5.810  0.00  0.00    -0.395 OA
ATOM     18  F   UNL     1      13.892   4.730   6.612  0.00  0.00    -0.125 F 
ATOM     19  F   UNL     1      14.932   4.474   4.575  0.00  0.00    -0.125 F 
ENDBRANCH   7   9
ENDBRANCH   2   5
BRANCH   1  20
ATOM     20  C   UNL     1       4.867  -0.119   3.853  0.00  0.00    +0.104 C 
BRANCH  20  21
ATOM     21  C   UNL     1       4.170   0.282   2.551  0.00  0.00    +0.017 C 
BRANCH  21  22
ATOM     22  C   UNL     1       2.758  -0.307   2.526  0.00  0.00    -0.017 C 
BRANCH  22  23
ATOM     23  C   UNL     1       2.061   0.093   1.225  0.00  0.00    -0.078 C 
BRANCH  23  30
ATOM     24  C   UNL     1      -0.017   1.540   0.010  0.00  0.00    -0.013 C 
ATOM     25  C   UNL     1      -0.004   0.010   0.010  0.00  0.00    -0.072 C 
ATOM     26  C   UNL     1      -1.443  -0.512   0.023  0.00  0.00    -0.016 C 
ATOM     27  C   UNL     1      -1.425  -2.043   0.023  0.00  0.00    -0.003 C 
ATOM     28  C   UNL     1      -0.618  -2.534   1.229  0.00  0.00    -0.019 C 
ATOM     29  C   UNL     1       0.790  -1.938   1.171  0.00  0.00    -0.078 C 
ATOM     30  N   UNL     1       0.705  -0.473   1.201  0.00  0.00    +0.381 N 
ATOM     31  H   UNL     1       0.207  -0.182   2.029  0.00  0.00    -0.081 HD
ENDBRANCH  23  30
ENDBRANCH  22  23
ENDBRANCH  21  22
ENDBRANCH  20  21
ENDBRANCH   1  20
TORSDOF 7
