REMARK  Name = ZINC00945762
REMARK  5 active torsions:
REMARK  status: ('A' for Active; 'I' for Inactive)
REMARK    1  A    between atoms: C_4  and  N_30
REMARK    2  A    between atoms: C_5  and  C_7
REMARK    3  A    between atoms: N_8  and  N_9
REMARK    4  A    between atoms: C_10  and  C_12
REMARK    5  A    between atoms: C_14  and  C_18
REMARK                            x       y       z     vdW  Elec       q    Type
REMARK                         _______ _______ _______ _____ _____    ______ ____
ROOT
ATOM      1  C   UNL     1       5.206   7.710  -0.143  0.00  0.00    +0.122 A 
ATOM      2  C   UNL     1       5.441   9.069  -0.236  0.00  0.00    +0.062 A 
ATOM      3  C   UNL     1       6.840   9.209  -0.183  0.00  0.00    +0.094 A 
ATOM      4  N   UNL     1       7.356   8.001  -0.076  0.00  0.00    -0.173 NA
ATOM      5  N   UNL     1       6.431   7.111  -0.051  0.00  0.00    -0.272 N 
ATOM      6  H   UNL     1       6.585   6.125   0.025  0.00  0.00    +0.189 HD
ENDROOT
BRANCH   3   7
ATOM      7  C   UNL     1       7.596  10.482  -0.243  0.00  0.00    +0.010 A 
ATOM      8  C   UNL     1       6.934  11.695  -0.356  0.00  0.00    +0.011 A 
ATOM      9  C   UNL     1       7.618  12.908  -0.414  0.00  0.00    +0.005 A 
ATOM     10  C   UNL     1       8.980  12.938  -0.362  0.00  0.00    -0.039 A 
ATOM     11  C   UNL     1       9.662  11.730  -0.248  0.00  0.00    -0.011 A 
ATOM     12  C   UNL     1       9.009  10.488  -0.180  0.00  0.00    -0.008 A 
ATOM     13  C   UNL     1       9.798   9.335  -0.071  0.00  0.00    +0.009 A 
ATOM     14  C   UNL     1      11.157   9.468  -0.025  0.00  0.00    +0.001 A 
ATOM     15  C   UNL     1      11.786  10.713  -0.089  0.00  0.00    +0.004 A 
ATOM     16  C   UNL     1      11.048  11.852  -0.200  0.00  0.00    -0.039 A 
ATOM     17  C   UNL     1      11.376  13.322  -0.292  0.00  0.00    +0.040 C 
ATOM     18  C   UNL     1      10.013  14.039  -0.398  0.00  0.00    +0.040 C 
ENDBRANCH   3   7
BRANCH   1  20
ATOM     19  N   UNL     1       3.826   5.697  -0.057  0.00  0.00    -0.202 N 
ATOM     20  C   UNL     1       3.897   7.040  -0.149  0.00  0.00    +0.281 C 
ATOM     21  O   UNL     1       2.877   7.697  -0.238  0.00  0.00    -0.267 OA
ATOM     22  H   UNL     1       4.639   5.172   0.014  0.00  0.00    +0.178 HD
BRANCH  19  24
ATOM     23  C   UNL     1       2.511   3.765   0.026  0.00  0.00    +0.140 C 
ATOM     24  N   UNL     1       2.579   5.059  -0.063  0.00  0.00    -0.187 NA
BRANCH  23  29
ATOM     25  C   UNL     1      -0.107   1.077  -0.009  0.00  0.00    +0.001 A 
ATOM     26  C   UNL     1      -1.267   1.832   0.005  0.00  0.00    +0.002 A 
ATOM     27  C   UNL     1      -1.201   3.214   0.034  0.00  0.00    +0.033 A 
ATOM     28  C   UNL     1       0.024   3.849   0.039  0.00  0.00    +0.135 A 
ATOM     29  C   UNL     1       1.198   3.094   0.020  0.00  0.00    +0.025 A 
ATOM     30  C   UNL     1       1.124   1.699  -0.004  0.00  0.00    +0.012 A 
BRANCH  28  31
ATOM     31  N   UNL     1       0.092   5.327   0.066  0.00  0.00    +0.057 N 
ATOM     32  O   UNL     1       0.734   5.892   0.934  0.00  0.00    -0.126 OA
ATOM     33  O   UNL     1      -0.492   5.979  -0.781  0.00  0.00    -0.126 OA
ENDBRANCH  28  31
ENDBRANCH  23  29
ENDBRANCH  19  24
ENDBRANCH   1  20
TORSDOF 5
