REMARK  Name = ZINC48738883
REMARK  6 active torsions:
REMARK  status: ('A' for Active; 'I' for Inactive)
REMARK    1  A    between atoms: C_1  and  C_2
REMARK    2  A    between atoms: C_5  and  C_7
REMARK    3  A    between atoms: C_7  and  C_9
REMARK    4  A    between atoms: C_7  and  N_10
REMARK    5  A    between atoms: N_10  and  C_11
REMARK    6  A    between atoms: C_13  and  C_20
REMARK                            x       y       z     vdW  Elec       q    Type
REMARK                         _______ _______ _______ _____ _____    ______ ____
ROOT
ATOM      1  N   UNL     1       2.201  -4.137  -0.921  0.00  0.00    -0.322 N 
ATOM      2  H   UNL     1       2.725  -3.341  -1.103  0.00  0.00    +0.148 HD
ENDROOT
BRANCH   1   3
ATOM      3  C   UNL     1       2.547  -5.337  -1.501  0.00  0.00    +0.126 A 
ATOM      4  C   UNL     1       1.806  -6.477  -1.254  0.00  0.00    +0.066 A 
ATOM      5  C   UNL     1       2.186  -7.673  -1.860  0.00  0.00    +0.045 A 
ATOM      6  N   UNL     1       3.234  -7.714  -2.655  0.00  0.00    -0.216 NA
ATOM      7  C   UNL     1       3.960  -6.619  -2.903  0.00  0.00    +0.255 A 
ATOM      8  N   UNL     1       3.623  -5.422  -2.336  0.00  0.00    -0.183 N 
ATOM      9  N   UNL     1       4.562  -4.488  -2.793  0.00  0.00    -0.151 NA
ATOM     10  C   UNL     1       5.386  -5.129  -3.586  0.00  0.00    +0.247 A 
ATOM     11  N   UNL     1       5.038  -6.408  -3.651  0.00  0.00    -0.197 NA
ATOM     12  C   UNL     1       1.391  -8.927  -1.603  0.00  0.00    +0.066 C 
ENDBRANCH   1   3
BRANCH   1  13
ATOM     13  C   UNL     1       1.043  -4.062  -0.027  0.00  0.00    +0.106 C 
ATOM     14  C   UNL     1       1.465  -4.458   1.389  0.00  0.00    +0.033 C 
BRANCH  13  19
ATOM     15  C   UNL     1      -0.018   1.503   0.010  0.00  0.00    +0.051 C 
ATOM     16  C   UNL     1       0.002  -0.004   0.002  0.00  0.00    -0.013 A 
ATOM     17  C   UNL     1      -1.039  -0.872   0.002  0.00  0.00    +0.011 A 
ATOM     18  C   UNL     1      -0.780  -2.230  -0.007  0.00  0.00    +0.013 A 
ATOM     19  C   UNL     1       0.507  -2.653  -0.016  0.00  0.00    +0.010 A 
ATOM     20  S   UNL     1       1.404  -1.109  -0.018  0.00  0.00    -0.097 S 
ENDBRANCH  13  19
ENDBRANCH   1  13
TORSDOF 3
