REMARK  Name = ZINC03459625
REMARK  7 active torsions:
REMARK  status: ('A' for Active; 'I' for Inactive)
REMARK    1  A    between atoms: C_1  and  C_2
REMARK    2  A    between atoms: C_2  and  C_21
REMARK    3  A    between atoms: N_5  and  C_9
REMARK    4  A    between atoms: C_9  and  C_10
REMARK    5  A    between atoms: N_12  and  C_13
REMARK    6  A    between atoms: C_13  and  C_14
REMARK    7  A    between atoms: C_14  and  C_15
REMARK                            x       y       z     vdW  Elec       q    Type
REMARK                         _______ _______ _______ _____ _____    ______ ____
ROOT
ATOM      1  C   UNL     1      -0.019   1.526   0.010  0.00  0.00    +0.047 C 
ATOM      2  C   UNL     1       0.002  -0.004   0.002  0.00  0.00    +0.135 C 
ATOM      3  C   UNL     1      -1.403  -0.557   0.139  0.00  0.00    +0.251 C 
ATOM      4  O   UNL     1      -2.332  -0.392  -0.621  0.00  0.00    -0.272 OA
ATOM      5  N   UNL     1      -1.403  -1.272   1.282  0.00  0.00    -0.215 N 
ATOM      6  C   UNL     1      -0.206  -1.247   1.879  0.00  0.00    +0.310 C 
ATOM      7  O   UNL     1       0.040  -1.819   2.924  0.00  0.00    -0.252 OA
ATOM      8  N   UNL     1       0.695  -0.520   1.195  0.00  0.00    -0.281 N 
ATOM      9  H   UNL     1       1.621  -0.365   1.440  0.00  0.00    +0.152 HD
ENDROOT
BRANCH   2  10
ATOM     10  C   UNL     1       0.657  -0.517  -1.255  0.00  0.00    -0.016 A 
ATOM     11  C   UNL     1      -0.107  -0.772  -2.378  0.00  0.00    +0.006 A 
ATOM     12  C   UNL     1       0.493  -1.242  -3.530  0.00  0.00    +0.000 A 
ATOM     13  C   UNL     1       1.859  -1.457  -3.560  0.00  0.00    +0.000 A 
ATOM     14  C   UNL     1       2.623  -1.202  -2.437  0.00  0.00    +0.000 A 
ATOM     15  C   UNL     1       2.023  -0.727  -1.286  0.00  0.00    +0.006 A 
ENDBRANCH   2  10
BRANCH   5  16
ATOM     16  C   UNL     1      -2.569  -1.986   1.805  0.00  0.00    +0.213 C 
BRANCH  16  17
ATOM     17  C   UNL     1      -2.585  -3.391   1.260  0.00  0.00    +0.231 C 
ATOM     18  O   UNL     1      -1.707  -3.759   0.508  0.00  0.00    -0.274 OA
ATOM     19  N   UNL     1      -3.573  -4.239   1.608  0.00  0.00    -0.314 N 
ATOM     20  H   UNL     1      -4.275  -3.944   2.209  0.00  0.00    +0.149 HD
BRANCH  19  21
ATOM     21  C   UNL     1      -3.588  -5.604   1.077  0.00  0.00    +0.108 C 
BRANCH  21  22
ATOM     22  C   UNL     1      -4.806  -6.351   1.624  0.00  0.00    +0.049 C 
BRANCH  22  23
ATOM     23  C   UNL     1      -4.822  -7.755   1.078  0.00  0.00    -0.072 C 
ATOM     24  C   UNL     1      -4.300  -8.693   1.802  0.00  0.00    -0.028 C 
ATOM     25  C   UNL     1      -4.232 -10.134   1.389  0.00  0.00    +0.027 C 
ATOM     26  C   UNL     1      -5.210 -10.401   0.243  0.00  0.00    +0.004 C 
ATOM     27  C   UNL     1      -4.997  -9.331  -0.835  0.00  0.00    +0.005 C 
ATOM     28  C   UNL     1      -5.445  -7.981  -0.268  0.00  0.00    +0.030 C 
ENDBRANCH  22  23
ENDBRANCH  21  22
ENDBRANCH  19  21
ENDBRANCH  16  17
ENDBRANCH   5  16
TORSDOF 6
