REMARK  Name = ZINC57293175
REMARK  7 active torsions:
REMARK  status: ('A' for Active; 'I' for Inactive)
REMARK    1  A    between atoms: C_1  and  C_2
REMARK    2  A    between atoms: C_5  and  C_8
REMARK    3  A    between atoms: C_10  and  C_26
REMARK    4  A    between atoms: C_12  and  C_25
REMARK    5  A    between atoms: N_14  and  C_17
REMARK    6  A    between atoms: N_28  and  C_29
REMARK    7  A    between atoms: C_29  and  C_30
REMARK                            x       y       z     vdW  Elec       q    Type
REMARK                         _______ _______ _______ _____ _____    ______ ____
ROOT
ATOM      1  C   UNL     1      -0.533  -4.285  -0.064  0.00  0.00    +0.074 A 
ATOM      2  C   UNL     1      -0.621  -4.979   1.147  0.00  0.00    +0.042 A 
ATOM      3  C   UNL     1      -0.364  -6.345   1.168  0.00  0.00    +0.051 A 
ATOM      4  C   UNL     1      -0.022  -6.974  -0.051  0.00  0.00    +0.054 A 
ATOM      5  C   UNL     1       0.297  -8.301  -0.408  0.00  0.00    +0.070 A 
ATOM      6  N   UNL     1       0.538  -8.340  -1.688  0.00  0.00    -0.174 NA
ATOM      7  N   UNL     1       0.393  -7.061  -2.237  0.00  0.00    -0.241 N 
ATOM      8  C   UNL     1       0.044  -6.200  -1.228  0.00  0.00    +0.160 A 
ATOM      9  N   UNL     1      -0.216  -4.902  -1.190  0.00  0.00    -0.228 NA
ATOM     10  C   UNL     1       0.351  -9.476   0.533  0.00  0.00    +0.068 C 
ENDROOT
BRANCH   1  15
ATOM     11  C   UNL     1      -1.599   1.373  -0.154  0.00  0.00    +0.044 C 
ATOM     12  C   UNL     1      -1.320  -0.108  -0.131  0.00  0.00    -0.050 A 
ATOM     13  C   UNL     1      -0.987  -0.765  -1.302  0.00  0.00    +0.004 A 
ATOM     14  C   UNL     1      -0.731  -2.121  -1.286  0.00  0.00    +0.010 A 
ATOM     15  C   UNL     1      -0.807  -2.828  -0.087  0.00  0.00    +0.000 A 
ATOM     16  C   UNL     1      -1.143  -2.161   1.089  0.00  0.00    +0.010 A 
ATOM     17  C   UNL     1      -1.393  -0.804   1.063  0.00  0.00    +0.004 A 
ENDBRANCH   1  15
BRANCH   7  18
ATOM     18  C   UNL     1       0.581  -6.703  -3.645  0.00  0.00    +0.132 C 
ATOM     19  C   UNL     1      -0.382  -7.522  -4.521  0.00  0.00    +0.051 C 
ATOM     20  C   UNL     1       0.022  -7.394  -6.010  0.00  0.00    +0.168 C 
ATOM     21  S   UNL     1       1.834  -7.091  -5.912  0.00  0.00    -0.029 S 
ATOM     22  O   UNL     1       2.520  -8.228  -6.419  0.00  0.00    -0.174 OA
ATOM     23  O   UNL     1       2.118  -5.807  -6.449  0.00  0.00    -0.174 OA
ATOM     24  C   UNL     1       2.036  -7.037  -4.082  0.00  0.00    +0.192 C 
ENDBRANCH   7  18
BRANCH   3  25
ATOM     25  C   UNL     1      -0.445  -7.116   2.428  0.00  0.00    +0.245 C 
ATOM     26  O   UNL     1      -0.905  -8.241   2.423  0.00  0.00    -0.270 OA
ATOM     27  N   UNL     1      -0.008  -6.572   3.580  0.00  0.00    -0.308 N 
ATOM     28  H   UNL     1       0.359  -5.674   3.584  0.00  0.00    +0.149 HD
BRANCH  27  29
ATOM     29  C   UNL     1      -0.088  -7.335   4.828  0.00  0.00    +0.131 C 
BRANCH  29  30
ATOM     30  C   UNL     1       0.461  -6.507   5.961  0.00  0.00    -0.016 C 
ATOM     31  C   UNL     1      -0.270  -6.287   7.025  0.00  0.00    +0.005 C 
ENDBRANCH  29  30
ENDBRANCH  27  29
ENDBRANCH   3  25
TORSDOF 5
