REMARK  Name = ZINC65761211
REMARK  8 active torsions:
REMARK  status: ('A' for Active; 'I' for Inactive)
REMARK    1  A    between atoms: C_1  and  C_2
REMARK    2  A    between atoms: C_4  and  C_26
REMARK    3  A    between atoms: N_6  and  C_8
REMARK    4  A    between atoms: C_8  and  C_9
REMARK    5  A    between atoms: C_9  and  C_10
REMARK    6  A    between atoms: C_9  and  N_11
REMARK    7  A    between atoms: C_12  and  C_14
REMARK    8  A    between atoms: C_14  and  C_15
REMARK                            x       y       z     vdW  Elec       q    Type
REMARK                         _______ _______ _______ _____ _____    ______ ____
ROOT
ATOM      1  N   UNL     1       3.187  -0.687   2.042  0.00  0.00    -0.314 N 
ATOM      2  C   UNL     1       4.187  -0.191   1.286  0.00  0.00    +0.219 C 
ATOM      3  O   UNL     1       4.947  -0.944   0.715  0.00  0.00    -0.275 OA
ATOM      4  H   UNL     1       2.579  -0.085   2.499  0.00  0.00    +0.149 HD
ENDROOT
BRANCH   1   5
ATOM      5  C   UNL     1       3.019  -2.137   2.173  0.00  0.00    +0.053 C 
ATOM      6  C   UNL     1       3.868  -2.645   3.340  0.00  0.00    +0.026 C 
BRANCH   5   7
ATOM      7  C   UNL     1       1.546  -2.457   2.436  0.00  0.00    -0.057 C 
BRANCH   7  13
ATOM      8  C   UNL     1      -3.042  -1.579   0.972  0.00  0.00    +0.005 C 
ATOM      9  C   UNL     1      -1.564  -1.383   0.630  0.00  0.00    -0.031 C 
ATOM     10  C   UNL     1      -1.266  -2.012  -0.734  0.00  0.00    +0.003 C 
ATOM     11  C   UNL     1       0.230  -1.880  -1.031  0.00  0.00    -0.031 C 
ATOM     12  C   UNL     1       1.028  -2.537   0.097  0.00  0.00    -0.076 C 
ATOM     13  N   UNL     1       0.720  -1.875   1.370  0.00  0.00    +0.381 N 
ATOM     14  C   UNL     1      -0.699  -2.059   1.697  0.00  0.00    -0.076 C 
ATOM     15  C   UNL     1       0.603  -0.399  -1.125  0.00  0.00    +0.005 C 
ATOM     16  H   UNL     1       0.921  -0.889   1.292  0.00  0.00    -0.082 HD
ENDBRANCH   7  13
ENDBRANCH   5   7
ENDBRANCH   1   5
BRANCH   2  17
ATOM     17  C   UNL     1       4.360   1.300   1.152  0.00  0.00    +0.151 C 
BRANCH  17  18
ATOM     18  C   UNL     1       5.540   1.590   0.261  0.00  0.00    +0.059 A 
ATOM     19  C   UNL     1       5.423   2.379  -0.835  0.00  0.00    +0.072 A 
ATOM     20  S   UNL     1       7.098   2.344  -1.452  0.00  0.00    -0.060 S 
ATOM     21  C   UNL     1       7.760   1.345  -0.270  0.00  0.00    +0.168 A 
ATOM     22  N   UNL     1       6.736   1.092   0.516  0.00  0.00    -0.229 NA
ATOM     23  N   UNL     1       9.072   0.900  -0.150  0.00  0.00    -0.233 N 
ATOM     24  C   UNL     1      10.172   1.236  -1.066  0.00  0.00    +0.136 C 
ATOM     25  C   UNL     1      11.384   0.490  -0.476  0.00  0.00    +0.125 C 
ATOM     26  N   UNL     1      10.838  -0.186   0.710  0.00  0.00    -0.297 N 
ATOM     27  C   UNL     1       9.535   0.103   0.821  0.00  0.00    +0.308 C 
ATOM     28  O   UNL     1       8.835  -0.324   1.719  0.00  0.00    -0.252 OA
ATOM     29  H   UNL     1      11.343  -0.750   1.318  0.00  0.00    +0.150 HD
ENDBRANCH  17  18
ENDBRANCH   2  17
TORSDOF 5
