REMARK  Name = ZINC00913428
REMARK  4 active torsions:
REMARK  status: ('A' for Active; 'I' for Inactive)
REMARK    1  A    between atoms: N_9  and  C_10
REMARK    2  A    between atoms: C_10  and  C_12
REMARK    3  A    between atoms: C_10  and  C_28
REMARK    4  A    between atoms: N_32  and  C_33
REMARK                            x       y       z     vdW  Elec       q    Type
REMARK                         _______ _______ _______ _____ _____    ______ ____
ROOT
ATOM      1  C   UNL     1       1.968  -2.772   0.813  0.00  0.00    +0.179 C 
ENDROOT
BRANCH   1   2
ATOM      2  C   UNL     1       1.917  -2.196   2.205  0.00  0.00    +0.045 A 
ATOM      3  C   UNL     1       3.027  -1.631   2.744  0.00  0.00    +0.021 A 
ATOM      4  C   UNL     1       2.946  -1.081   4.096  0.00  0.00    +0.003 A 
ATOM      5  C   UNL     1       4.059  -0.487   4.704  0.00  0.00    +0.059 A 
ATOM      6  C   UNL     1       3.953   0.019   5.982  0.00  0.00    +0.163 A 
ATOM      7  C   UNL     1       2.739  -0.055   6.670  0.00  0.00    +0.164 A 
ATOM      8  C   UNL     1       1.632  -0.639   6.077  0.00  0.00    +0.075 A 
ATOM      9  C   UNL     1       1.723  -1.156   4.791  0.00  0.00    +0.053 A 
ATOM     10  N   UNL     1       0.630  -1.743   4.186  0.00  0.00    -0.322 N 
ATOM     11  H   UNL     1      -0.212  -1.793   4.665  0.00  0.00    +0.169 HD
ATOM     12  C   UNL     1       0.715  -2.240   2.940  0.00  0.00    +0.255 A 
ATOM     13  O   UNL     1      -0.272  -2.748   2.434  0.00  0.00    -0.268 OA
ATOM     14  O   UNL     1       2.625   0.446   7.930  0.00  0.00    -0.485 OA
ATOM     15  C   UNL     1       3.844   0.686   8.640  0.00  0.00    +0.270 C 
ATOM     16  C   UNL     1       4.811   1.420   7.702  0.00  0.00    +0.270 C 
ATOM     17  O   UNL     1       5.047   0.588   6.561  0.00  0.00    -0.485 OA
ENDBRANCH   1   2
BRANCH   1  26
ATOM     18  C   UNL     1       1.238  -2.695  -4.120  0.00  0.00    +0.000 A 
ATOM     19  C   UNL     1       1.555  -3.782  -3.326  0.00  0.00    +0.002 A 
ATOM     20  C   UNL     1       1.471  -3.688  -1.953  0.00  0.00    +0.023 A 
ATOM     21  C   UNL     1       1.066  -2.495  -1.355  0.00  0.00    +0.034 A 
ATOM     22  C   UNL     1       0.755  -1.407  -2.162  0.00  0.00    -0.025 A 
ATOM     23  C   UNL     1       0.838  -1.507  -3.535  0.00  0.00    +0.005 A 
ATOM     24  C   UNL     1       0.368  -0.253  -1.259  0.00  0.00    +0.056 C 
ATOM     25  C   UNL     1       0.892  -0.706   0.123  0.00  0.00    +0.111 C 
ATOM     26  N   UNL     1       0.898  -2.180  -0.001  0.00  0.00    -0.315 N 
ENDBRANCH   1  26
BRANCH   1  27
ATOM     27  C   UNL     1       1.779  -4.266   0.881  0.00  0.00    +0.177 A 
ATOM     28  N   UNL     1       0.654  -4.903   1.099  0.00  0.00    -0.111 NA
ATOM     29  N   UNL     1       0.904  -6.167   1.081  0.00  0.00    -0.023 NA
ATOM     30  N   UNL     1       2.158  -6.353   0.858  0.00  0.00    -0.044 NA
ATOM     31  N   UNL     1       2.731  -5.204   0.724  0.00  0.00    -0.224 N 
BRANCH  31  32
ATOM     32  C   UNL     1       4.151  -4.966   0.454  0.00  0.00    +0.111 C 
ATOM     33  C   UNL     1       4.534  -5.621  -0.874  0.00  0.00    +0.027 C 
ATOM     34  C   UNL     1       6.018  -5.373  -1.156  0.00  0.00    +0.002 C 
ATOM     35  C   UNL     1       6.859  -5.975  -0.029  0.00  0.00    +0.000 C 
ATOM     36  C   UNL     1       6.475  -5.320   1.300  0.00  0.00    +0.002 C 
ATOM     37  C   UNL     1       4.992  -5.569   1.581  0.00  0.00    +0.027 C 
ENDBRANCH  31  32
ENDBRANCH   1  27
TORSDOF 4
