REMARK  Name = ZINC12535989
REMARK  9 active torsions:
REMARK  status: ('A' for Active; 'I' for Inactive)
REMARK    1  A    between atoms: C_1  and  C_2
REMARK    2  A    between atoms: C_2  and  C_3
REMARK    3  A    between atoms: C_3  and  C_4
REMARK    4  A    between atoms: C_4  and  N_5
REMARK    5  A    between atoms: N_5  and  C_6
REMARK    6  A    between atoms: C_7  and  C_9
REMARK    7  A    between atoms: C_14  and  N_15
REMARK    8  A    between atoms: N_15  and  S_16
REMARK    9  A    between atoms: S_16  and  C_19
REMARK                            x       y       z     vdW  Elec       q    Type
REMARK                         _______ _______ _______ _____ _____    ______ ____
ROOT
ATOM      1  N   UNL     1       1.671  -0.152  -2.644  0.00  0.00    -0.216 N 
ATOM      2  H   UNL     1       2.572  -0.506  -2.588  0.00  0.00    +0.174 HD
ENDROOT
BRANCH   1   8
ATOM      3  C   UNL     1       2.377   1.908  -3.700  0.00  0.00    +0.059 A 
ATOM      4  C   UNL     1       2.161   3.266  -3.949  0.00  0.00    +0.015 A 
ATOM      5  C   UNL     1       1.064   3.898  -3.408  0.00  0.00    +0.001 A 
ATOM      6  C   UNL     1       0.169   3.194  -2.618  0.00  0.00    +0.002 A 
ATOM      7  C   UNL     1       0.364   1.852  -2.367  0.00  0.00    +0.025 A 
ATOM      8  C   UNL     1       1.469   1.198  -2.899  0.00  0.00    +0.060 A 
BRANCH   3  11
ATOM      9  N   UNL     1       3.834   1.364  -5.587  0.00  0.00    -0.301 N 
ATOM     10  C   UNL     1       2.925   2.113  -6.458  0.00  0.00    +0.132 C 
ATOM     11  C   UNL     1       3.549   1.225  -4.276  0.00  0.00    +0.248 C 
ATOM     12  O   UNL     1       4.260   0.536  -3.570  0.00  0.00    -0.270 OA
BRANCH   9  13
ATOM     13  C   UNL     1       5.052   0.766  -6.139  0.00  0.00    +0.108 C 
BRANCH  13  14
ATOM     14  C   UNL     1       4.750  -0.656  -6.617  0.00  0.00    +0.019 C 
BRANCH  14  16
ATOM     15  C   UNL     1       5.721  -2.702  -7.673  0.00  0.00    +0.004 C 
ATOM     16  C   UNL     1       6.022  -1.280  -7.194  0.00  0.00    -0.002 C 
ENDBRANCH  14  16
ENDBRANCH  13  14
ENDBRANCH   9  13
ENDBRANCH   3  11
ENDBRANCH   1   8
BRANCH   1  17
ATOM     17  S   UNL     1       0.373  -1.158  -2.434  0.00  0.00    +0.072 S 
ATOM     18  O   UNL     1      -0.432  -0.577  -1.417  0.00  0.00    -0.150 OA
ATOM     19  O   UNL     1       0.893  -2.477  -2.334  0.00  0.00    -0.150 OA
BRANCH  17  20
ATOM     20  C   UNL     1      -0.575  -1.102  -3.918  0.00  0.00    +0.111 A 
ATOM     21  C   UNL     1      -1.583  -0.164  -4.057  0.00  0.00    +0.031 A 
ATOM     22  C   UNL     1      -2.332  -0.113  -5.217  0.00  0.00    +0.030 A 
ATOM     23  C   UNL     1      -2.071  -1.004  -6.247  0.00  0.00    +0.067 A 
ATOM     24  C   UNL     1      -1.054  -1.950  -6.107  0.00  0.00    +0.069 A 
ATOM     25  C   UNL     1      -0.308  -1.994  -4.939  0.00  0.00    +0.056 A 
ATOM     26  N   UNL     1      -1.030  -2.692  -7.285  0.00  0.00    -0.306 N 
ATOM     27  H   UNL     1      -0.425  -3.425  -7.482  0.00  0.00    +0.170 HD
ATOM     28  C   UNL     1      -1.988  -2.220  -8.104  0.00  0.00    +0.325 A 
ATOM     29  O   UNL     1      -2.234  -2.649  -9.216  0.00  0.00    -0.247 OA
ATOM     30  N   UNL     1      -2.634  -1.201  -7.505  0.00  0.00    -0.306 N 
ATOM     31  H   UNL     1      -3.366  -0.692  -7.886  0.00  0.00    +0.170 HD
ENDBRANCH  17  20
ENDBRANCH   1  17
TORSDOF 7
