REMARK  Name = ZINC35270432
REMARK  1 active torsions:
REMARK  status: ('A' for Active; 'I' for Inactive)
REMARK    1  A    between atoms: C_6  and  N_7
REMARK                            x       y       z     vdW  Elec       q    Type
REMARK                         _______ _______ _______ _____ _____    ______ ____
ROOT
ATOM      1  C   UNL     1      -0.017   1.388   0.010  0.00  0.00    +0.028 A 
ATOM      2  C   UNL     1       1.193   2.063   0.002  0.00  0.00    +0.036 A 
ATOM      3  C   UNL     1       2.371   1.339  -0.013  0.00  0.00    +0.103 A 
ATOM      4  N   UNL     1       2.356   0.019  -0.021  0.00  0.00    -0.228 NA
ATOM      5  C   UNL     1       1.227  -0.662  -0.014  0.00  0.00    +0.151 A 
ATOM      6  C   UNL     1       0.002  -0.004   0.002  0.00  0.00    +0.062 A 
ATOM      7 CL   UNL     1       1.271  -2.397  -0.024  0.00  0.00    -0.060 Cl
ATOM      8  I   UNL     1       4.205   2.351  -0.025  0.00  0.00    -0.022 I 
ENDROOT
BRANCH   6   9
ATOM      9  N   UNL     1      -1.193  -0.730   0.010  0.00  0.00    -0.356 N 
ATOM     10  H   UNL     1      -2.043  -0.264   0.021  0.00  0.00    +0.142 HD
ATOM     11  H   UNL     1      -1.171  -1.700   0.005  0.00  0.00    +0.142 HD
ENDBRANCH   6   9
TORSDOF 1
