REMARK  Name = ZINC15399113
REMARK  7 active torsions:
REMARK  status: ('A' for Active; 'I' for Inactive)
REMARK    1  A    between atoms: C_1  and  C_2
REMARK    2  A    between atoms: C_6  and  N_9
REMARK    3  A    between atoms: C_7  and  C_8
REMARK    4  A    between atoms: C_10  and  C_12
REMARK    5  A    between atoms: C_12  and  N_13
REMARK    6  A    between atoms: C_16  and  C_20
REMARK    7  A    between atoms: C_16  and  C_21
REMARK                            x       y       z     vdW  Elec       q    Type
REMARK                         _______ _______ _______ _____ _____    ______ ____
ROOT
ATOM      1  N   UNL     1      -0.207  -6.335   3.410  0.00  0.00    -0.215 N 
ATOM      2  C   UNL     1      -1.360  -7.007   3.220  0.00  0.00    +0.251 C 
ATOM      3  O   UNL     1      -2.484  -6.554   3.243  0.00  0.00    -0.272 OA
ATOM      4  C   UNL     1      -0.958  -8.447   2.970  0.00  0.00    +0.135 C 
ATOM      5  N   UNL     1       0.512  -8.416   3.056  0.00  0.00    -0.281 N 
ATOM      6  C   UNL     1       0.856  -7.141   3.311  0.00  0.00    +0.310 C 
ATOM      7  O   UNL     1       2.004  -6.763   3.441  0.00  0.00    -0.252 OA
ATOM      8  C   UNL     1      -1.541  -9.364   4.047  0.00  0.00    +0.047 C 
ATOM      9  H   UNL     1       1.115  -9.168   2.948  0.00  0.00    +0.152 HD
ENDROOT
BRANCH   4  10
ATOM     10  C   UNL     1      -1.399  -8.890   1.599  0.00  0.00    -0.013 A 
ATOM     11  C   UNL     1      -2.528  -8.337   1.024  0.00  0.00    +0.009 A 
ATOM     12  C   UNL     1      -2.934  -8.741  -0.234  0.00  0.00    +0.041 A 
ATOM     13  C   UNL     1      -2.211  -9.702  -0.919  0.00  0.00    +0.158 A 
ATOM     14  C   UNL     1      -1.079 -10.257  -0.343  0.00  0.00    +0.159 A 
ATOM     15  C   UNL     1      -0.671  -9.846   0.914  0.00  0.00    +0.047 A 
ATOM     16  F   UNL     1      -0.371 -11.195  -1.010  0.00  0.00    -0.202 F 
ATOM     17  F   UNL     1      -2.608 -10.098  -2.148  0.00  0.00    -0.202 F 
ENDBRANCH   4  10
BRANCH   1  18
ATOM     18  C   UNL     1      -0.129  -4.898   3.686  0.00  0.00    +0.214 C 
BRANCH  18  20
ATOM     19  N   UNL     1       0.052  -2.797   2.393  0.00  0.00    -0.284 N 
ATOM     20  C   UNL     1      -0.031  -4.143   2.385  0.00  0.00    +0.235 C 
ATOM     21  O   UNL     1      -0.028  -4.745   1.333  0.00  0.00    -0.274 OA
ATOM     22  H   UNL     1       0.130  -2.321   3.234  0.00  0.00    +0.155 HD
BRANCH  19  28
ATOM     23  C   UNL     1       1.206   1.236  -0.172  0.00  0.00    +0.044 C 
ATOM     24  C   UNL     1       0.577  -0.131  -0.084  0.00  0.00    -0.046 A 
ATOM     25  C   UNL     1      -0.027  -0.686  -1.198  0.00  0.00    +0.004 A 
ATOM     26  C   UNL     1      -0.605  -1.940  -1.122  0.00  0.00    +0.002 A 
ATOM     27  C   UNL     1      -0.580  -2.642   0.067  0.00  0.00    +0.023 A 
ATOM     28  C   UNL     1       0.026  -2.088   1.187  0.00  0.00    +0.037 A 
ATOM     29  C   UNL     1       0.610  -0.831   1.106  0.00  0.00    -0.026 A 
ATOM     30  C   UNL     1       1.274  -0.228   2.317  0.00  0.00    +0.046 C 
ENDBRANCH  19  28
ENDBRANCH  18  20
ENDBRANCH   1  18
TORSDOF 4
