REMARK  Name = ZINC26504153
REMARK  10 active torsions:
REMARK  status: ('A' for Active; 'I' for Inactive)
REMARK    1  A    between atoms: C_1  and  C_2
REMARK    2  A    between atoms: C_2  and  O_3
REMARK    3  A    between atoms: O_3  and  C_4
REMARK    4  A    between atoms: C_7  and  C_10
REMARK    5  A    between atoms: C_10  and  C_13
REMARK    6  A    between atoms: N_11  and  O_12
REMARK    7  A    between atoms: C_13  and  C_15
REMARK    8  A    between atoms: C_13  and  O_22
REMARK    9  A    between atoms: C_15  and  N_16
REMARK   10  A    between atoms: O_22  and  C_23
REMARK                            x       y       z     vdW  Elec       q    Type
REMARK                         _______ _______ _______ _____ _____    ______ ____
ROOT
ATOM      1  C   UNL     1      -2.962   4.949   1.370  0.00  0.00    +0.209 C 
ENDROOT
BRANCH   1   2
ATOM      2  C   UNL     1      -3.315   6.414   1.397  0.00  0.00    +0.125 C 
ATOM      3  N   UNL     1      -4.469   6.793   1.843  0.00  0.00    -0.088 NA
BRANCH   2   7
ATOM      4  C   UNL     1      -0.521   9.295   0.012  0.00  0.00    +0.121 A 
ATOM      5  C   UNL     1      -0.074   8.165   0.685  0.00  0.00    +0.046 A 
ATOM      6  C   UNL     1      -0.977   7.227   1.136  0.00  0.00    +0.013 A 
ATOM      7  C   UNL     1      -2.344   7.415   0.916  0.00  0.00    +0.003 A 
ATOM      8  C   UNL     1      -2.789   8.550   0.235  0.00  0.00    +0.013 A 
ATOM      9  C   UNL     1      -1.879   9.486  -0.208  0.00  0.00    +0.046 A 
BRANCH   4  10
ATOM     10  O   UNL     1       0.373  10.217  -0.431  0.00  0.00    -0.492 OA
BRANCH  10  12
ATOM     11  C   UNL     1       0.994  12.275  -1.535  0.00  0.00    +0.048 C 
ATOM     12  C   UNL     1      -0.154  11.355  -1.115  0.00  0.00    +0.225 C 
ENDBRANCH  10  12
ENDBRANCH   4  10
ENDBRANCH   2   7
BRANCH   3  13
ATOM     13  O   UNL     1      -4.749   8.173   1.998  0.00  0.00    -0.409 OA
ATOM     14  H   UNL     1      -5.730   8.496   2.377  0.00  0.00    +0.328 HD
ENDBRANCH   3  13
ENDBRANCH   1   2
BRANCH   1  15
ATOM     15  C   UNL     1      -2.522   4.556  -0.042  0.00  0.00    -0.027 C 
BRANCH  15  16
ATOM     16  N   UNL     1      -2.334   3.101  -0.109  0.00  0.00    +0.382 N 
ATOM     17  C   UNL     1      -2.320   2.636  -1.502  0.00  0.00    -0.079 C 
ATOM     18  C   UNL     1      -2.269   1.107  -1.530  0.00  0.00    -0.019 C 
ATOM     19  C   UNL     1      -1.010   0.629  -0.800  0.00  0.00    -0.004 C 
ATOM     20  C   UNL     1      -1.024   1.168   0.633  0.00  0.00    -0.019 C 
ATOM     21  C   UNL     1      -1.113   2.695   0.599  0.00  0.00    -0.079 C 
ATOM     22  H   UNL     1      -3.188   2.624   0.395  0.00  0.00    -0.082 HD
ENDBRANCH  15  16
ENDBRANCH   1  15
BRANCH   1  23
ATOM     23  O   UNL     1      -1.897   4.698   2.288  0.00  0.00    -0.483 OA
BRANCH  23  24
ATOM     24  C   UNL     1      -2.237   4.503   3.590  0.00  0.00    +0.140 A 
ATOM     25  C   UNL     1      -3.569   4.537   3.973  0.00  0.00    +0.048 A 
ATOM     26  C   UNL     1      -3.913   4.335   5.295  0.00  0.00    +0.023 A 
ATOM     27  C   UNL     1      -2.929   4.107   6.240  0.00  0.00    +0.043 A 
ATOM     28  C   UNL     1      -1.598   4.078   5.863  0.00  0.00    +0.043 A 
ATOM     29  C   UNL     1      -1.250   4.275   4.540  0.00  0.00    +0.084 A 
ATOM     30 CL   UNL     1       0.420   4.239   4.066  0.00  0.00    -0.080 Cl
ATOM     31 CL   UNL     1      -3.364   3.859   7.903  0.00  0.00    -0.083 Cl
ENDBRANCH  23  24
ENDBRANCH   1  23
TORSDOF 9
