REMARK  Name = ZINC05353179
REMARK  9 active torsions:
REMARK  status: ('A' for Active; 'I' for Inactive)
REMARK    1  A    between atoms: C_1  and  C_2
REMARK    2  A    between atoms: C_2  and  C_22
REMARK    3  A    between atoms: N_3  and  N_4
REMARK    4  A    between atoms: C_5  and  C_7
REMARK    5  A    between atoms: C_15  and  C_18
REMARK    6  A    between atoms: C_18  and  C_19
REMARK    7  A    between atoms: C_18  and  C_20
REMARK    8  A    between atoms: C_18  and  C_21
REMARK    9  A    between atoms: C_27  and  O_28
REMARK                            x       y       z     vdW  Elec       q    Type
REMARK                         _______ _______ _______ _____ _____    ______ ____
ROOT
ATOM      1  N   UNL     1       0.024   0.035   2.340  0.00  0.00    -0.201 N 
ATOM      2  C   UNL     1       0.044  -0.645   3.503  0.00  0.00    +0.284 C 
ATOM      3  O   UNL     1       0.060  -1.861   3.496  0.00  0.00    -0.267 OA
ATOM      4  H   UNL     1       0.011   1.005   2.345  0.00  0.00    +0.178 HD
ENDROOT
BRANCH   2   5
ATOM      5  C   UNL     1       0.046   0.086   4.786  0.00  0.00    +0.152 A 
ATOM      6  C   UNL     1       0.072  -0.477   6.073  0.00  0.00    +0.006 A 
ATOM      7  C   UNL     1       0.062   0.568   6.937  0.00  0.00    +0.040 A 
ATOM      8  N   UNL     1       0.035   1.692   6.202  0.00  0.00    -0.281 N 
ATOM      9  H   UNL     1       0.025   2.592   6.562  0.00  0.00    +0.189 HD
ATOM     10  N   UNL     1       0.030   1.398   4.947  0.00  0.00    -0.169 NA
ATOM     11  C   UNL     1       0.078   0.418   8.437  0.00  0.00    +0.055 C 
ATOM     12  C   UNL     1      -0.311  -1.025   8.782  0.00  0.00    +0.010 C 
ATOM     13  C   UNL     1       0.534  -1.998   7.954  0.00  0.00    -0.001 C 
ATOM     14  C   UNL     1       0.106  -1.924   6.482  0.00  0.00    +0.043 C 
BRANCH  13  15
ATOM     15  C   UNL     1       0.327  -3.422   8.474  0.00  0.00    -0.035 C 
ATOM     16  C   UNL     1      -1.151  -3.799   8.354  0.00  0.00    +0.011 C 
ATOM     17  C   UNL     1       1.171  -4.394   7.647  0.00  0.00    +0.011 C 
ATOM     18  C   UNL     1       0.754  -3.496   9.941  0.00  0.00    +0.011 C 
ENDBRANCH  13  15
ENDBRANCH   2   5
BRANCH   1  21
ATOM     19  C   UNL     1      -0.018   1.503   0.010  0.00  0.00    +0.068 C 
ATOM     20  C   UNL     1       0.002  -0.004   0.002  0.00  0.00    +0.067 C 
ATOM     21  N   UNL     1       0.022  -0.659   1.123  0.00  0.00    -0.184 NA
BRANCH  20  22
ATOM     22  C   UNL     1      -0.000  -0.734  -1.278  0.00  0.00    +0.039 A 
ATOM     23  C   UNL     1      -0.015  -0.033  -2.486  0.00  0.00    +0.013 A 
ATOM     24  C   UNL     1      -0.017  -0.722  -3.681  0.00  0.00    +0.001 A 
ATOM     25  C   UNL     1      -0.005  -2.107  -3.688  0.00  0.00    +0.004 A 
ATOM     26  C   UNL     1       0.010  -2.812  -2.499  0.00  0.00    +0.046 A 
ATOM     27  C   UNL     1       0.019  -2.135  -1.290  0.00  0.00    +0.126 A 
BRANCH  27  28
ATOM     28  O   UNL     1       0.039  -2.827  -0.122  0.00  0.00    -0.506 OA
ATOM     29  H   UNL     1      -0.838  -3.040   0.225  0.00  0.00    +0.292 HD
ENDBRANCH  27  28
ENDBRANCH  20  22
ENDBRANCH   1  21
TORSDOF 5
