REMARK  Name = ZINC66972876
REMARK  6 active torsions:
REMARK  status: ('A' for Active; 'I' for Inactive)
REMARK    1  A    between atoms: C_1  and  C_2
REMARK    2  A    between atoms: C_12  and  C_15
REMARK    3  A    between atoms: C_15  and  N_16
REMARK    4  A    between atoms: N_16  and  C_17
REMARK    5  A    between atoms: C_17  and  C_18
REMARK    6  A    between atoms: C_21  and  C_23
REMARK                            x       y       z     vdW  Elec       q    Type
REMARK                         _______ _______ _______ _____ _____    ______ ____
ROOT
ATOM      1  C   UNL     1      -0.619  -5.442  -5.290  0.00  0.00    +0.118 C 
ENDROOT
BRANCH   1  12
ATOM      2  C   UNL     1       3.274  -2.149   1.783  0.00  0.00    +0.039 C 
ATOM      3  C   UNL     1       2.763  -1.746   0.398  0.00  0.00    +0.132 C 
ATOM      4  C   UNL     1       1.461  -2.497   0.095  0.00  0.00    +0.137 C 
ATOM      5  N   UNL     1       0.894  -1.957  -1.151  0.00  0.00    -0.312 N 
ATOM      6  C   UNL     1       0.744  -0.498  -1.267  0.00  0.00    +0.134 C 
ATOM      7  C   UNL     1       2.080   0.156  -0.897  0.00  0.00    +0.179 C 
ATOM      8  O   UNL     1       2.512  -0.339   0.373  0.00  0.00    -0.374 OA
ATOM      9  C   UNL     1       0.510  -2.800  -2.187  0.00  0.00    +0.099 A 
ATOM     10  C   UNL     1      -0.134  -2.274  -3.302  0.00  0.00    +0.042 A 
ATOM     11  C   UNL     1      -0.510  -3.124  -4.326  0.00  0.00    +0.009 A 
ATOM     12  C   UNL     1      -0.228  -4.478  -4.200  0.00  0.00    -0.018 A 
ATOM     13  C   UNL     1       0.415  -4.933  -3.066  0.00  0.00    +0.089 A 
ATOM     14  N   UNL     1       0.767  -4.097  -2.107  0.00  0.00    -0.349 N 
ATOM     15  H   UNL     1       1.221  -4.442  -1.322  0.00  0.00    +0.167 HD
ENDBRANCH   1  12
BRANCH   1  16
ATOM     16  N   UNL     1       0.478  -5.557  -6.260  0.00  0.00    -0.307 NA
ATOM     17  H   UNL     1       0.730  -4.653  -6.630  0.00  0.00    +0.123 HD
BRANCH  16  18
ATOM     18  C   UNL     1       0.131  -6.491  -7.340  0.00  0.00    +0.125 C 
BRANCH  18  19
ATOM     19  C   UNL     1       1.279  -6.582  -8.312  0.00  0.00    +0.024 A 
ATOM     20  C   UNL     1       2.342  -7.429  -8.323  0.00  0.00    +0.124 A 
ATOM     21  N   UNL     1       3.241  -7.338  -9.275  0.00  0.00    -0.247 NA
ATOM     22  C   UNL     1       3.136  -6.432 -10.237  0.00  0.00    +0.108 A 
ATOM     23  S   UNL     1       1.615  -5.612  -9.777  0.00  0.00    -0.071 S 
BRANCH  22  24
ATOM     24  C   UNL     1       4.032  -6.173 -11.384  0.00  0.00    +0.007 A 
ATOM     25  C   UNL     1       3.735  -5.152 -12.289  0.00  0.00    +0.010 A 
ATOM     26  C   UNL     1       4.575  -4.916 -13.357  0.00  0.00    +0.001 A 
ATOM     27  C   UNL     1       5.710  -5.688 -13.533  0.00  0.00    +0.000 A 
ATOM     28  C   UNL     1       6.009  -6.701 -12.640  0.00  0.00    +0.001 A 
ATOM     29  C   UNL     1       5.181  -6.944 -11.564  0.00  0.00    +0.010 A 
ENDBRANCH  22  24
ENDBRANCH  18  19
ENDBRANCH  16  18
ENDBRANCH   1  16
TORSDOF 5
