REMARK  Name = ZINC17297484
REMARK  12 active torsions:
REMARK  status: ('A' for Active; 'I' for Inactive)
REMARK    1  A    between atoms: C_1  and  C_2
REMARK    2  A    between atoms: C_2  and  O_3
REMARK    3  A    between atoms: O_3  and  C_4
REMARK    4  A    between atoms: C_4  and  C_6
REMARK    5  A    between atoms: C_10  and  N_11
REMARK    6  A    between atoms: C_12  and  C_14
REMARK    7  A    between atoms: C_14  and  C_16
REMARK    8  A    between atoms: C_14  and  N_17
REMARK    9  A    between atoms: C_20  and  C_32
REMARK   10  A    between atoms: C_21  and  C_31
REMARK   11  A    between atoms: C_25  and  C_30
REMARK   12  A    between atoms: C_27  and  C_29
REMARK                            x       y       z     vdW  Elec       q    Type
REMARK                         _______ _______ _______ _____ _____    ______ ____
ROOT
ATOM      1  C   UNL     1      -1.244   2.108  -0.380  0.00  0.00    +0.176 C 
ATOM      2  C   UNL     1      -1.461   3.067   0.792  0.00  0.00    +0.041 C 
ENDROOT
BRANCH   1   3
ATOM      3  N   UNL     1       0.007   1.372  -0.184  0.00  0.00    -0.265 N 
ATOM      4  C   UNL     1       1.173   2.042  -0.054  0.00  0.00    +0.259 A 
ATOM      5  O   UNL     1       1.198   3.260  -0.093  0.00  0.00    -0.267 OA
ATOM      6  C   UNL     1       2.358   1.304   0.127  0.00  0.00    +0.035 A 
ATOM      7  C   UNL     1       2.287  -0.057   0.165  0.00  0.00    +0.050 A 
ATOM      8  N   UNL     1       1.110  -0.668   0.032  0.00  0.00    -0.217 NA
ATOM      9  C   UNL     1      -0.001   0.015  -0.138  0.00  0.00    +0.236 A 
ATOM     10  N   UNL     1      -1.200  -0.663  -0.271  0.00  0.00    -0.204 N 
ATOM     11  C   UNL     1      -1.995  -1.096   0.746  0.00  0.00    +0.045 A 
ATOM     12  C   UNL     1      -3.067  -1.707   0.195  0.00  0.00    +0.048 A 
ATOM     13  C   UNL     1      -2.929  -1.649  -1.199  0.00  0.00    +0.061 A 
ATOM     14  N   UNL     1      -1.817  -1.020  -1.477  0.00  0.00    -0.169 NA
ATOM     15  C   UNL     1      -3.900  -2.209  -2.205  0.00  0.00    +0.067 C 
ATOM     16  C   UNL     1      -1.727  -0.925   2.219  0.00  0.00    +0.066 C 
ATOM     17  C   UNL     1       3.540  -0.872   0.358  0.00  0.00    +0.066 C 
ATOM     18  C   UNL     1       3.683   2.007   0.277  0.00  0.00    +0.051 C 
ENDBRANCH   1   3
BRANCH   1  20
ATOM     19  N   UNL     1      -2.215   3.651  -2.052  0.00  0.00    -0.278 N 
ATOM     20  C   UNL     1      -1.170   2.893  -1.664  0.00  0.00    +0.240 C 
ATOM     21  O   UNL     1      -0.170   2.843  -2.348  0.00  0.00    -0.273 OA
ATOM     22  H   UNL     1      -3.015   3.691  -1.505  0.00  0.00    +0.155 HD
BRANCH  19  27
ATOM     23  C   UNL     1      -3.108   5.195  -3.797  0.00  0.00    +0.091 A 
ATOM     24  C   UNL     1      -2.780   5.851  -5.063  0.00  0.00    -0.021 A 
ATOM     25  C   UNL     1      -1.560   5.570  -5.553  0.00  0.00    -0.004 A 
ATOM     26  S   UNL     1      -0.841   4.460  -4.367  0.00  0.00    -0.077 S 
ATOM     27  C   UNL     1      -2.146   4.373  -3.233  0.00  0.00    +0.086 A 
ATOM     28  C   UNL     1      -1.297   6.278  -6.854  0.00  0.00    +0.043 C 
ATOM     29  C   UNL     1      -2.362   7.396  -6.911  0.00  0.00    +0.010 C 
ATOM     30  C   UNL     1      -3.481   6.808  -6.028  0.00  0.00    +0.037 C 
BRANCH  23  31
ATOM     31  C   UNL     1      -4.404   5.403  -3.148  0.00  0.00    +0.342 C 
ATOM     32  O   UNL     1      -4.547   6.313  -2.353  0.00  0.00    -0.245 OA
BRANCH  31  33
ATOM     33  O   UNL     1      -5.439   4.586  -3.431  0.00  0.00    -0.461 OA
BRANCH  33  35
ATOM     34  C   UNL     1      -7.742   3.830  -3.195  0.00  0.00    +0.048 C 
ATOM     35  C   UNL     1      -6.694   4.851  -2.750  0.00  0.00    +0.229 C 
ENDBRANCH  33  35
ENDBRANCH  31  33
ENDBRANCH  23  31
ENDBRANCH  19  27
ENDBRANCH   1  20
TORSDOF 6
