REMARK  Name = ZINC12559214
REMARK  4 active torsions:
REMARK  status: ('A' for Active; 'I' for Inactive)
REMARK    1  A    between atoms: C_1  and  C_2
REMARK    2  A    between atoms: C_5  and  N_10
REMARK    3  A    between atoms: N_17  and  C_22
REMARK    4  A    between atoms: N_20  and  C_21
REMARK                            x       y       z     vdW  Elec       q    Type
REMARK                         _______ _______ _______ _____ _____    ______ ____
ROOT
ATOM      1  N   UNL     1       2.223   1.586  -0.906  0.00  0.00    -0.310 N 
ATOM      2  C   UNL     1       2.078   1.345  -2.224  0.00  0.00    +0.203 A 
ATOM      3  N   UNL     1       3.200   0.883  -2.715  0.00  0.00    -0.218 NA
ATOM      4  C   UNL     1       4.115   0.796  -1.746  0.00  0.00    +0.168 A 
ATOM      5  C   UNL     1       3.518   1.240  -0.573  0.00  0.00    +0.152 A 
ATOM      6  C   UNL     1       4.271   1.253   0.620  0.00  0.00    +0.282 A 
ATOM      7  O   UNL     1       3.769   1.638   1.661  0.00  0.00    -0.265 OA
ATOM      8  N   UNL     1       5.553   0.833   0.595  0.00  0.00    -0.262 N 
ATOM      9  C   UNL     1       6.119   0.406  -0.547  0.00  0.00    +0.333 A 
ATOM     10  O   UNL     1       7.277   0.036  -0.533  0.00  0.00    -0.246 OA
ATOM     11  N   UNL     1       5.435   0.378  -1.707  0.00  0.00    -0.280 N 
ATOM     12  C   UNL     1       6.089  -0.096  -2.930  0.00  0.00    +0.155 C 
ATOM     13  C   UNL     1       6.340   0.844   1.830  0.00  0.00    +0.157 C 
ENDROOT
BRANCH   1  17
ATOM     14  C   UNL     1      -1.671   4.358  -0.203  0.00  0.00    +0.052 C 
ATOM     15  C   UNL     1      -0.832   3.194  -0.734  0.00  0.00    +0.176 C 
ATOM     16  C   UNL     1       0.670   3.469  -0.506  0.00  0.00    +0.081 C 
ATOM     17  C   UNL     1       1.200   2.110   0.002  0.00  0.00    +0.201 C 
ATOM     18  C   UNL     1      -0.014   1.204   0.009  0.00  0.00    +0.331 C 
ATOM     19  O   UNL     1       0.002  -0.004   0.002  0.00  0.00    -0.248 OA
ATOM     20  O   UNL     1      -1.114   1.979   0.018  0.00  0.00    -0.460 OA
ENDBRANCH   1  17
TORSDOF 1
