REMARK  Name = ZINC00242180
REMARK  8 active torsions:
REMARK  status: ('A' for Active; 'I' for Inactive)
REMARK    1  A    between atoms: C_1  and  O_2
REMARK    2  A    between atoms: O_2  and  C_3
REMARK    3  A    between atoms: C_7  and  C_11
REMARK    4  A    between atoms: C_8  and  O_9
REMARK    5  A    between atoms: O_9  and  C_10
REMARK    6  A    between atoms: C_16  and  N_25
REMARK    7  A    between atoms: C_20  and  N_24
REMARK    8  A    between atoms: C_21  and  C_22
REMARK                            x       y       z     vdW  Elec       q    Type
REMARK                         _______ _______ _______ _____ _____    ______ ____
ROOT
ATOM      1  C   UNL     1       1.329  -4.110  -2.298  0.00  0.00    +0.102 C 
ATOM      2  C   UNL     1       2.768  -4.554  -2.327  0.00  0.00    +0.008 A 
ATOM      3  C   UNL     1       3.504  -4.554  -1.155  0.00  0.00    +0.010 A 
ATOM      4  C   UNL     1       4.824  -4.957  -1.162  0.00  0.00    +0.023 A 
ATOM      5  C   UNL     1       5.418  -5.368  -2.350  0.00  0.00    +0.028 A 
ATOM      6  C   UNL     1       4.682  -5.369  -3.526  0.00  0.00    +0.069 A 
ATOM      7  C   UNL     1       3.355  -4.962  -3.515  0.00  0.00    +0.136 A 
ATOM      8  O   UNL     1       2.649  -4.970  -4.673  0.00  0.00    -0.441 OA
ATOM      9  C   UNL     1       1.306  -4.962  -4.639  0.00  0.00    +0.199 C 
ATOM     10  C   UNL     1       0.623  -4.564  -3.544  0.00  0.00    +0.098 C 
ENDROOT
BRANCH   1  15
ATOM     11  C   UNL     1       0.606  -0.608  -1.056  0.00  0.00    +0.162 A 
ATOM     12  C   UNL     1       1.173   0.159  -2.062  0.00  0.00    +0.049 A 
ATOM     13  C   UNL     1       1.787  -0.456  -3.137  0.00  0.00    +0.004 A 
ATOM     14  C   UNL     1       1.837  -1.836  -3.212  0.00  0.00    +0.008 A 
ATOM     15  C   UNL     1       1.273  -2.606  -2.212  0.00  0.00    +0.011 A 
ATOM     16  C   UNL     1       0.662  -1.996  -1.129  0.00  0.00    +0.166 A 
BRANCH  11  18
ATOM     17  C   UNL     1      -0.017   1.425   0.010  0.00  0.00    +0.277 C 
ATOM     18  O   UNL     1       0.002  -0.004   0.002  0.00  0.00    -0.491 OA
ENDBRANCH  11  18
BRANCH  16  19
ATOM     19  O   UNL     1       0.112  -2.753  -0.142  0.00  0.00    -0.491 OA
ATOM     20  C   UNL     1      -1.259  -3.125  -0.297  0.00  0.00    +0.277 C 
ENDBRANCH  16  19
ENDBRANCH   1  15
BRANCH   9  21
ATOM     21  N   UNL     1       0.610  -5.368  -5.750  0.00  0.00    -0.328 N 
ATOM     22  H   UNL     1       1.087  -5.655  -6.544  0.00  0.00    +0.145 HD
ATOM     23  H   UNL     1      -0.360  -5.368  -5.741  0.00  0.00    +0.145 HD
ENDBRANCH   9  21
BRANCH   5  24
ATOM     24  N   UNL     1       6.754  -5.777  -2.360  0.00  0.00    -0.358 N 
ATOM     25  H   UNL     1       7.268  -5.774  -1.537  0.00  0.00    +0.142 HD
ATOM     26  H   UNL     1       7.167  -6.062  -3.189  0.00  0.00    +0.142 HD
ENDBRANCH   5  24
BRANCH  10  27
ATOM     27  C   UNL     1      -0.809  -4.578  -3.572  0.00  0.00    +0.101 C 
ATOM     28  N   UNL     1      -1.945  -4.590  -3.595  0.00  0.00    -0.191 NA
ENDBRANCH  10  27
TORSDOF 6
