REMARK  Name = ZINC13122698
REMARK  5 active torsions:
REMARK  status: ('A' for Active; 'I' for Inactive)
REMARK    1  A    between atoms: C_1  and  C_2
REMARK    2  A    between atoms: C_10  and  C_21
REMARK    3  A    between atoms: C_13  and  C_15
REMARK    4  A    between atoms: C_24  and  O_27
REMARK    5  A    between atoms: O_27  and  C_28
REMARK                            x       y       z     vdW  Elec       q    Type
REMARK                         _______ _______ _______ _____ _____    ______ ____
ROOT
ATOM      1  C   UNL     1      -0.018   1.503   0.010  0.00  0.00    +0.109 C 
ATOM      2  C   UNL     1       0.002  -0.004   0.002  0.00  0.00    +0.216 C 
ATOM      3  O   UNL     1       0.020  -0.616   1.049  0.00  0.00    -0.276 OA
ATOM      4  N   UNL     1       0.000  -0.672  -1.169  0.00  0.00    -0.253 N 
ATOM      5  C   UNL     1       0.019  -2.070  -1.177  0.00  0.00    +0.242 A 
ATOM      6  N   UNL     1       0.034  -2.849  -0.090  0.00  0.00    -0.176 NA
ATOM      7  C   UNL     1       0.052  -4.109  -0.451  0.00  0.00    +0.251 A 
ATOM      8  N   UNL     1       0.041  -4.146  -1.819  0.00  0.00    -0.220 N 
ATOM      9  N   UNL     1       0.019  -2.826  -2.255  0.00  0.00    -0.131 NA
ATOM     10  C   UNL     1       0.038  -5.399  -2.573  0.00  0.00    +0.147 C 
ATOM     11  C   UNL     1       0.761  -6.460  -1.734  0.00  0.00    +0.087 C 
ATOM     12  C   UNL     1       0.351  -6.377  -0.290  0.00  0.00    +0.055 C 
ATOM     13  N   UNL     1       0.057  -5.247   0.293  0.00  0.00    -0.215 NA
ATOM     14  H   UNL     1      -0.015  -0.182  -2.006  0.00  0.00    +0.158 HD
ENDROOT
BRANCH  12  15
ATOM     15  C   UNL     1       0.277  -7.619   0.495  0.00  0.00    -0.004 A 
ATOM     16  C   UNL     1       0.590  -8.846  -0.098  0.00  0.00    +0.010 A 
ATOM     17  C   UNL     1       0.518 -10.005   0.645  0.00  0.00    +0.001 A 
ATOM     18  C   UNL     1       0.138  -9.957   1.975  0.00  0.00    +0.000 A 
ATOM     19  C   UNL     1      -0.174  -8.746   2.569  0.00  0.00    +0.001 A 
ATOM     20  C   UNL     1      -0.102  -7.578   1.841  0.00  0.00    +0.010 A 
ENDBRANCH  12  15
BRANCH  10  21
ATOM     21  C   UNL     1      -1.381  -5.835  -2.833  0.00  0.00    -0.022 A 
ATOM     22  C   UNL     1      -2.233  -6.081  -1.772  0.00  0.00    +0.009 A 
ATOM     23  C   UNL     1      -3.534  -6.480  -2.008  0.00  0.00    +0.046 A 
ATOM     24  C   UNL     1      -3.986  -6.634  -3.311  0.00  0.00    +0.120 A 
ATOM     25  C   UNL     1      -3.129  -6.386  -4.373  0.00  0.00    +0.046 A 
ATOM     26  C   UNL     1      -1.830  -5.982  -4.133  0.00  0.00    +0.009 A 
BRANCH  24  27
ATOM     27  O   UNL     1      -5.265  -7.028  -3.545  0.00  0.00    -0.495 OA
ATOM     28  C   UNL     1      -5.662  -7.165  -4.911  0.00  0.00    +0.277 C 
ENDBRANCH  24  27
ENDBRANCH  10  21
TORSDOF 3
