REMARK  Name = ZINC01527486
REMARK  5 active torsions:
REMARK  status: ('A' for Active; 'I' for Inactive)
REMARK    1  A    between atoms: C_1  and  C_2
REMARK    2  A    between atoms: C_5  and  C_20
REMARK    3  A    between atoms: C_6  and  C_8
REMARK    4  A    between atoms: C_9  and  C_18
REMARK    5  A    between atoms: C_13  and  C_17
REMARK                            x       y       z     vdW  Elec       q    Type
REMARK                         _______ _______ _______ _____ _____    ______ ____
ROOT
ATOM      1  C   UNL     1       3.267   2.560  -0.004  0.00  0.00    +0.100 A 
ATOM      2  C   UNL     1       2.371   3.626   0.166  0.00  0.00    +0.113 A 
ATOM      3  N   UNL     1       1.101   3.077   0.094  0.00  0.00    -0.297 N 
ATOM      4  C   UNL     1      -0.137   3.628   0.188  0.00  0.00    +0.093 A 
ATOM      5  C   UNL     1      -1.245   2.859   0.081  0.00  0.00    +0.021 A 
ATOM      6  C   UNL     1      -1.125   1.479  -0.134  0.00  0.00    -0.046 A 
ATOM      7  C   UNL     1       0.114   0.918  -0.225  0.00  0.00    +0.050 A 
ATOM      8  C   UNL     1       1.254   1.735  -0.111  0.00  0.00    +0.139 A 
ATOM      9  N   UNL     1       2.553   1.450  -0.166  0.00  0.00    -0.227 NA
ATOM     10  C   UNL     1      -2.357   0.621  -0.260  0.00  0.00    +0.044 C 
ENDROOT
BRANCH   1  16
ATOM     11  C   UNL     1       7.456   4.770  -1.581  0.00  0.00    +0.044 C 
ATOM     12  C   UNL     1       6.763   3.714  -0.759  0.00  0.00    -0.050 A 
ATOM     13  C   UNL     1       7.509   2.829  -0.001  0.00  0.00    +0.003 A 
ATOM     14  C   UNL     1       6.880   1.857   0.757  0.00  0.00    +0.004 A 
ATOM     15  C   UNL     1       5.503   1.765   0.760  0.00  0.00    -0.041 A 
ATOM     16  C   UNL     1       4.746   2.654  -0.002  0.00  0.00    +0.006 A 
ATOM     17  C   UNL     1       5.386   3.628  -0.768  0.00  0.00    +0.013 A 
ATOM     18  C   UNL     1       4.819   0.706   1.586  0.00  0.00    +0.044 C 
ENDBRANCH   1  16
BRANCH   2  19
ATOM     19  C   UNL     1       2.696   4.974   0.368  0.00  0.00    +0.279 C 
ATOM     20  O   UNL     1       1.816   5.812   0.407  0.00  0.00    -0.294 OA
ENDBRANCH   2  19
TORSDOF 2
