REMARK  Name = ZINC13500981
REMARK  12 active torsions:
REMARK  status: ('A' for Active; 'I' for Inactive)
REMARK    1  A    between atoms: C_1  and  C_2
REMARK    2  A    between atoms: C_2  and  C_3
REMARK    3  A    between atoms: C_3  and  C_4
REMARK    4  A    between atoms: C_4  and  C_6
REMARK    5  A    between atoms: C_4  and  N_75
REMARK    6  A    between atoms: N_10  and  C_11
REMARK    7  A    between atoms: C_17  and  C_18
REMARK    8  A    between atoms: C_17  and  N_75
REMARK    9  A    between atoms: C_18  and  C_19
REMARK   10  A    between atoms: C_25  and  C_26
REMARK   11  A    between atoms: C_25  and  N_75
REMARK   12  A    between atoms: C_32  and  C_38
REMARK                            x       y       z     vdW  Elec       q    Type
REMARK                         _______ _______ _______ _____ _____    ______ ____
ROOT
ATOM      1  N   UNL     1      -0.738   3.200   1.457  0.00  0.00    +0.389 N 
ATOM      2  H   UNL     1      -1.107   3.699   2.275  0.00  0.00    -0.080 HD
ENDROOT
BRANCH   1   3
ATOM      3  C   UNL     1      -0.556   1.775   1.805  0.00  0.00    +0.003 C 
BRANCH   3   4
ATOM      4  C   UNL     1       0.117   1.687   3.151  0.00  0.00    +0.138 A 
ATOM      5  N   UNL     1       1.160   2.373   3.550  0.00  0.00    -0.115 NA
ATOM      6  N   UNL     1       1.432   2.017   4.758  0.00  0.00    -0.023 NA
ATOM      7  N   UNL     1       0.593   1.116   5.137  0.00  0.00    -0.044 NA
ATOM      8  N   UNL     1      -0.233   0.886   4.173  0.00  0.00    -0.228 N 
BRANCH   8   9
ATOM      9  C   UNL     1      -1.345  -0.069   4.190  0.00  0.00    +0.111 C 
ATOM     10  C   UNL     1      -2.319   0.302   5.310  0.00  0.00    +0.027 C 
ATOM     11  C   UNL     1      -3.480  -0.694   5.327  0.00  0.00    +0.002 C 
ATOM     12  C   UNL     1      -2.937  -2.104   5.570  0.00  0.00    +0.000 C 
ATOM     13  C   UNL     1      -1.963  -2.476   4.450  0.00  0.00    +0.002 C 
ATOM     14  C   UNL     1      -0.802  -1.479   4.433  0.00  0.00    +0.027 C 
ENDBRANCH   8   9
ENDBRANCH   3   4
BRANCH   3  15
ATOM     15  C   UNL     1       0.308   1.073   0.756  0.00  0.00    -0.008 C 
BRANCH  15  17
ATOM     16  C   UNL     1       1.151  -1.143  -0.033  0.00  0.00    +0.004 C 
ATOM     17  C   UNL     1       0.398  -0.419   1.084  0.00  0.00    -0.005 C 
ENDBRANCH  15  17
ENDBRANCH   3  15
ENDBRANCH   1   3
BRANCH   1  18
ATOM     18  C   UNL     1       0.560   3.796   1.077  0.00  0.00    -0.073 C 
BRANCH  18  19
ATOM     19  C   UNL     1       0.422   5.319   1.083  0.00  0.00    +0.016 C 
BRANCH  19  20
ATOM     20  C   UNL     1       1.731   5.944   0.673  0.00  0.00    -0.049 A 
ATOM     21  C   UNL     1       2.674   6.263   1.632  0.00  0.00    +0.003 A 
ATOM     22  C   UNL     1       3.877   6.831   1.256  0.00  0.00    +0.000 A 
ATOM     23  C   UNL     1       4.132   7.091  -0.078  0.00  0.00    +0.000 A 
ATOM     24  C   UNL     1       3.186   6.778  -1.036  0.00  0.00    +0.000 A 
ATOM     25  C   UNL     1       1.985   6.205  -0.660  0.00  0.00    +0.003 A 
ENDBRANCH  19  20
ENDBRANCH  18  19
ENDBRANCH   1  18
BRANCH   1  26
ATOM     26  C   UNL     1      -1.699   3.329   0.341  0.00  0.00    -0.037 C 
BRANCH  26  27
ATOM     27  C   UNL     1      -3.095   3.171   0.886  0.00  0.00    +0.001 A 
ATOM     28  C   UNL     1      -3.799   4.266   1.266  0.00  0.00    +0.017 A 
ATOM     29  C   UNL     1      -5.155   4.079   1.788  0.00  0.00    -0.001 A 
ATOM     30  C   UNL     1      -5.932   5.170   2.191  0.00  0.00    +0.010 A 
ATOM     31  C   UNL     1      -7.191   4.962   2.677  0.00  0.00    +0.001 A 
ATOM     32  C   UNL     1      -7.707   3.676   2.776  0.00  0.00    +0.005 A 
ATOM     33  C   UNL     1      -6.959   2.587   2.385  0.00  0.00    -0.026 A 
ATOM     34  C   UNL     1      -5.674   2.775   1.887  0.00  0.00    +0.052 A 
ATOM     35  N   UNL     1      -4.904   1.702   1.488  0.00  0.00    -0.322 N 
ATOM     36  H   UNL     1      -5.263   0.804   1.557  0.00  0.00    +0.169 HD
ATOM     37  C   UNL     1      -3.662   1.884   1.006  0.00  0.00    +0.251 A 
ATOM     38  O   UNL     1      -3.010   0.913   0.663  0.00  0.00    -0.268 OA
ATOM     39  C   UNL     1      -7.531   1.197   2.498  0.00  0.00    +0.046 C 
ENDBRANCH  26  27
ENDBRANCH   1  26
TORSDOF 10
