REMARK  Name = ZINC16809405
REMARK  9 active torsions:
REMARK  status: ('A' for Active; 'I' for Inactive)
REMARK    1  A    between atoms: C_1  and  C_2
REMARK    2  A    between atoms: C_5  and  C_8
REMARK    3  A    between atoms: C_8  and  C_9
REMARK    4  A    between atoms: C_10  and  C_36
REMARK    5  A    between atoms: C_23  and  C_27
REMARK    6  A    between atoms: C_24  and  C_26
REMARK    7  A    between atoms: C_27  and  C_28
REMARK    8  A    between atoms: C_31  and  C_35
REMARK    9  A    between atoms: C_33  and  C_34
REMARK                            x       y       z     vdW  Elec       q    Type
REMARK                         _______ _______ _______ _____ _____    ______ ____
ROOT
ATOM      1  C   UNL     1      -0.976   1.060   1.865  0.00  0.00    +0.042 A 
ATOM      2  C   UNL     1      -1.869   0.400   2.658  0.00  0.00    +0.050 A 
ATOM      3  N   UNL     1      -2.468   1.036   3.663  0.00  0.00    -0.221 NA
ATOM      4  C   UNL     1      -2.219   2.304   3.916  0.00  0.00    +0.202 A 
ATOM      5  N   UNL     1      -1.339   3.014   3.160  0.00  0.00    -0.295 N 
ATOM      6  H   UNL     1      -1.167   3.947   3.361  0.00  0.00    +0.172 HD
ATOM      7  C   UNL     1      -0.701   2.413   2.133  0.00  0.00    +0.256 A 
ATOM      8  O   UNL     1       0.096   3.033   1.447  0.00  0.00    -0.267 OA
ATOM      9  N   UNL     1      -2.859   2.922   4.964  0.00  0.00    -0.255 N 
ATOM     10  C   UNL     1      -3.751   2.216   5.736  0.00  0.00    +0.202 A 
ATOM     11  N   UNL     1      -4.375   2.837   6.772  0.00  0.00    -0.295 N 
ATOM     12  H   UNL     1      -4.189   3.770   6.963  0.00  0.00    +0.172 HD
ATOM     13  C   UNL     1      -5.256   2.152   7.532  0.00  0.00    +0.256 A 
ATOM     14  O   UNL     1      -5.827   2.695   8.464  0.00  0.00    -0.267 OA
ATOM     15  C   UNL     1      -5.498   0.800   7.233  0.00  0.00    +0.042 A 
ATOM     16  C   UNL     1      -4.839   0.229   6.183  0.00  0.00    +0.050 A 
ATOM     17  N   UNL     1      -3.983   0.949   5.461  0.00  0.00    -0.221 NA
ATOM     18  C   UNL     1      -5.081  -1.218   5.841  0.00  0.00    +0.066 C 
ATOM     19  C   UNL     1      -2.179  -1.052   2.396  0.00  0.00    +0.066 C 
ATOM     20  H   UNL     1      -2.682   3.855   5.158  0.00  0.00    +0.158 HD
ENDROOT
BRANCH   1  21
ATOM     21  C   UNL     1      -0.292   0.349   0.725  0.00  0.00    +0.077 C 
BRANCH  21  26
ATOM     22  C   UNL     1       4.801  -1.709   2.517  0.00  0.00    +0.044 C 
ATOM     23  C   UNL     1       3.473  -1.173   2.050  0.00  0.00    -0.050 A 
ATOM     24  C   UNL     1       2.331  -1.940   2.185  0.00  0.00    +0.003 A 
ATOM     25  C   UNL     1       1.113  -1.448   1.756  0.00  0.00    +0.004 A 
ATOM     26  C   UNL     1       1.036  -0.188   1.193  0.00  0.00    -0.043 A 
ATOM     27  C   UNL     1       2.178   0.578   1.053  0.00  0.00    +0.004 A 
ATOM     28  C   UNL     1       3.396   0.087   1.486  0.00  0.00    +0.003 A 
ENDBRANCH  21  26
ENDBRANCH   1  21
BRANCH  15  29
ATOM     29  C   UNL     1      -6.469  -0.006   8.058  0.00  0.00    +0.077 C 
BRANCH  29  30
ATOM     30  C   UNL     1      -5.762  -0.557   9.269  0.00  0.00    -0.040 A 
ATOM     31  C   UNL     1      -4.453  -0.196   9.529  0.00  0.00    +0.004 A 
ATOM     32  C   UNL     1      -3.805  -0.701  10.641  0.00  0.00    +0.003 A 
ATOM     33  C   UNL     1      -4.466  -1.566  11.493  0.00  0.00    -0.050 A 
ATOM     34  C   UNL     1      -5.774  -1.927  11.233  0.00  0.00    +0.007 A 
ATOM     35  C   UNL     1      -6.425  -1.417  10.124  0.00  0.00    -0.047 A 
ATOM     36  C   UNL     1      -7.854  -1.805   9.844  0.00  0.00    +0.044 C 
ATOM     37  C   UNL     1      -3.759  -2.116  12.705  0.00  0.00    +0.044 C 
ENDBRANCH  29  30
ENDBRANCH  15  29
TORSDOF 4
