REMARK  Name = ZINC64349217
REMARK  8 active torsions:
REMARK  status: ('A' for Active; 'I' for Inactive)
REMARK    1  A    between atoms: C_1  and  C_2
REMARK    2  A    between atoms: C_5  and  N_9
REMARK    3  A    between atoms: C_6  and  C_8
REMARK    4  A    between atoms: C_10  and  C_12
REMARK    5  A    between atoms: C_12  and  C_14
REMARK    6  A    between atoms: C_12  and  N_24
REMARK    7  A    between atoms: C_14  and  C_15
REMARK    8  A    between atoms: C_25  and  C_27
REMARK                            x       y       z     vdW  Elec       q    Type
REMARK                         _______ _______ _______ _____ _____    ______ ____
ROOT
ATOM      1  C   UNL     1      -0.127  -6.471  -1.260  0.00  0.00    +0.163 C 
ENDROOT
BRANCH   1   3
ATOM      2  N   UNL     1       0.215  -4.164  -0.435  0.00  0.00    -0.284 N 
ATOM      3  C   UNL     1       0.006  -4.986  -1.483  0.00  0.00    +0.238 C 
ATOM      4  O   UNL     1      -0.074  -4.531  -2.604  0.00  0.00    -0.273 OA
ATOM      5  H   UNL     1       0.351  -4.533   0.451  0.00  0.00    +0.155 HD
BRANCH   2  10
ATOM      6  C   UNL     1       0.294   1.455  -1.213  0.00  0.00    +0.044 C 
ATOM      7  C   UNL     1       0.273  -0.037  -1.007  0.00  0.00    -0.050 A 
ATOM      8  C   UNL     1       0.756  -0.878  -1.993  0.00  0.00    +0.005 A 
ATOM      9  C   UNL     1       0.739  -2.246  -1.807  0.00  0.00    +0.024 A 
ATOM     10  C   UNL     1       0.235  -2.778  -0.627  0.00  0.00    +0.036 A 
ATOM     11  C   UNL     1      -0.249  -1.932   0.362  0.00  0.00    -0.029 A 
ATOM     12  C   UNL     1      -0.224  -0.564   0.171  0.00  0.00    +0.008 A 
ATOM     13  C   UNL     1      -0.797  -2.505   1.643  0.00  0.00    +0.045 C 
ENDBRANCH   2  10
ENDBRANCH   1   3
BRANCH   1  14
ATOM     14  N   UNL     1      -0.346  -7.139  -2.545  0.00  0.00    -0.302 N 
ATOM     15  C   UNL     1       0.077  -8.406  -2.727  0.00  0.00    +0.231 C 
ATOM     16  O   UNL     1       0.640  -8.992  -1.827  0.00  0.00    -0.274 OA
ATOM     17  H   UNL     1      -0.796  -6.670  -3.265  0.00  0.00    +0.150 HD
BRANCH  15  18
ATOM     18  C   UNL     1      -0.148  -9.093  -4.049  0.00  0.00    +0.145 C 
ATOM     19  C   UNL     1       0.917  -8.645  -5.049  0.00  0.00    +0.063 C 
ATOM     20  C   UNL     1       0.851  -9.499  -6.289  0.00  0.00    -0.041 A 
ATOM     21  C   UNL     1       1.472  -9.043  -7.441  0.00  0.00    +0.004 A 
ATOM     22  C   UNL     1       1.438  -9.796  -8.598  0.00  0.00    +0.000 A 
ATOM     23  C   UNL     1       0.781 -11.012  -8.607  0.00  0.00    +0.000 A 
ATOM     24  C   UNL     1       0.161 -11.467  -7.461  0.00  0.00    +0.005 A 
ATOM     25  C   UNL     1       0.192 -10.710  -6.299  0.00  0.00    -0.030 A 
ATOM     26  C   UNL     1      -0.509 -11.243  -5.077  0.00  0.00    +0.117 C 
ATOM     27  N   UNL     1      -0.045 -10.551  -3.872  0.00  0.00    -0.301 NA
ATOM     28  H   UNL     1       0.900 -10.821  -3.644  0.00  0.00    +0.123 HD
ENDBRANCH  15  18
ENDBRANCH   1  14
BRANCH   1  29
ATOM     29  C   UNL     1      -1.314  -6.743  -0.334  0.00  0.00    +0.065 C 
BRANCH  29  30
ATOM     30  C   UNL     1      -2.586  -6.287  -1.001  0.00  0.00    -0.039 C 
ATOM     31  C   UNL     1      -3.437  -7.042  -1.733  0.00  0.00    -0.001 A 
ATOM     32  C   UNL     1      -3.432  -8.459  -2.114  0.00  0.00    +0.010 A 
ATOM     33  C   UNL     1      -4.444  -8.938  -2.873  0.00  0.00    +0.001 A 
ATOM     34  C   UNL     1      -5.495  -8.117  -3.304  0.00  0.00    +0.002 A 
ATOM     35  C   UNL     1      -5.569  -6.805  -2.994  0.00  0.00    +0.026 A 
ATOM     36  C   UNL     1      -4.558  -6.196  -2.200  0.00  0.00    +0.043 A 
ATOM     37  N   UNL     1      -4.407  -4.965  -1.774  0.00  0.00    -0.380 N 
ATOM     38  C   UNL     1      -3.174  -4.893  -0.982  0.00  0.00    +0.144 C 
ATOM     39  H   UNL     1      -5.011  -4.227  -1.949  0.00  0.00    +0.160 HD
ENDBRANCH  29  30
ENDBRANCH   1  29
TORSDOF 6
