REMARK  Name = ZINC07997138
REMARK  8 active torsions:
REMARK  status: ('A' for Active; 'I' for Inactive)
REMARK    1  A    between atoms: C_1  and  C_2
REMARK    2  A    between atoms: C_15  and  C_17
REMARK    3  A    between atoms: C_17  and  N_55
REMARK    4  A    between atoms: C_18  and  N_55
REMARK    5  A    between atoms: C_19  and  C_20
REMARK    6  A    between atoms: C_19  and  N_55
REMARK    7  A    between atoms: C_23  and  C_26
REMARK    8  A    between atoms: N_28  and  C_29
REMARK                            x       y       z     vdW  Elec       q    Type
REMARK                         _______ _______ _______ _____ _____    ______ ____
ROOT
ATOM      1  C   UNL     1      -9.005   6.579   5.156  0.00  0.00    +0.029 C 
ATOM      2  C   UNL     1      -9.048   5.156   4.595  0.00  0.00    +0.087 C 
ATOM      3  C   UNL     1     -10.482   4.638   4.646  0.00  0.00    +0.118 C 
ATOM      4  C   UNL     1     -10.623   3.427   3.762  0.00  0.00    +0.219 C 
ATOM      5  O   UNL     1     -10.687   2.323   4.260  0.00  0.00    -0.275 OA
ATOM      6  N   UNL     1     -10.680   3.562   2.419  0.00  0.00    -0.284 N 
ATOM      7  C   UNL     1     -10.512   4.818   1.825  0.00  0.00    +0.055 A 
ATOM      8  C   UNL     1     -11.388   5.264   0.849  0.00  0.00    +0.025 A 
ATOM      9  C   UNL     1     -11.171   6.484   0.236  0.00  0.00    +0.002 A 
ATOM     10  C   UNL     1     -10.083   7.260   0.594  0.00  0.00    +0.002 A 
ATOM     11  C   UNL     1      -9.210   6.826   1.575  0.00  0.00    +0.025 A 
ATOM     12  C   UNL     1      -9.426   5.609   2.200  0.00  0.00    +0.058 A 
ATOM     13  N   UNL     1      -8.566   5.163   3.213  0.00  0.00    -0.268 N 
ATOM     14  C   UNL     1      -7.319   4.744   2.919  0.00  0.00    +0.204 C 
ATOM     15  O   UNL     1      -6.584   4.360   3.804  0.00  0.00    -0.277 OA
ATOM     16  H   UNL     1     -10.837   2.783   1.863  0.00  0.00    +0.155 HD
ENDROOT
BRANCH  14  17
ATOM     17  C   UNL     1      -6.838   4.751   1.491  0.00  0.00    +0.019 C 
BRANCH  17  19
ATOM     18  C   UNL     1      -4.538   5.172   2.119  0.00  0.00    -0.095 C 
ATOM     19  N   UNL     1      -5.457   4.227   1.450  0.00  0.00    +0.386 N 
ATOM     20  H   UNL     1      -5.427   3.327   1.943  0.00  0.00    -0.081 HD
BRANCH  19  21
ATOM     21  C   UNL     1      -5.037   4.021   0.048  0.00  0.00    -0.043 C 
BRANCH  21  22
ATOM     22  C   UNL     1      -3.721   3.285   0.038  0.00  0.00    -0.064 A 
ATOM     23  C   UNL     1      -3.706   1.901   0.030  0.00  0.00    +0.002 A 
ATOM     24  C   UNL     1      -2.506   1.222   0.021  0.00  0.00    +0.013 A 
ATOM     25  C   UNL     1      -1.305   1.933   0.019  0.00  0.00    +0.037 A 
ATOM     26  C   UNL     1      -1.327   3.329   0.032  0.00  0.00    +0.013 A 
ATOM     27  C   UNL     1      -2.534   3.996   0.036  0.00  0.00    +0.002 A 
BRANCH  25  28
ATOM     28  C   UNL     1      -0.014   1.211   0.009  0.00  0.00    +0.244 C 
ATOM     29  O   UNL     1       0.002  -0.004   0.002  0.00  0.00    -0.270 OA
ATOM     30  N   UNL     1       1.143   1.901   0.001  0.00  0.00    -0.314 N 
ATOM     31  C   UNL     1       2.422   1.186  -0.015  0.00  0.00    +0.128 C 
ATOM     32  H   UNL     1       1.130   2.871   0.007  0.00  0.00    +0.149 HD
ENDBRANCH  25  28
ENDBRANCH  21  22
ENDBRANCH  19  21
ENDBRANCH  17  19
ENDBRANCH  14  17
TORSDOF 5
