REMARK  Name = ZINC20569067
REMARK  8 active torsions:
REMARK  status: ('A' for Active; 'I' for Inactive)
REMARK    1  A    between atoms: C_1  and  C_2
REMARK    2  A    between atoms: C_3  and  C_23
REMARK    3  A    between atoms: N_19  and  C_20
REMARK    4  A    between atoms: C_20  and  C_21
REMARK    5  A    between atoms: C_23  and  O_25
REMARK    6  A    between atoms: O_25  and  C_26
REMARK    7  A    between atoms: C_26  and  C_27
REMARK    8  A    between atoms: C_26  and  C_28
REMARK                            x       y       z     vdW  Elec       q    Type
REMARK                         _______ _______ _______ _____ _____    ______ ____
ROOT
ATOM      1  C   UNL     1      -2.320  -0.369   2.739  0.00  0.00    +0.061 C 
ATOM      2  C   UNL     1      -3.223   0.786   2.389  0.00  0.00    +0.022 C 
ATOM      3  C   UNL     1      -4.074   1.366   3.259  0.00  0.00    +0.079 C 
ATOM      4  C   UNL     1      -4.767   2.459   2.485  0.00  0.00    +0.151 C 
ATOM      5  C   UNL     1      -4.539   3.805   3.109  0.00  0.00    -0.011 A 
ATOM      6  C   UNL     1      -3.407   4.532   3.401  0.00  0.00    +0.006 A 
ATOM      7  C   UNL     1      -3.516   5.779   3.994  0.00  0.00    +0.000 A 
ATOM      8  C   UNL     1      -4.763   6.298   4.295  0.00  0.00    +0.001 A 
ATOM      9  C   UNL     1      -5.904   5.580   4.008  0.00  0.00    +0.012 A 
ATOM     10  C   UNL     1      -5.803   4.321   3.409  0.00  0.00    +0.024 A 
ATOM     11  C   UNL     1      -6.835   3.349   2.994  0.00  0.00    +0.162 A 
ATOM     12  C   UNL     1      -6.254   2.251   2.450  0.00  0.00    +0.113 A 
ATOM     13  N   UNL     1      -7.233   1.405   2.091  0.00  0.00    -0.198 NA
ATOM     14  C   UNL     1      -8.390   1.943   2.396  0.00  0.00    +0.286 A 
ATOM     15  O   UNL     1      -8.175   3.144   2.956  0.00  0.00    -0.424 OA
ATOM     16  N   UNL     1      -9.625   1.369   2.178  0.00  0.00    -0.313 N 
ATOM     17  C   UNL     1      -4.164   2.378   1.106  0.00  0.00    +0.241 C 
ATOM     18  O   UNL     1      -4.428   3.075   0.149  0.00  0.00    -0.273 OA
ATOM     19  N   UNL     1      -3.270   1.369   1.157  0.00  0.00    -0.270 N 
ATOM     20  H   UNL     1     -10.540   1.905   2.471  0.00  0.00    +0.147 HD
ATOM     21  H   UNL     1      -9.695   0.375   1.712  0.00  0.00    +0.147 HD
ENDROOT
BRANCH   3  22
ATOM     22  C   UNL     1      -4.279   1.017   4.615  0.00  0.00    +0.339 C 
ATOM     23  O   UNL     1      -3.645   0.105   5.112  0.00  0.00    -0.245 OA
BRANCH  22  24
ATOM     24  O   UNL     1      -5.179   1.696   5.358  0.00  0.00    -0.459 OA
BRANCH  24  25
ATOM     25  C   UNL     1      -5.334   1.290   6.719  0.00  0.00    +0.171 C 
ATOM     26  C   UNL     1      -4.361   2.076   7.600  0.00  0.00    +0.052 C 
ATOM     27  C   UNL     1      -6.769   1.566   7.173  0.00  0.00    +0.052 C 
ENDBRANCH  24  25
ENDBRANCH  22  24
ENDBRANCH   3  22
BRANCH  19  28
ATOM     28  C   UNL     1      -2.451   0.944   0.019  0.00  0.00    +0.140 C 
BRANCH  28  29
ATOM     29  C   UNL     1      -1.156   1.715   0.017  0.00  0.00    -0.015 C 
ATOM     30  C   UNL     1      -0.013   1.076   0.008  0.00  0.00    +0.005 C 
ENDBRANCH  28  29
ENDBRANCH  19  28
TORSDOF 5
