REMARK  Name = ZINC47039816
REMARK  6 active torsions:
REMARK  status: ('A' for Active; 'I' for Inactive)
REMARK    1  A    between atoms: C_1  and  C_2
REMARK    2  A    between atoms: C_5  and  C_8
REMARK    3  A    between atoms: C_9  and  C_10
REMARK    4  A    between atoms: C_9  and  C_12
REMARK    5  A    between atoms: N_14  and  C_15
REMARK    6  A    between atoms: C_19  and  N_21
REMARK                            x       y       z     vdW  Elec       q    Type
REMARK                         _______ _______ _______ _____ _____    ______ ____
ROOT
ATOM      1  C   UNL     1       0.126  -4.270   2.454  0.00  0.00    +0.259 C 
ATOM      2  O   UNL     1      -0.032  -3.064   2.448  0.00  0.00    -0.269 OA
ATOM      3  N   UNL     1       0.331  -4.917   3.619  0.00  0.00    -0.281 N 
ATOM      4  H   UNL     1       0.387  -5.885   3.633  0.00  0.00    +0.155 HD
ENDROOT
BRANCH   3   5
ATOM      5  C   UNL     1       0.463  -4.192   4.807  0.00  0.00    +0.035 A 
ATOM      6  C   UNL     1      -0.284  -3.036   5.004  0.00  0.00    +0.023 A 
ATOM      7  C   UNL     1      -0.154  -2.320   6.178  0.00  0.00    +0.004 A 
ATOM      8  C   UNL     1       0.718  -2.749   7.160  0.00  0.00    +0.024 A 
ATOM      9  C   UNL     1       1.467  -3.903   6.969  0.00  0.00    +0.040 A 
ATOM     10  C   UNL     1       1.335  -4.628   5.794  0.00  0.00    +0.047 A 
BRANCH   9  11
ATOM     11  N   UNL     1       2.351  -4.336   7.965  0.00  0.00    -0.254 N 
ATOM     12  C   UNL     1       2.471  -3.755   9.310  0.00  0.00    +0.134 C 
ATOM     13  C   UNL     1       3.573  -4.598   9.980  0.00  0.00    +0.125 C 
ATOM     14  N   UNL     1       3.957  -5.565   8.941  0.00  0.00    -0.297 N 
ATOM     15  C   UNL     1       3.217  -5.351   7.845  0.00  0.00    +0.307 C 
ATOM     16  O   UNL     1       3.326  -6.014   6.832  0.00  0.00    -0.252 OA
ATOM     17  H   UNL     1       4.635  -6.252   9.036  0.00  0.00    +0.150 HD
ENDBRANCH   9  11
ENDBRANCH   3   5
BRANCH   1  19
ATOM     18  C   UNL     1       0.025  -4.357  -0.001  0.00  0.00    +0.032 C 
ATOM     19  C   UNL     1       0.093  -5.023   1.190  0.00  0.00    +0.114 C 
BRANCH  18  24
ATOM     20  C   UNL     1       0.977   1.306  -0.179  0.00  0.00    +0.044 C 
ATOM     21  C   UNL     1       0.728  -0.180  -0.133  0.00  0.00    -0.050 A 
ATOM     22  C   UNL     1      -0.287  -0.731  -0.896  0.00  0.00    +0.004 A 
ATOM     23  C   UNL     1      -0.522  -2.089  -0.860  0.00  0.00    +0.008 A 
ATOM     24  C   UNL     1       0.269  -2.911  -0.047  0.00  0.00    -0.024 A 
ATOM     25  C   UNL     1       1.293  -2.344   0.722  0.00  0.00    +0.008 A 
ATOM     26  C   UNL     1       1.518  -0.985   0.669  0.00  0.00    +0.004 A 
ENDBRANCH  18  24
BRANCH  19  27
ATOM     27  C   UNL     1       0.132  -6.455   1.208  0.00  0.00    +0.104 C 
ATOM     28  N   UNL     1       0.163  -7.590   1.222  0.00  0.00    -0.191 NA
ENDBRANCH  19  27
ENDBRANCH   1  19
TORSDOF 5
