REMARK  Name = ZINC41583853
REMARK  8 active torsions:
REMARK  status: ('A' for Active; 'I' for Inactive)
REMARK    1  A    between atoms: C_1  and  C_2
REMARK    2  A    between atoms: C_5  and  C_31
REMARK    3  A    between atoms: N_8  and  C_10
REMARK    4  A    between atoms: C_10  and  C_11
REMARK    5  A    between atoms: C_12  and  O_30
REMARK    6  A    between atoms: C_20  and  C_22
REMARK    7  A    between atoms: C_25  and  O_28
REMARK    8  A    between atoms: O_28  and  C_29
REMARK                            x       y       z     vdW  Elec       q    Type
REMARK                         _______ _______ _______ _____ _____    ______ ____
ROOT
ATOM      1  C   UNL     1       0.578  -2.075   3.654  0.00  0.00    +0.020 A 
ATOM      2  C   UNL     1       0.795  -0.862   4.288  0.00  0.00    +0.122 A 
ATOM      3  C   UNL     1       0.022  -0.493   5.388  0.00  0.00    +0.046 A 
ATOM      4  C   UNL     1      -0.949  -1.325   5.863  0.00  0.00    +0.015 A 
ATOM      5  C   UNL     1      -1.166  -2.566   5.249  0.00  0.00    +0.019 A 
ATOM      6  C   UNL     1      -0.412  -2.926   4.116  0.00  0.00    +0.144 A 
ATOM      7  O   UNL     1      -0.668  -4.093   3.475  0.00  0.00    -0.421 OA
ATOM      8  C   UNL     1      -1.205  -5.089   4.216  0.00  0.00    +0.345 A 
ATOM      9  O   UNL     1      -0.871  -6.248   4.049  0.00  0.00    -0.245 OA
ATOM     10  C   UNL     1      -2.207  -4.725   5.232  0.00  0.00    +0.067 A 
ATOM     11  C   UNL     1      -2.150  -3.458   5.752  0.00  0.00    +0.027 A 
ENDROOT
BRANCH  10  12
ATOM     12  C   UNL     1      -3.231  -5.696   5.682  0.00  0.00    -0.011 A 
ATOM     13  C   UNL     1      -3.236  -6.145   7.003  0.00  0.00    +0.012 A 
ATOM     14  C   UNL     1      -4.191  -7.048   7.419  0.00  0.00    +0.046 A 
ATOM     15  C   UNL     1      -5.146  -7.512   6.525  0.00  0.00    +0.120 A 
ATOM     16  C   UNL     1      -5.145  -7.068   5.210  0.00  0.00    +0.046 A 
ATOM     17  C   UNL     1      -4.197  -6.159   4.789  0.00  0.00    +0.012 A 
BRANCH  15  18
ATOM     18  O   UNL     1      -6.086  -8.403   6.939  0.00  0.00    -0.495 OA
ATOM     19  C   UNL     1      -7.039  -8.838   5.967  0.00  0.00    +0.277 C 
ENDBRANCH  15  18
ENDBRANCH  10  12
BRANCH   2  20
ATOM     20  O   UNL     1       1.766  -0.028   3.836  0.00  0.00    -0.506 OA
ATOM     21  H   UNL     1       1.464   0.600   3.166  0.00  0.00    +0.292 HD
ENDBRANCH   2  20
BRANCH   1  22
ATOM     22  C   UNL     1       1.413  -2.463   2.461  0.00  0.00    -0.036 C 
BRANCH  22  28
ATOM     23  C   UNL     1      -0.019   1.526   0.010  0.00  0.00    +0.005 C 
ATOM     24  C   UNL     1       0.002  -0.004   0.002  0.00  0.00    -0.031 C 
ATOM     25  C   UNL     1       0.721  -0.499  -1.257  0.00  0.00    +0.003 C 
ATOM     26  C   UNL     1       0.805  -2.027  -1.217  0.00  0.00    -0.031 C 
ATOM     27  C   UNL     1       1.518  -2.460   0.066  0.00  0.00    -0.075 C 
ATOM     28  N   UNL     1       0.768  -1.979   1.233  0.00  0.00    +0.383 N 
ATOM     29  C   UNL     1       0.744  -0.512   1.240  0.00  0.00    -0.075 C 
ATOM     30  C   UNL     1      -0.606  -2.618  -1.242  0.00  0.00    +0.005 C 
ATOM     31  H   UNL     1      -0.177  -2.330   1.192  0.00  0.00    -0.081 HD
ENDBRANCH  22  28
ENDBRANCH   1  22
TORSDOF 5
