REMARK  Name = ZINC64083754
REMARK  9 active torsions:
REMARK  status: ('A' for Active; 'I' for Inactive)
REMARK    1  A    between atoms: C_1  and  C_2
REMARK    2  A    between atoms: C_5  and  O_9
REMARK    3  A    between atoms: C_7  and  C_8
REMARK    4  A    between atoms: O_9  and  C_10
REMARK    5  A    between atoms: C_10  and  C_11
REMARK    6  A    between atoms: C_13  and  C_16
REMARK    7  A    between atoms: N_18  and  C_19
REMARK    8  A    between atoms: N_18  and  C_20
REMARK    9  A    between atoms: C_20  and  C_21
REMARK                            x       y       z     vdW  Elec       q    Type
REMARK                         _______ _______ _______ _____ _____    ______ ____
ROOT
ATOM      1  C   UNL     1      -1.410  -9.607  -0.469  0.00  0.00    +0.268 C 
ATOM      2  O   UNL     1      -2.619  -9.501  -0.420  0.00  0.00    -0.268 OA
ATOM      3  N   UNL     1      -0.846 -10.820  -0.637  0.00  0.00    -0.295 N 
ATOM      4  C   UNL     1       0.613 -10.958  -0.619  0.00  0.00    +0.132 C 
ENDROOT
BRANCH   1   7
ATOM      5  C   UNL     1       0.074  -6.265  -0.173  0.00  0.00    +0.175 A 
ATOM      6  C   UNL     1      -1.004  -7.061  -0.291  0.00  0.00    +0.084 A 
ATOM      7  C   UNL     1      -0.554  -8.402  -0.341  0.00  0.00    +0.168 A 
ATOM      8  N   UNL     1       0.754  -8.390  -0.256  0.00  0.00    -0.073 NA
ATOM      9  O   UNL     1       1.169  -7.039  -0.153  0.00  0.00    -0.355 OA
BRANCH   5  10
ATOM     10  C   UNL     1       0.055  -4.760  -0.085  0.00  0.00    +0.306 C 
BRANCH  10  11
ATOM     11  O   UNL     1      -0.033  -4.364   1.285  0.00  0.00    -0.484 OA
BRANCH  11  16
ATOM     12  C   UNL     1      -0.151   1.166   2.345  0.00  0.00    +0.044 C 
ATOM     13  C   UNL     1      -0.119  -0.313   2.061  0.00  0.00    -0.047 A 
ATOM     14  C   UNL     1      -0.034  -0.764   0.757  0.00  0.00    +0.007 A 
ATOM     15  C   UNL     1      -0.005  -2.120   0.494  0.00  0.00    +0.046 A 
ATOM     16  C   UNL     1      -0.061  -3.030   1.541  0.00  0.00    +0.121 A 
ATOM     17  C   UNL     1      -0.145  -2.575   2.848  0.00  0.00    +0.049 A 
ATOM     18  C   UNL     1      -0.169  -1.217   3.106  0.00  0.00    -0.044 A 
ATOM     19  C   UNL     1      -0.255  -0.722   4.527  0.00  0.00    +0.044 C 
ENDBRANCH  11  16
ENDBRANCH  10  11
ENDBRANCH   5  10
ENDBRANCH   1   7
BRANCH   3  20
ATOM     20  C   UNL     1      -1.691 -11.999  -0.840  0.00  0.00    +0.154 C 
BRANCH  20  21
ATOM     21  C   UNL     1      -1.946 -12.193  -2.336  0.00  0.00    +0.192 C 
ATOM     22  N   UNL     1      -2.577 -10.993  -2.899  0.00  0.00    -0.362 N 
ATOM     23  C   UNL     1      -1.780 -10.526  -3.815  0.00  0.00    +0.060 A 
ATOM     24  C   UNL     1      -1.862  -9.365  -4.713  0.00  0.00    +0.029 A 
ATOM     25  C   UNL     1      -0.860  -9.124  -5.582  0.00  0.00    +0.022 A 
ATOM     26  C   UNL     1       0.281  -9.945  -5.670  0.00  0.00    +0.043 A 
ATOM     27  C   UNL     1       0.455 -11.034  -4.892  0.00  0.00    +0.047 A 
ATOM     28  C   UNL     1      -0.574 -11.394  -3.909  0.00  0.00    +0.062 A 
ATOM     29  N   UNL     1      -0.673 -12.366  -3.046  0.00  0.00    -0.362 N 
ATOM     30 CL   UNL     1       1.512  -9.540  -6.825  0.00  0.00    -0.083 Cl
ATOM     31  H   UNL     1      -3.432 -10.617  -2.636  0.00  0.00    +0.162 HD
ATOM     32  H   UNL     1      -0.025 -13.072  -2.899  0.00  0.00    +0.162 HD
ENDBRANCH  20  21
ENDBRANCH   3  20
TORSDOF 6
