REMARK  Name = ZINC39406327
REMARK  8 active torsions:
REMARK  status: ('A' for Active; 'I' for Inactive)
REMARK    1  A    between atoms: N_4  and  C_6
REMARK    2  A    between atoms: C_11  and  C_12
REMARK    3  A    between atoms: C_12  and  N_13
REMARK    4  A    between atoms: N_13  and  C_14
REMARK    5  A    between atoms: N_13  and  C_21
REMARK    6  A    between atoms: C_14  and  C_15
REMARK    7  A    between atoms: C_21  and  C_22
REMARK    8  A    between atoms: N_25  and  C_28
REMARK                            x       y       z     vdW  Elec       q    Type
REMARK                         _______ _______ _______ _____ _____    ______ ____
ROOT
ATOM      1  N   UNL     1       4.276  -0.385   1.284  0.00  0.00    +0.384 N 
ATOM      2  H   UNL     1       3.307  -0.257   1.536  0.00  0.00    -0.081 HD
ENDROOT
BRANCH   1   3
ATOM      3  C   UNL     1       4.361  -1.176   0.050  0.00  0.00    -0.041 C 
BRANCH   3   9
ATOM      4  C   UNL     1       2.207  -2.459   0.083  0.00  0.00    +0.067 A 
ATOM      5  C   UNL     1       1.497  -3.643   0.235  0.00  0.00    +0.031 A 
ATOM      6  C   UNL     1       2.166  -4.815   0.527  0.00  0.00    +0.040 A 
ATOM      7  C   UNL     1       3.543  -4.811   0.668  0.00  0.00    +0.124 A 
ATOM      8  C   UNL     1       4.253  -3.631   0.517  0.00  0.00    +0.042 A 
ATOM      9  C   UNL     1       3.588  -2.458   0.220  0.00  0.00    -0.036 A 
ATOM     10  F   UNL     1       4.196  -5.959   0.953  0.00  0.00    -0.205 F 
BRANCH   4  14
ATOM     11  C   UNL     1      -0.056   0.172  -0.647  0.00  0.00    +0.041 A 
ATOM     12  C   UNL     1       1.166   0.852  -0.658  0.00  0.00    +0.135 A 
ATOM     13  N   UNL     1       2.117  -0.009  -0.398  0.00  0.00    -0.175 NA
ATOM     14  N   UNL     1       1.529  -1.267  -0.213  0.00  0.00    -0.240 N 
ATOM     15  C   UNL     1       0.193  -1.129  -0.371  0.00  0.00    +0.114 A 
ENDBRANCH   4  14
ENDBRANCH   3   9
ENDBRANCH   1   3
BRANCH   1  16
ATOM     16  C   UNL     1       4.973  -1.091   2.368  0.00  0.00    -0.046 C 
BRANCH  16  17
ATOM     17  C   UNL     1       6.435  -1.312   1.974  0.00  0.00    +0.102 C 
ATOM     18  C   UNL     1       7.130  -2.205   3.023  0.00  0.00    +0.032 C 
ATOM     19  C   UNL     1       8.535  -1.552   3.134  0.00  0.00    +0.030 C 
ATOM     20  C   UNL     1       8.181  -0.058   2.922  0.00  0.00    +0.160 C 
ATOM     21  O   UNL     1       7.125  -0.057   1.946  0.00  0.00    -0.378 OA
ENDBRANCH  16  17
ENDBRANCH   1  16
BRANCH   1  22
ATOM     22  C   UNL     1       4.904   0.926   1.071  0.00  0.00    -0.075 C 
BRANCH  22  23
ATOM     23  C   UNL     1       4.798   1.757   2.352  0.00  0.00    -0.031 C 
ATOM     24  C   UNL     1       3.325   2.041   2.658  0.00  0.00    -0.017 C 
ATOM     25  C   UNL     1       3.230   2.938   3.894  0.00  0.00    -0.078 C 
ATOM     26  N   UNL     1       3.931   4.202   3.641  0.00  0.00    +0.382 N 
ATOM     27  C   UNL     1       5.359   3.944   3.417  0.00  0.00    -0.078 C 
ATOM     28  C   UNL     1       5.535   3.085   2.163  0.00  0.00    -0.017 C 
ATOM     29  H   UNL     1       3.539   4.645   2.824  0.00  0.00    -0.081 HD
BRANCH  26  30
ATOM     30  C   UNL     1       3.771   5.090   4.800  0.00  0.00    -0.069 C 
ATOM     31  C   UNL     1       2.281   5.435   4.999  0.00  0.00    -0.015 C 
ATOM     32  C   UNL     1       2.293   6.915   5.459  0.00  0.00    -0.002 C 
ATOM     33  C   UNL     1       3.430   7.529   4.605  0.00  0.00    -0.002 C 
ATOM     34  C   UNL     1       4.502   6.421   4.549  0.00  0.00    -0.015 C 
ENDBRANCH  26  30
ENDBRANCH  22  23
ENDBRANCH   1  22
TORSDOF 8
