REMARK  Name = ZINC60457370
REMARK  8 active torsions:
REMARK  status: ('A' for Active; 'I' for Inactive)
REMARK    1  A    between atoms: C_1  and  C_2
REMARK    2  A    between atoms: C_6  and  C_28
REMARK    3  A    between atoms: C_7  and  N_8
REMARK    4  A    between atoms: C_9  and  C_13
REMARK    5  A    between atoms: C_13  and  N_14
REMARK    6  A    between atoms: N_14  and  C_15
REMARK    7  A    between atoms: C_20  and  N_21
REMARK    8  A    between atoms: C_24  and  O_27
REMARK                            x       y       z     vdW  Elec       q    Type
REMARK                         _______ _______ _______ _____ _____    ______ ____
ROOT
ATOM      1  N   UNL     1       1.659  -2.485   3.929  0.00  0.00    -0.335 N 
ATOM      2  H   UNL     1       2.290  -1.756   3.817  0.00  0.00    +0.147 HD
ENDROOT
BRANCH   1   3
ATOM      3  C   UNL     1       2.123  -3.798   4.039  0.00  0.00    +0.047 A 
ATOM      4  C   UNL     1       1.220  -4.853   4.094  0.00  0.00    +0.025 A 
ATOM      5  C   UNL     1       1.681  -6.150   4.202  0.00  0.00    +0.002 A 
ATOM      6  C   UNL     1       3.040  -6.400   4.257  0.00  0.00    +0.002 A 
ATOM      7  C   UNL     1       3.942  -5.353   4.204  0.00  0.00    +0.023 A 
ATOM      8  C   UNL     1       3.487  -4.053   4.089  0.00  0.00    +0.035 A 
BRANCH   8   9
ATOM      9  N   UNL     1       4.399  -2.996   4.029  0.00  0.00    -0.392 NA
ATOM     10  C   UNL     1       5.287  -3.050   5.197  0.00  0.00    +0.087 C 
ATOM     11  C   UNL     1       6.234  -1.848   5.178  0.00  0.00    +0.048 C 
ATOM     12  C   UNL     1       7.072  -1.885   3.897  0.00  0.00    +0.117 C 
ATOM     13  C   UNL     1       6.134  -1.904   2.686  0.00  0.00    +0.048 C 
ATOM     14  C   UNL     1       5.190  -3.103   2.797  0.00  0.00    +0.087 C 
ATOM     15  H   UNL     1       3.898  -2.120   4.030  0.00  0.00    +0.126 HD
BRANCH  12  16
ATOM     16  O   UNL     1       7.906  -0.727   3.838  0.00  0.00    -0.392 OA
ATOM     17  H   UNL     1       8.465  -0.685   3.050  0.00  0.00    +0.210 HD
ENDBRANCH  12  16
ENDBRANCH   8   9
ENDBRANCH   1   3
BRANCH   1  18
ATOM     18  C   UNL     1       0.222  -2.209   3.983  0.00  0.00    +0.180 C 
BRANCH  18  20
ATOM     19  N   UNL     1      -0.565  -0.221   2.591  0.00  0.00    -0.195 N 
ATOM     20  C   UNL     1      -0.019  -0.747   3.709  0.00  0.00    +0.173 A 
ATOM     21  N   UNL     1       0.262   0.249   4.509  0.00  0.00    -0.111 NA
ATOM     22  N   UNL     1      -0.070   1.368   3.974  0.00  0.00    -0.023 NA
ATOM     23  N   UNL     1      -0.575   1.169   2.804  0.00  0.00    -0.039 NA
BRANCH  19  30
ATOM     24  C   UNL     1       1.355  -1.549   0.963  0.00  0.00    +0.046 C 
ATOM     25  C   UNL     1      -0.117  -1.574   0.639  0.00  0.00    -0.025 A 
ATOM     26  C   UNL     1      -0.568  -2.260  -0.472  0.00  0.00    +0.005 A 
ATOM     27  C   UNL     1      -1.918  -2.283  -0.770  0.00  0.00    +0.001 A 
ATOM     28  C   UNL     1      -2.820  -1.620   0.042  0.00  0.00    +0.005 A 
ATOM     29  C   UNL     1      -2.374  -0.933   1.154  0.00  0.00    -0.025 A 
ATOM     30  C   UNL     1      -1.020  -0.913   1.459  0.00  0.00    +0.075 A 
ATOM     31  C   UNL     1      -3.358  -0.211   2.038  0.00  0.00    +0.046 C 
ENDBRANCH  19  30
ENDBRANCH  18  20
ENDBRANCH   1  18
TORSDOF 6
