REMARK  Name = ZINC10716024
REMARK  5 active torsions:
REMARK  status: ('A' for Active; 'I' for Inactive)
REMARK    1  A    between atoms: C_1  and  C_2
REMARK    2  A    between atoms: N_10  and  N_14
REMARK    3  A    between atoms: C_15  and  C_17
REMARK    4  A    between atoms: C_17  and  S_18
REMARK    5  A    between atoms: S_18  and  C_19
REMARK                            x       y       z     vdW  Elec       q    Type
REMARK                         _______ _______ _______ _____ _____    ______ ____
ROOT
ATOM      1  N   UNL     1       3.303  -5.678  -0.062  0.00  0.00    -0.223 N 
ATOM      2  C   UNL     1       3.812  -6.196  -1.197  0.00  0.00    +0.240 C 
ATOM      3  O   UNL     1       3.841  -5.528  -2.209  0.00  0.00    -0.273 OA
ATOM      4  H   UNL     1       3.280  -6.212   0.747  0.00  0.00    +0.174 HD
ENDROOT
BRANCH   1  14
ATOM      5  C   UNL     1      -0.019   1.526   0.010  0.00  0.00    +0.007 C 
ATOM      6  C   UNL     1       0.002  -0.004   0.002  0.00  0.00    -0.014 C 
ATOM      7  C   UNL     1       0.716  -0.497  -1.258  0.00  0.00    +0.006 C 
ATOM      8  C   UNL     1       0.727  -2.028  -1.271  0.00  0.00    +0.035 C 
ATOM      9  C   UNL     1       1.442  -2.543  -0.027  0.00  0.00    +0.114 C 
ATOM     10  C   UNL     1       0.753  -2.041   1.238  0.00  0.00    +0.035 C 
ATOM     11  C   UNL     1       0.742  -0.510   1.242  0.00  0.00    +0.006 C 
ATOM     12  C   UNL     1       1.495  -4.053  -0.035  0.00  0.00    +0.263 C 
ATOM     13  O   UNL     1       0.556  -4.821  -0.030  0.00  0.00    -0.271 OA
ATOM     14  N   UNL     1       2.807  -4.367  -0.051  0.00  0.00    -0.137 N 
ATOM     15  C   UNL     1       3.576  -3.272  -0.053  0.00  0.00    +0.326 C 
ATOM     16  O   UNL     1       4.791  -3.300  -0.065  0.00  0.00    -0.251 OA
ATOM     17  N   UNL     1       2.853  -2.136  -0.039  0.00  0.00    -0.284 N 
ATOM     18  H   UNL     1       3.196  -1.229  -0.038  0.00  0.00    +0.151 HD
ENDBRANCH   1  14
BRANCH   2  19
ATOM     19  C   UNL     1       4.345  -7.605  -1.210  0.00  0.00    +0.174 C 
BRANCH  19  20
ATOM     20  S   UNL     1       4.955  -8.007  -2.870  0.00  0.00    -0.075 S 
BRANCH  20  21
ATOM     21  C   UNL     1       5.537  -9.663  -2.721  0.00  0.00    +0.210 A 
ATOM     22  N   UNL     1       5.501 -10.389  -1.630  0.00  0.00    -0.144 NA
ATOM     23  H   UNL     1       6.175 -12.392  -1.351  0.00  0.00    +0.192 HD
ATOM     24  N   UNL     1       6.060 -11.636  -1.949  0.00  0.00    -0.246 N 
ATOM     25  C   UNL     1       6.407 -11.579  -3.252  0.00  0.00    +0.209 A 
ATOM     26  N   UNL     1       6.082 -10.387  -3.706  0.00  0.00    -0.188 NA
ATOM     27  N   UNL     1       6.995 -12.595  -3.982  0.00  0.00    -0.328 N 
ATOM     28  H   UNL     1       7.194 -13.444  -3.558  0.00  0.00    +0.145 HD
ATOM     29  H   UNL     1       7.208 -12.458  -4.918  0.00  0.00    +0.145 HD
ENDBRANCH  20  21
ENDBRANCH  19  20
ENDBRANCH   2  19
TORSDOF 4
