REMARK  Name = ZINC03654233
REMARK  6 active torsions:
REMARK  status: ('A' for Active; 'I' for Inactive)
REMARK    1  A    between atoms: C_1  and  C_2
REMARK    2  A    between atoms: C_2  and  C_3
REMARK    3  A    between atoms: C_2  and  C_4
REMARK    4  A    between atoms: N_6  and  C_7
REMARK    5  A    between atoms: N_6  and  S_17
REMARK    6  A    between atoms: S_17  and  C_20
REMARK                            x       y       z     vdW  Elec       q    Type
REMARK                         _______ _______ _______ _____ _____    ______ ____
ROOT
ATOM      1  C   UNL     1       1.605   5.965  -1.461  0.00  0.00    +0.242 C 
ATOM      2  O   UNL     1       1.258   6.760  -0.613  0.00  0.00    -0.273 OA
ATOM      3  N   UNL     1       2.378   4.914  -1.123  0.00  0.00    -0.139 N 
ENDROOT
BRANCH   3   4
ATOM      4  C   UNL     1       2.836   4.035  -2.113  0.00  0.00    +0.061 A 
ATOM      5  C   UNL     1       2.638   2.665  -1.987  0.00  0.00    +0.029 A 
ATOM      6  C   UNL     1       3.081   1.790  -2.949  0.00  0.00    +0.049 A 
ATOM      7  C   UNL     1       3.750   2.251  -4.094  0.00  0.00    +0.146 A 
ATOM      8  C   UNL     1       3.934   3.638  -4.194  0.00  0.00    +0.063 A 
ATOM      9  C   UNL     1       3.490   4.519  -3.240  0.00  0.00    +0.044 A 
ATOM     10  S   UNL     1       4.794   3.812  -5.740  0.00  0.00    -0.004 S 
ATOM     11  C   UNL     1       4.860   2.076  -6.160  0.00  0.00    +0.379 A 
ATOM     12  O   UNL     1       5.345   1.544  -7.141  0.00  0.00    -0.237 OA
ATOM     13  O   UNL     1       4.235   1.510  -5.112  0.00  0.00    -0.417 OA
ENDBRANCH   3   4
BRANCH   1  15
ATOM     14  C   UNL     1       0.291   4.975  -3.317  0.00  0.00    +0.017 C 
ATOM     15  C   UNL     1       1.171   6.153  -2.892  0.00  0.00    +0.071 C 
ATOM     16  C   UNL     1       0.377   7.454  -3.018  0.00  0.00    +0.017 C 
ENDBRANCH   1  15
BRANCH   3  17
ATOM     17  S   UNL     1       2.787   4.662   0.462  0.00  0.00    +0.083 S 
ATOM     18  O   UNL     1       2.543   5.885   1.143  0.00  0.00    -0.149 OA
ATOM     19  O   UNL     1       4.061   4.033   0.457  0.00  0.00    -0.149 OA
BRANCH  17  20
ATOM     20  C   UNL     1       1.647   3.486   1.113  0.00  0.00    +0.135 A 
ATOM     21  C   UNL     1       2.077   2.248   1.478  0.00  0.00    +0.031 A 
ATOM     22  C   UNL     1       1.194   1.303   1.995  0.00  0.00    +0.003 A 
ATOM     23  C   UNL     1      -0.129   1.592   2.144  0.00  0.00    +0.010 A 
ATOM     24  C   UNL     1      -0.607   2.861   1.783  0.00  0.00    +0.002 A 
ATOM     25  C   UNL     1       0.290   3.824   1.257  0.00  0.00    +0.098 A 
ATOM     26  N   UNL     1      -0.161   5.033   0.907  0.00  0.00    -0.253 NA
ATOM     27  C   UNL     1      -1.425   5.353   1.039  0.00  0.00    +0.111 A 
ATOM     28  C   UNL     1      -2.360   4.453   1.549  0.00  0.00    +0.020 A 
ATOM     29  C   UNL     1      -1.966   3.201   1.926  0.00  0.00    +0.011 A 
ENDBRANCH  17  20
ENDBRANCH   3  17
TORSDOF 4
