REMARK  Name = ZINC11764785
REMARK  6 active torsions:
REMARK  status: ('A' for Active; 'I' for Inactive)
REMARK    1  A    between atoms: C_4  and  C_7
REMARK    2  A    between atoms: C_7  and  N_68
REMARK    3  A    between atoms: C_16  and  C_18
REMARK    4  A    between atoms: C_18  and  C_19
REMARK    5  A    between atoms: C_19  and  N_20
REMARK    6  A    between atoms: C_21  and  C_23
REMARK                            x       y       z     vdW  Elec       q    Type
REMARK                         _______ _______ _______ _____ _____    ______ ____
ROOT
ATOM      1  C   UNL     1       3.982   5.141  -1.440  0.00  0.00    -0.072 C 
ATOM      2  C   UNL     1       4.635   5.116  -2.825  0.00  0.00    +0.038 C 
ATOM      3  C   UNL     1       3.542   5.313  -3.870  0.00  0.00    +0.050 A 
ATOM      4  C   UNL     1       2.243   5.107  -3.523  0.00  0.00    -0.002 A 
ATOM      5  S   UNL     1       1.379   5.454  -5.029  0.00  0.00    -0.059 S 
ATOM      6  C   UNL     1       2.776   5.838  -5.991  0.00  0.00    +0.165 A 
ATOM      7  N   UNL     1       3.759   5.681  -5.127  0.00  0.00    -0.229 NA
ATOM      8  N   UNL     1       2.839   6.216  -7.327  0.00  0.00    -0.265 N 
ATOM      9  C   UNL     1       4.032   6.474  -7.899  0.00  0.00    +0.220 C 
ATOM     10  O   UNL     1       5.051   6.378  -7.247  0.00  0.00    -0.275 OA
ATOM     11  C   UNL     1       1.722   4.690  -2.190  0.00  0.00    -0.033 C 
ATOM     12  H   UNL     1       2.025   6.293  -7.849  0.00  0.00    +0.157 HD
ATOM     13  N   UNL     1       2.867   4.172  -1.400  0.00  0.00    +0.386 N 
ATOM     14  H   UNL     1       3.181   3.284  -1.809  0.00  0.00    -0.081 HD
ENDROOT
BRANCH  13  15
ATOM     15  C   UNL     1       2.451   3.937  -0.001  0.00  0.00    -0.043 C 
BRANCH  15  19
ATOM     16  C   UNL     1      -1.219   1.751   0.017  0.00  0.00    +0.000 A 
ATOM     17  C   UNL     1      -0.013   1.076   0.008  0.00  0.00    +0.000 A 
ATOM     18  C   UNL     1       1.175   1.783   0.000  0.00  0.00    +0.002 A 
ATOM     19  C   UNL     1       1.156   3.165   0.008  0.00  0.00    -0.064 A 
ATOM     20  C   UNL     1      -0.050   3.840   0.023  0.00  0.00    +0.002 A 
ATOM     21  C   UNL     1      -1.238   3.133   0.030  0.00  0.00    +0.000 A 
ENDBRANCH  15  19
ENDBRANCH  13  15
BRANCH   9  22
ATOM     22  C   UNL     1       4.101   6.883  -9.347  0.00  0.00    +0.115 C 
BRANCH  22  23
ATOM     23  C   UNL     1       5.561   7.116  -9.743  0.00  0.00    +0.113 C 
BRANCH  23  24
ATOM     24  N   UNL     1       5.627   7.513 -11.152  0.00  0.00    -0.314 N 
ATOM     25  C   UNL     1       6.820   7.772 -11.723  0.00  0.00    +0.219 C 
ATOM     26  O   UNL     1       7.838   7.676 -11.071  0.00  0.00    -0.275 OA
ATOM     27  H   UNL     1       4.813   7.590 -11.673  0.00  0.00    +0.149 HD
BRANCH  25  28
ATOM     28  C   UNL     1       6.889   8.181 -13.172  0.00  0.00    +0.048 C 
ATOM     29  C   UNL     1       6.294   7.073 -14.043  0.00  0.00    +0.019 C 
ATOM     30  C   UNL     1       6.364   7.488 -15.514  0.00  0.00    -0.009 C 
ATOM     31  C   UNL     1       7.824   7.721 -15.910  0.00  0.00    +0.007 C 
ATOM     32  C   UNL     1       8.418   8.829 -15.038  0.00  0.00    -0.009 C 
ATOM     33  C   UNL     1       8.348   8.414 -13.567  0.00  0.00    +0.019 C 
ATOM     34  C   UNL     1       7.623  10.120 -15.242  0.00  0.00    +0.007 C 
ATOM     35  C   UNL     1       6.163   9.887 -14.846  0.00  0.00    -0.009 C 
ATOM     36  C   UNL     1       5.569   8.779 -15.718  0.00  0.00    +0.007 C 
ATOM     37  C   UNL     1       6.093   9.472 -13.375  0.00  0.00    +0.019 C 
ENDBRANCH  25  28
ENDBRANCH  23  24
ENDBRANCH  22  23
ENDBRANCH   9  22
TORSDOF 6
