REMARK  Name = ZINC01474386
REMARK  8 active torsions:
REMARK  status: ('A' for Active; 'I' for Inactive)
REMARK    1  A    between atoms: C_1  and  C_2
REMARK    2  A    between atoms: C_6  and  C_7
REMARK    3  A    between atoms: N_8  and  N_9
REMARK    4  A    between atoms: C_10  and  C_12
REMARK    5  A    between atoms: C_12  and  S_13
REMARK    6  A    between atoms: S_13  and  C_14
REMARK    7  A    between atoms: C_17  and  C_26
REMARK    8  A    between atoms: N_18  and  C_19
REMARK                            x       y       z     vdW  Elec       q    Type
REMARK                         _______ _______ _______ _____ _____    ______ ____
ROOT
ATOM      1  C   UNL     1       2.565   4.530   0.002  0.00  0.00    +0.197 A 
ATOM      2  N   UNL     1       3.677   3.827  -0.013  0.00  0.00    -0.122 NA
ATOM      3  N   UNL     1       4.696   4.611  -0.018  0.00  0.00    -0.128 NA
ATOM      4  C   UNL     1       4.299   5.862  -0.007  0.00  0.00    +0.169 A 
ATOM      5  N   UNL     1       2.921   5.850   0.000  0.00  0.00    -0.270 N 
ENDROOT
BRANCH   5   6
ATOM      6  C   UNL     1       2.063   6.959   0.007  0.00  0.00    +0.051 A 
ATOM      7  C   UNL     1       2.035   7.823  -1.079  0.00  0.00    +0.027 A 
ATOM      8  C   UNL     1       1.185   8.912  -1.071  0.00  0.00    +0.017 A 
ATOM      9  C   UNL     1       0.371   9.148   0.023  0.00  0.00    +0.018 A 
ATOM     10  C   UNL     1       0.401   8.291   1.108  0.00  0.00    +0.017 A 
ATOM     11  C   UNL     1       1.245   7.198   1.103  0.00  0.00    +0.027 A 
ATOM     12 BR   UNL     1      -0.785  10.645   0.033  0.00  0.00    -0.050 Br
ENDBRANCH   5   6
BRANCH   4  13
ATOM     13  C   UNL     1       5.166   7.058  -0.009  0.00  0.00    +0.022 A 
ATOM     14  C   UNL     1       4.651   8.322   0.308  0.00  0.00    +0.031 A 
ATOM     15  C   UNL     1       5.498   9.410   0.298  0.00  0.00    +0.111 A 
ATOM     16  N   UNL     1       6.773   9.274  -0.014  0.00  0.00    -0.263 NA
ATOM     17  C   UNL     1       7.298   8.104  -0.323  0.00  0.00    +0.111 A 
ATOM     18  C   UNL     1       6.525   6.962  -0.334  0.00  0.00    +0.031 A 
ENDBRANCH   4  13
BRANCH   1  19
ATOM     19  S   UNL     1       0.924   3.890   0.014  0.00  0.00    -0.076 S 
BRANCH  19  20
ATOM     20  C   UNL     1       1.278   2.115   0.001  0.00  0.00    +0.174 C 
BRANCH  20  22
ATOM     21  N   UNL     1       0.002  -0.004   0.002  0.00  0.00    -0.206 N 
ATOM     22  C   UNL     1      -0.016   1.344   0.009  0.00  0.00    +0.242 C 
ATOM     23  O   UNL     1      -1.075   1.936   0.018  0.00  0.00    -0.273 OA
ATOM     24  H   UNL     1       0.849  -0.478  -0.009  0.00  0.00    +0.177 HD
BRANCH  21  26
ATOM     25  C   UNL     1      -1.184  -2.022   0.003  0.00  0.00    +0.145 C 
ATOM     26  N   UNL     1      -1.202  -0.721   0.010  0.00  0.00    -0.187 NA
BRANCH  25  32
ATOM     27  C   UNL     1      -1.475  -5.092  -0.024  0.00  0.00    +0.045 C 
ATOM     28  C   UNL     1      -2.644  -4.141  -0.001  0.00  0.00    -0.035 A 
ATOM     29  C   UNL     1      -3.936  -4.613   0.014  0.00  0.00    +0.011 A 
ATOM     30  C   UNL     1      -4.967  -3.729   0.029  0.00  0.00    +0.046 A 
ATOM     31  S   UNL     1      -4.120  -2.157   0.029  0.00  0.00    -0.095 S 
ATOM     32  C   UNL     1      -2.444  -2.772   0.011  0.00  0.00    +0.035 A 
ENDBRANCH  25  32
ENDBRANCH  21  26
ENDBRANCH  20  22
ENDBRANCH  19  20
ENDBRANCH   1  19
TORSDOF 7
