REMARK  Name = ZINC66606959
REMARK  6 active torsions:
REMARK  status: ('A' for Active; 'I' for Inactive)
REMARK    1  A    between atoms: C_1  and  C_2
REMARK    2  A    between atoms: C_5  and  C_12
REMARK    3  A    between atoms: C_8  and  C_10
REMARK    4  A    between atoms: C_8  and  C_11
REMARK    5  A    between atoms: C_12  and  C_13
REMARK    6  A    between atoms: N_15  and  C_16
REMARK                            x       y       z     vdW  Elec       q    Type
REMARK                         _______ _______ _______ _____ _____    ______ ____
ROOT
ATOM      1  C   UNL     1      -4.342  -0.151   0.136  0.00  0.00    +0.214 C 
ATOM      2  O   UNL     1      -3.824   0.803  -0.404  0.00  0.00    -0.276 OA
ATOM      3  N   UNL     1      -5.622  -0.469  -0.141  0.00  0.00    -0.308 N 
ATOM      4  H   UNL     1      -6.037  -1.232   0.291  0.00  0.00    +0.149 HD
ENDROOT
BRANCH   3   5
ATOM      5  C   UNL     1      -6.388   0.339  -1.093  0.00  0.00    +0.107 C 
ATOM      6  C   UNL     1      -7.861   0.237  -0.740  0.00  0.00    +0.050 C 
ATOM      7  C   UNL     1      -8.669   1.133  -1.691  0.00  0.00    +0.174 C 
ATOM      8  S   UNL     1      -8.640   0.334  -3.324  0.00  0.00    -0.003 S 
ATOM      9  O   UNL     1      -8.868   1.294  -4.346  0.00  0.00    -0.169 OA
ATOM     10  O   UNL     1      -9.376  -0.881  -3.290  0.00  0.00    -0.169 OA
ATOM     11  C   UNL     1      -6.955  -0.156  -3.527  0.00  0.00    +0.093 A 
ATOM     12  C   UNL     1      -6.063  -0.124  -2.482  0.00  0.00    -0.002 A 
ATOM     13  C   UNL     1      -4.753  -0.543  -2.709  0.00  0.00    +0.007 A 
ATOM     14  C   UNL     1      -4.353  -0.974  -3.955  0.00  0.00    +0.000 A 
ATOM     15  C   UNL     1      -5.256  -0.995  -5.001  0.00  0.00    +0.002 A 
ATOM     16  C   UNL     1      -6.550  -0.583  -4.783  0.00  0.00    +0.027 A 
ENDBRANCH   3   5
BRANCH   1  17
ATOM     17  C   UNL     1      -3.555  -0.983   1.116  0.00  0.00    +0.099 C 
BRANCH  17  21
ATOM     18  C   UNL     1      -0.019   1.524   0.010  0.00  0.00    +0.007 C 
ATOM     19  C   UNL     1       0.002  -0.004   0.002  0.00  0.00    -0.013 C 
ATOM     20  C   UNL     1      -1.412  -0.559  -0.088  0.00  0.00    +0.007 C 
ATOM     21  C   UNL     1      -2.138  -0.411   1.248  0.00  0.00    -0.002 C 
ATOM     22  C   UNL     1      -1.378  -1.199   2.313  0.00  0.00    +0.010 C 
ATOM     23  C   UNL     1       0.034  -0.651   2.488  0.00  0.00    -0.034 C 
ATOM     24  C   UNL     1       0.787  -0.560   1.172  0.00  0.00    +0.009 C 
ATOM     25  C   UNL     1      -0.015   0.710   3.188  0.00  0.00    +0.011 C 
ATOM     26  C   UNL     1       0.803  -1.619   3.413  0.00  0.00    +0.011 C 
ENDBRANCH  17  21
ENDBRANCH   1  17
TORSDOF 3
