REMARK  Name = ZINC29735577
REMARK  6 active torsions:
REMARK  status: ('A' for Active; 'I' for Inactive)
REMARK    1  A    between atoms: C_6  and  O_7
REMARK    2  A    between atoms: O_7  and  C_8
REMARK    3  A    between atoms: C_8  and  C_9
REMARK    4  A    between atoms: C_9  and  N_10
REMARK    5  A    between atoms: N_13  and  C_14
REMARK    6  A    between atoms: C_14  and  C_15
REMARK                            x       y       z     vdW  Elec       q    Type
REMARK                         _______ _______ _______ _____ _____    ______ ____
ROOT
ATOM      1  N   UNL     1       1.568   6.018   1.270  0.00  0.00    -0.296 N 
ATOM      2  C   UNL     1       1.277   7.313   1.502  0.00  0.00    +0.300 C 
ATOM      3  O   UNL     1       1.542   8.155   0.667  0.00  0.00    -0.253 OA
ATOM      4  N   UNL     1       0.692   7.675   2.662  0.00  0.00    -0.295 N 
ATOM      5  H   UNL     1       1.328   5.256   2.026  0.00  0.00    +0.150 HD
ATOM      6  H   UNL     1       0.452   6.913   3.418  0.00  0.00    +0.151 HD
ENDROOT
BRANCH   1   7
ATOM      7  C   UNL     1       2.204   5.625   0.010  0.00  0.00    +0.146 C 
BRANCH   7   8
ATOM      8  C   UNL     1       2.423   4.111   0.001  0.00  0.00    +0.247 C 
BRANCH   8   9
ATOM      9  O   UNL     1       1.158   3.446   0.009  0.00  0.00    -0.490 OA
BRANCH   9  15
ATOM     10  C   UNL     1      -0.017   1.377   0.010  0.00  0.00    +0.048 A 
ATOM     11  C   UNL     1       0.002  -0.004   0.002  0.00  0.00    +0.042 A 
ATOM     12  C   UNL     1       1.210  -0.681  -0.013  0.00  0.00    +0.124 A 
ATOM     13  C   UNL     1       2.401   0.026  -0.021  0.00  0.00    +0.042 A 
ATOM     14  C   UNL     1       2.385   1.407  -0.013  0.00  0.00    +0.048 A 
ATOM     15  C   UNL     1       1.175   2.087   0.002  0.00  0.00    +0.121 A 
ATOM     16  F   UNL     1       1.227  -2.031  -0.020  0.00  0.00    -0.205 F 
ENDBRANCH   9  15
ENDBRANCH   8   9
ENDBRANCH   7   8
ENDBRANCH   1   7
BRANCH   4  17
ATOM     17  C   UNL     1       0.376   9.083   2.914  0.00  0.00    +0.142 C 
BRANCH  17  18
ATOM     18  C   UNL     1      -0.268   9.218   4.270  0.00  0.00    -0.014 A 
ATOM     19  C   UNL     1       0.512   9.434   5.399  0.00  0.00    +0.010 A 
ATOM     20  C   UNL     1      -0.118   9.552   6.624  0.00  0.00    +0.042 A 
ATOM     21  C   UNL     1      -1.504   9.450   6.685  0.00  0.00    +0.099 A 
ATOM     22  N   UNL     1      -2.213   9.244   5.586  0.00  0.00    -0.349 N 
ATOM     23  C   UNL     1      -1.639   9.133   4.402  0.00  0.00    +0.089 A 
ATOM     24  N   UNL     1      -2.151   9.567   7.910  0.00  0.00    -0.317 N 
ATOM     25  C   UNL     1      -1.931  10.912   8.501  0.00  0.00    +0.106 C 
ATOM     26  C   UNL     1      -3.092  11.044   9.519  0.00  0.00    +0.020 C 
ATOM     27  C   UNL     1      -4.270  10.357   8.792  0.00  0.00    +0.020 C 
ATOM     28  C   UNL     1      -3.615   9.430   7.752  0.00  0.00    +0.106 C 
ATOM     29  H   UNL     1      -3.308   9.162   5.645  0.00  0.00    +0.167 HD
ENDBRANCH  17  18
ENDBRANCH   4  17
TORSDOF 6
