REMARK  Name = ZINC00907660
REMARK  6 active torsions:
REMARK  status: ('A' for Active; 'I' for Inactive)
REMARK    1  A    between atoms: C_1  and  C_2
REMARK    2  A    between atoms: C_9  and  C_14
REMARK    3  A    between atoms: C_14  and  C_16
REMARK    4  A    between atoms: C_14  and  N_54
REMARK    5  A    between atoms: N_20  and  C_21
REMARK    6  A    between atoms: C_21  and  C_22
REMARK                            x       y       z     vdW  Elec       q    Type
REMARK                         _______ _______ _______ _____ _____    ______ ____
ROOT
ATOM      1  C   UNL     1      -0.002   0.955   0.183  0.00  0.00    +0.039 C 
ENDROOT
BRANCH   1  10
ATOM      2  C   UNL     1       7.455   0.957   0.315  0.00  0.00    +0.044 C 
ATOM      3  C   UNL     1       6.144   1.672   0.114  0.00  0.00    -0.050 A 
ATOM      4  C   UNL     1       6.140   3.020  -0.220  0.00  0.00    +0.005 A 
ATOM      5  C   UNL     1       4.953   3.694  -0.407  0.00  0.00    +0.026 A 
ATOM      6  C   UNL     1       3.745   3.019  -0.262  0.00  0.00    +0.049 A 
ATOM      7  C   UNL     1       3.753   1.653   0.077  0.00  0.00    -0.001 A 
ATOM      8  C   UNL     1       4.970   0.989   0.263  0.00  0.00    +0.013 A 
ATOM      9  C   UNL     1       2.477   0.952   0.228  0.00  0.00    +0.017 A 
ATOM     10  C   UNL     1       1.329   1.647   0.035  0.00  0.00    +0.011 A 
ATOM     11  C   UNL     1       1.376   3.015  -0.309  0.00  0.00    +0.251 A 
ATOM     12  O   UNL     1       0.332   3.619  -0.483  0.00  0.00    -0.268 OA
ATOM     13  N   UNL     1       2.543   3.669  -0.445  0.00  0.00    -0.322 N 
ATOM     14  H   UNL     1       2.538   4.640  -0.682  0.00  0.00    +0.169 HD
ENDBRANCH   1  10
BRANCH   1  19
ATOM     15  C   UNL     1      -0.076   0.656  -2.232  0.00  0.00    -0.077 C 
ATOM     16  C   UNL     1      -1.209   0.460  -3.272  0.00  0.00    -0.020 C 
ATOM     17  C   UNL     1      -2.381  -0.063  -2.411  0.00  0.00    -0.020 C 
ATOM     18  C   UNL     1      -2.062   0.395  -0.976  0.00  0.00    -0.077 C 
ATOM     19  N   UNL     1      -0.811   1.150  -1.057  0.00  0.00    +0.389 N 
ATOM     20  H   UNL     1      -1.017   2.149  -1.171  0.00  0.00    -0.080 HD
ENDBRANCH   1  19
BRANCH   1  21
ATOM     21  C   UNL     1      -0.738   1.528   1.366  0.00  0.00    +0.143 A 
ATOM     22  N   UNL     1      -1.220   2.743   1.474  0.00  0.00    -0.115 NA
ATOM     23  N   UNL     1      -1.779   2.847   2.630  0.00  0.00    -0.023 NA
ATOM     24  N   UNL     1      -1.659   1.734   3.265  0.00  0.00    -0.044 NA
ATOM     25  N   UNL     1      -1.022   0.896   2.519  0.00  0.00    -0.226 N 
BRANCH  25  26
ATOM     26  C   UNL     1      -0.675  -0.485   2.863  0.00  0.00    +0.182 C 
BRANCH  26  27
ATOM     27  C   UNL     1       0.610  -0.499   3.650  0.00  0.00    -0.026 A 
ATOM     28  C   UNL     1       1.811  -0.734   3.007  0.00  0.00    +0.008 A 
ATOM     29  C   UNL     1       2.991  -0.742   3.727  0.00  0.00    +0.038 A 
ATOM     30  C   UNL     1       2.968  -0.525   5.094  0.00  0.00    +0.123 A 
ATOM     31  C   UNL     1       1.764  -0.295   5.738  0.00  0.00    +0.038 A 
ATOM     32  C   UNL     1       0.586  -0.283   5.015  0.00  0.00    +0.008 A 
ATOM     33  F   UNL     1       4.120  -0.538   5.800  0.00  0.00    -0.205 F 
ENDBRANCH  26  27
ENDBRANCH  25  26
ENDBRANCH   1  21
TORSDOF 5
