REMARK  Name = ZINC39571289
REMARK  8 active torsions:
REMARK  status: ('A' for Active; 'I' for Inactive)
REMARK    1  A    between atoms: C_1  and  C_2
REMARK    2  A    between atoms: C_5  and  C_8
REMARK    3  A    between atoms: C_10  and  C_14
REMARK    4  A    between atoms: N_16  and  N_17
REMARK    5  A    between atoms: C_18  and  C_19
REMARK    6  A    between atoms: C_21  and  C_34
REMARK    7  A    between atoms: N_24  and  C_28
REMARK    8  A    between atoms: C_25  and  C_27
REMARK                            x       y       z     vdW  Elec       q    Type
REMARK                         _______ _______ _______ _____ _____    ______ ____
ROOT
ATOM      1  C   UNL     1       0.532  -8.540   1.129  0.00  0.00    +0.263 C 
ATOM      2  O   UNL     1       1.427  -8.441   0.317  0.00  0.00    -0.271 OA
ATOM      3  N   UNL     1       0.806  -8.922   2.392  0.00  0.00    -0.205 N 
ATOM      4  H   UNL     1       0.090  -9.001   3.041  0.00  0.00    +0.177 HD
ENDROOT
BRANCH   1   7
ATOM      5  C   UNL     1      -1.562  -6.195   0.027  0.00  0.00    +0.092 C 
ATOM      6  C   UNL     1      -1.284  -6.839   1.177  0.00  0.00    +0.041 C 
ATOM      7  C   UNL     1      -0.888  -8.234   0.726  0.00  0.00    +0.240 C 
ATOM      8  N   UNL     1      -1.012  -8.160  -0.739  0.00  0.00    -0.170 NA
ATOM      9  N   UNL     1      -1.387  -7.024  -1.035  0.00  0.00    -0.153 NA
BRANCH   5  14
ATOM     10  C   UNL     1      -3.271  -0.707  -0.335  0.00  0.00    +0.044 C 
ATOM     11  C   UNL     1      -2.824  -2.143  -0.240  0.00  0.00    -0.050 A 
ATOM     12  C   UNL     1      -2.678  -2.897  -1.391  0.00  0.00    +0.004 A 
ATOM     13  C   UNL     1      -2.269  -4.212  -1.310  0.00  0.00    +0.010 A 
ATOM     14  C   UNL     1      -2.002  -4.781  -0.066  0.00  0.00    +0.002 A 
ATOM     15  C   UNL     1      -2.150  -4.017   1.090  0.00  0.00    +0.010 A 
ATOM     16  C   UNL     1      -2.555  -2.701   0.997  0.00  0.00    +0.004 A 
ENDBRANCH   5  14
ENDBRANCH   1   7
BRANCH   3  17
ATOM     17  N   UNL     1       2.126  -9.207   2.766  0.00  0.00    -0.192 NA
ATOM     18  C   UNL     1       2.387  -9.571   3.965  0.00  0.00    +0.110 C 
BRANCH  18  19
ATOM     19  C   UNL     1       3.807  -9.877   4.368  0.00  0.00    +0.072 C 
ATOM     20  C   UNL     1       3.921 -11.302   4.973  0.00  0.00    +0.080 C 
ATOM     21  N   UNL     1       5.084 -11.152   5.885  0.00  0.00    -0.236 NA
ATOM     22  N   UNL     1       4.988  -9.911   6.460  0.00  0.00    -0.263 N 
ATOM     23  C   UNL     1       4.245  -9.004   5.569  0.00  0.00    +0.098 C 
ATOM     24  C   UNL     1       3.019  -8.441   6.290  0.00  0.00    +0.030 C 
ATOM     25  C   UNL     1       2.656 -11.669   5.753  0.00  0.00    +0.026 C 
ATOM     26  H   UNL     1       5.953 -11.252   5.383  0.00  0.00    +0.145 HD
BRANCH  22  27
ATOM     27  C   UNL     1       5.517  -9.559   7.704  0.00  0.00    +0.045 A 
ATOM     28  C   UNL     1       5.335 -10.395   8.799  0.00  0.00    +0.024 A 
ATOM     29  C   UNL     1       5.859 -10.044  10.027  0.00  0.00    +0.002 A 
ATOM     30  C   UNL     1       6.564  -8.863  10.168  0.00  0.00    +0.000 A 
ATOM     31  C   UNL     1       6.747  -8.029   9.080  0.00  0.00    +0.002 A 
ATOM     32  C   UNL     1       6.230  -8.376   7.848  0.00  0.00    +0.024 A 
ENDBRANCH  22  27
ENDBRANCH  18  19
ENDBRANCH   3  17
TORSDOF 5
