REMARK  Name = ZINC45933787
REMARK  5 active torsions:
REMARK  status: ('A' for Active; 'I' for Inactive)
REMARK    1  A    between atoms: C_1  and  C_2
REMARK    2  A    between atoms: C_5  and  C_7
REMARK    3  A    between atoms: C_9  and  C_12
REMARK    4  A    between atoms: C_12  and  C_13
REMARK    5  A    between atoms: N_15  and  C_16
REMARK                            x       y       z     vdW  Elec       q    Type
REMARK                         _______ _______ _______ _____ _____    ______ ____
ROOT
ATOM      1  C   UNL     1       7.710  -3.468  -0.267  0.00  0.00    +0.223 C 
ATOM      2  O   UNL     1       8.762  -2.871  -0.179  0.00  0.00    -0.275 OA
ATOM      3  N   UNL     1       6.981  -3.384  -1.398  0.00  0.00    -0.285 N 
ATOM      4  H   UNL     1       6.174  -3.913  -1.495  0.00  0.00    +0.155 HD
ENDROOT
BRANCH   3   5
ATOM      5  C   UNL     1       7.388  -2.532  -2.433  0.00  0.00    +0.037 A 
ATOM      6  C   UNL     1       6.440  -1.866  -3.198  0.00  0.00    +0.027 A 
ATOM      7  C   UNL     1       6.840  -1.025  -4.219  0.00  0.00    +0.051 A 
ATOM      8  C   UNL     1       8.187  -0.844  -4.481  0.00  0.00    +0.167 A 
ATOM      9  C   UNL     1       9.142  -1.511  -3.713  0.00  0.00    +0.169 A 
ATOM     10  C   UNL     1       8.741  -2.349  -2.689  0.00  0.00    +0.072 A 
ATOM     11  O   UNL     1      10.384  -1.159  -4.172  0.00  0.00    -0.447 OA
ATOM     12  C   UNL     1      10.139  -0.686  -5.504  0.00  0.00    +0.254 C 
ATOM     13  O   UNL     1       8.841  -0.082  -5.415  0.00  0.00    -0.448 OA
ATOM     14  C   UNL     1      10.149  -1.839  -6.514  0.00  0.00    +0.093 C 
ATOM     15  C   UNL     1      10.764  -1.210  -7.792  0.00  0.00    +0.008 C 
ATOM     16  C   UNL     1      11.842  -0.253  -7.223  0.00  0.00    +0.008 C 
ATOM     17  C   UNL     1      11.198   0.325  -5.942  0.00  0.00    +0.093 C 
ENDBRANCH   3   5
BRANCH   1  18
ATOM     18  C   UNL     1       7.218  -4.303   0.886  0.00  0.00    +0.152 C 
BRANCH  18  21
ATOM     19  C   UNL     1      10.360  -4.485   2.793  0.00  0.00    +0.144 A 
ATOM     20  N   UNL     1       9.467  -4.542   1.812  0.00  0.00    -0.240 NA
ATOM     21  C   UNL     1       8.209  -4.230   2.019  0.00  0.00    +0.058 A 
ATOM     22  C   UNL     1       7.802  -3.839   3.255  0.00  0.00    +0.071 A 
ATOM     23  S   UNL     1       9.341  -3.943   4.159  0.00  0.00    -0.072 S 
BRANCH  19  28
ATOM     24  C   UNL     1      14.888  -5.833   1.116  0.00  0.00    +0.086 C 
ATOM     25  C   UNL     1      13.784  -5.381   2.037  0.00  0.00    +0.103 A 
ATOM     26  C   UNL     1      13.923  -5.093   3.347  0.00  0.00    +0.045 A 
ATOM     27  C   UNL     1      12.654  -4.713   3.824  0.00  0.00    +0.052 A 
ATOM     28  C   UNL     1      11.799  -4.791   2.766  0.00  0.00    +0.160 A 
ATOM     29  O   UNL     1      12.502  -5.193   1.688  0.00  0.00    -0.458 OA
ENDBRANCH  19  28
ENDBRANCH  18  21
ENDBRANCH   1  18
TORSDOF 4
