REMARK  Name = ZINC02656986
REMARK  8 active torsions:
REMARK  status: ('A' for Active; 'I' for Inactive)
REMARK    1  A    between atoms: C_4  and  S_25
REMARK    2  A    between atoms: C_6  and  C_7
REMARK    3  A    between atoms: C_7  and  O_9
REMARK    4  A    between atoms: O_9  and  C_10
REMARK    5  A    between atoms: C_10  and  C_11
REMARK    6  A    between atoms: N_13  and  C_14
REMARK    7  A    between atoms: C_19  and  C_20
REMARK    8  A    between atoms: S_25  and  N_28
REMARK                            x       y       z     vdW  Elec       q    Type
REMARK                         _______ _______ _______ _____ _____    ______ ____
ROOT
ATOM      1  O   UNL     1       1.143   1.901   0.022  0.00  0.00    -0.452 OA
ENDROOT
BRANCH   1   2
ATOM      2  C   UNL     1      -0.014   1.212   0.040  0.00  0.00    +0.340 C 
ATOM      3  O   UNL     1       0.002  -0.003   0.038  0.00  0.00    -0.245 OA
BRANCH   2   9
ATOM      4  C   UNL     1      -1.324   3.330   0.062  0.00  0.00    +0.016 A 
ATOM      5  C   UNL     1      -2.531   3.998   0.070  0.00  0.00    +0.023 A 
ATOM      6  C   UNL     1      -3.719   3.286   0.082  0.00  0.00    +0.067 A 
ATOM      7  C   UNL     1      -3.704   1.901   0.081  0.00  0.00    +0.124 A 
ATOM      8  C   UNL     1      -2.505   1.222   0.067  0.00  0.00    +0.045 A 
ATOM      9  C   UNL     1      -1.302   1.933   0.055  0.00  0.00    +0.061 A 
ATOM     10 CL   UNL     1      -5.234   4.134   0.099  0.00  0.00    -0.082 Cl
BRANCH   7  11
ATOM     11  S   UNL     1      -5.221   1.005   0.096  0.00  0.00    +0.057 S 
ATOM     12  O   UNL     1      -6.037   1.572  -0.920  0.00  0.00    -0.153 OA
ATOM     13  O   UNL     1      -4.879  -0.374   0.117  0.00  0.00    -0.153 OA
BRANCH  11  14
ATOM     14  N   UNL     1      -5.968   1.330   1.538  0.00  0.00    -0.203 NA
ATOM     15  H   UNL     1      -6.936   1.322   1.595  0.00  0.00    +0.144 HD
ATOM     16  H   UNL     1      -5.436   1.528   2.325  0.00  0.00    +0.144 HD
ENDBRANCH  11  14
ENDBRANCH   7  11
ENDBRANCH   2   9
ENDBRANCH   1   2
BRANCH   1  17
ATOM     17  C   UNL     1       2.371   1.127   0.002  0.00  0.00    +0.328 C 
BRANCH  17  18
ATOM     18  C   UNL     1       3.554   2.060  -0.015  0.00  0.00    +0.255 C 
ATOM     19  O   UNL     1       3.379   3.261  -0.011  0.00  0.00    -0.272 OA
ATOM     20  N   UNL     1       4.806   1.562  -0.035  0.00  0.00    -0.282 N 
ATOM     21  H   UNL     1       4.948   0.604   0.027  0.00  0.00    +0.155 HD
BRANCH  20  22
ATOM     22  C   UNL     1       5.902   2.426  -0.147  0.00  0.00    +0.045 A 
ATOM     23  C   UNL     1       5.864   3.679   0.452  0.00  0.00    +0.025 A 
ATOM     24  C   UNL     1       6.946   4.529   0.341  0.00  0.00    +0.022 A 
ATOM     25  C   UNL     1       8.068   4.133  -0.366  0.00  0.00    +0.042 A 
ATOM     26  C   UNL     1       8.109   2.886  -0.964  0.00  0.00    +0.034 A 
ATOM     27  C   UNL     1       7.031   2.030  -0.851  0.00  0.00    +0.077 A 
ATOM     28 CL   UNL     1       9.427   5.205  -0.504  0.00  0.00    -0.084 Cl
BRANCH  27  29
ATOM     29  C   UNL     1       7.078   0.669  -1.497  0.00  0.00    +0.419 C 
ATOM     30  F   UNL     1       8.308   0.502  -2.143  0.00  0.00    -0.166 F 
ATOM     31  F   UNL     1       6.928  -0.318  -0.517  0.00  0.00    -0.166 F 
ATOM     32  F   UNL     1       6.042   0.560  -2.431  0.00  0.00    -0.166 F 
ENDBRANCH  27  29
ENDBRANCH  20  22
ENDBRANCH  17  18
ENDBRANCH   1  17
TORSDOF 8
