REMARK  Name = ZINC20680431
REMARK  6 active torsions:
REMARK  status: ('A' for Active; 'I' for Inactive)
REMARK    1  A    between atoms: C_1  and  C_2
REMARK    2  A    between atoms: N_5  and  C_11
REMARK    3  A    between atoms: C_7  and  C_10
REMARK    4  A    between atoms: C_11  and  C_13
REMARK    5  A    between atoms: C_11  and  C_14
REMARK    6  A    between atoms: N_19  and  C_20
REMARK                            x       y       z     vdW  Elec       q    Type
REMARK                         _______ _______ _______ _____ _____    ______ ____
ROOT
ATOM      1  C   UNL     1       0.000  -0.009  -0.068  0.00  0.00    +0.237 C 
ATOM      2  O   UNL     1      -1.024  -0.621  -0.287  0.00  0.00    -0.274 OA
ATOM      3  N   UNL     1      -0.040   1.323   0.129  0.00  0.00    -0.239 N 
ATOM      4  C   UNL     1      -1.217   1.978   0.076  0.00  0.00    +0.306 C 
ATOM      5  O   UNL     1      -2.243   1.365  -0.149  0.00  0.00    -0.252 OA
ATOM      6  N   UNL     1      -1.257   3.310   0.272  0.00  0.00    -0.294 N 
ATOM      7  H   UNL     1       0.889   1.877   0.332  0.00  0.00    +0.159 HD
ATOM      8  H   UNL     1      -0.329   3.864   0.476  0.00  0.00    +0.151 HD
ENDROOT
BRANCH   6   9
ATOM      9  C   UNL     1      -2.537   4.021   0.214  0.00  0.00    +0.037 C 
ATOM     10  C   UNL     1      -3.479   3.462   1.282  0.00  0.00    +0.029 C 
ATOM     11  C   UNL     1      -4.816   4.204   1.221  0.00  0.00    -0.008 C 
ATOM     12  C   UNL     1      -4.583   5.695   1.477  0.00  0.00    +0.007 C 
ATOM     13  C   UNL     1      -3.640   6.254   0.410  0.00  0.00    -0.008 C 
ATOM     14  C   UNL     1      -2.304   5.512   0.470  0.00  0.00    +0.029 C 
ATOM     15  C   UNL     1      -4.266   6.066  -0.974  0.00  0.00    +0.007 C 
ATOM     16  C   UNL     1      -4.499   4.575  -1.229  0.00  0.00    -0.008 C 
ATOM     17  C   UNL     1      -5.442   4.016  -0.162  0.00  0.00    +0.007 C 
ATOM     18  C   UNL     1      -3.163   3.833  -1.169  0.00  0.00    +0.029 C 
ENDBRANCH   6   9
BRANCH   1  19
ATOM     19  C   UNL     1       1.317  -0.740  -0.015  0.00  0.00    +0.141 C 
ATOM     20  C   UNL     1       2.109  -0.457  -1.293  0.00  0.00    +0.034 C 
BRANCH  19  24
ATOM     21  C   UNL     1      -0.184  -4.823  -2.317  0.00  0.00    +0.039 C 
ATOM     22  C   UNL     1       0.268  -4.225  -0.983  0.00  0.00    +0.130 C 
ATOM     23  C   UNL     1       0.566  -2.735  -1.165  0.00  0.00    +0.116 C 
ATOM     24  N   UNL     1       1.072  -2.183   0.101  0.00  0.00    -0.287 NA
ATOM     25  C   UNL     1       2.288  -2.892   0.528  0.00  0.00    +0.116 C 
ATOM     26  C   UNL     1       1.973  -4.381   0.693  0.00  0.00    +0.130 C 
ATOM     27  O   UNL     1       1.452  -4.892  -0.538  0.00  0.00    -0.371 OA
ATOM     28  C   UNL     1       0.935  -4.564   1.802  0.00  0.00    +0.039 C 
ENDBRANCH  19  24
ENDBRANCH   1  19
TORSDOF 3
