REMARK  Name = ZINC52796486
REMARK  7 active torsions:
REMARK  status: ('A' for Active; 'I' for Inactive)
REMARK    1  A    between atoms: C_1  and  C_2
REMARK    2  A    between atoms: C_7  and  N_12
REMARK    3  A    between atoms: C_9  and  C_11
REMARK    4  A    between atoms: C_13  and  C_15
REMARK    5  A    between atoms: C_15  and  N_16
REMARK    6  A    between atoms: C_19  and  C_23
REMARK    7  A    between atoms: C_19  and  C_24
REMARK                            x       y       z     vdW  Elec       q    Type
REMARK                         _______ _______ _______ _____ _____    ______ ____
ROOT
ATOM      1  N   UNL     1       1.094   0.561   7.203  0.00  0.00    -0.215 N 
ATOM      2  C   UNL     1       1.838   1.643   7.506  0.00  0.00    +0.251 C 
ATOM      3  O   UNL     1       2.820   2.044   6.918  0.00  0.00    -0.272 OA
ATOM      4  C   UNL     1       1.193   2.254   8.734  0.00  0.00    +0.135 C 
ATOM      5  N   UNL     1       0.053   1.362   9.005  0.00  0.00    -0.281 N 
ATOM      6  C   UNL     1       0.075   0.408   8.057  0.00  0.00    +0.310 C 
ATOM      7  O   UNL     1      -0.737  -0.493   7.985  0.00  0.00    -0.252 OA
ATOM      8  C   UNL     1       2.170   2.253   9.912  0.00  0.00    +0.047 C 
ATOM      9  H   UNL     1      -0.591   1.447   9.726  0.00  0.00    +0.152 HD
ENDROOT
BRANCH   4  10
ATOM     10  C   UNL     1       0.714   3.652   8.441  0.00  0.00    -0.015 A 
ATOM     11  C   UNL     1       1.370   4.424   7.500  0.00  0.00    +0.009 A 
ATOM     12  C   UNL     1       0.931   5.707   7.230  0.00  0.00    +0.039 A 
ATOM     13  C   UNL     1      -0.166   6.218   7.903  0.00  0.00    +0.123 A 
ATOM     14  C   UNL     1      -0.822   5.444   8.845  0.00  0.00    +0.039 A 
ATOM     15  C   UNL     1      -0.385   4.160   9.109  0.00  0.00    +0.009 A 
ATOM     16  F   UNL     1      -0.595   7.472   7.640  0.00  0.00    -0.205 F 
ENDBRANCH   4  10
BRANCH   1  17
ATOM     17  C   UNL     1       1.363  -0.333   6.074  0.00  0.00    +0.213 C 
BRANCH  17  19
ATOM     18  N   UNL     1       0.735  -0.503   3.687  0.00  0.00    -0.311 N 
ATOM     19  C   UNL     1       0.634   0.166   4.853  0.00  0.00    +0.231 C 
ATOM     20  O   UNL     1      -0.044   1.170   4.919  0.00  0.00    -0.274 OA
ATOM     21  H   UNL     1       1.276  -1.306   3.634  0.00  0.00    +0.149 HD
BRANCH  18  27
ATOM     22  C   UNL     1      -0.019   1.526   0.010  0.00  0.00    +0.008 C 
ATOM     23  C   UNL     1       0.002  -0.004   0.002  0.00  0.00    -0.009 C 
ATOM     24  C   UNL     1      -1.433  -0.534   0.013  0.00  0.00    +0.003 C 
ATOM     25  C   UNL     1      -2.149  -0.040   1.272  0.00  0.00    +0.002 C 
ATOM     26  C   UNL     1      -1.409  -0.547   2.511  0.00  0.00    +0.022 C 
ATOM     27  C   UNL     1       0.026  -0.018   2.500  0.00  0.00    +0.076 C 
ATOM     28  C   UNL     1       0.742  -0.511   1.242  0.00  0.00    +0.009 C 
ATOM     29  C   UNL     1       2.178   0.019   1.231  0.00  0.00    +0.009 C 
ENDBRANCH  18  27
ENDBRANCH  17  19
ENDBRANCH   1  17
TORSDOF 4
