REMARK  Name = ZINC16731129
REMARK  8 active torsions:
REMARK  status: ('A' for Active; 'I' for Inactive)
REMARK    1  A    between atoms: C_1  and  C_2
REMARK    2  A    between atoms: C_2  and  C_4
REMARK    3  A    between atoms: C_2  and  S_19
REMARK    4  A    between atoms: C_16  and  C_17
REMARK    5  A    between atoms: C_16  and  C_18
REMARK    6  A    between atoms: S_19  and  C_20
REMARK    7  A    between atoms: C_23  and  C_26
REMARK    8  A    between atoms: N_24  and  C_25
REMARK                            x       y       z     vdW  Elec       q    Type
REMARK                         _______ _______ _______ _____ _____    ______ ____
ROOT
ATOM      1  C   UNL     1      -3.252   4.216  -0.964  0.00  0.00    +0.029 C 
ATOM      2  C   UNL     1      -3.157   3.594   0.430  0.00  0.00    +0.137 C 
ENDROOT
BRANCH   2   3
ATOM      3  C   UNL     1      -4.530   3.168   0.884  0.00  0.00    +0.234 C 
ATOM      4  O   UNL     1      -4.784   1.991   1.026  0.00  0.00    -0.274 OA
ATOM      5  N   UNL     1      -5.475   4.096   1.133  0.00  0.00    -0.255 N 
ATOM      6  C   UNL     1      -6.812   3.728   1.349  0.00  0.00    +0.059 A 
ATOM      7  C   UNL     1      -7.344   2.593   0.765  0.00  0.00    +0.025 A 
ATOM      8  C   UNL     1      -8.667   2.259   0.993  0.00  0.00    +0.002 A 
ATOM      9  C   UNL     1      -9.456   3.056   1.803  0.00  0.00    +0.002 A 
ATOM     10  C   UNL     1      -8.929   4.190   2.392  0.00  0.00    +0.025 A 
ATOM     11  C   UNL     1      -7.605   4.532   2.170  0.00  0.00    +0.055 A 
ATOM     12  N   UNL     1      -7.050   5.670   2.765  0.00  0.00    -0.282 N 
ATOM     13  C   UNL     1      -5.868   6.160   2.343  0.00  0.00    +0.241 C 
ATOM     14  O   UNL     1      -5.385   7.122   2.902  0.00  0.00    -0.273 OA
ATOM     15  C   UNL     1      -5.138   5.526   1.192  0.00  0.00    +0.113 C 
ATOM     16  C   UNL     1      -3.630   5.689   1.392  0.00  0.00    +0.042 C 
ATOM     17  C   UNL     1      -5.559   6.206  -0.112  0.00  0.00    +0.042 C 
ATOM     18  H   UNL     1      -7.521   6.112   3.488  0.00  0.00    +0.155 HD
ENDBRANCH   2   3
BRANCH   2  19
ATOM     19  S   UNL     1      -2.066   2.151   0.374  0.00  0.00    -0.074 S 
BRANCH  19  20
ATOM     20  C   UNL     1      -0.540   2.937  -0.025  0.00  0.00    +0.192 A 
ATOM     21  N   UNL     1      -0.349   4.223  -0.208  0.00  0.00    -0.122 NA
ATOM     22  N   UNL     1       0.885   4.444  -0.491  0.00  0.00    -0.130 NA
ATOM     23  C   UNL     1       1.550   3.324  -0.499  0.00  0.00    +0.178 A 
ATOM     24  N   UNL     1       0.667   2.324  -0.200  0.00  0.00    -0.306 N 
ATOM     25  C   UNL     1       0.956   0.891  -0.094  0.00  0.00    +0.153 C 
BRANCH  23  26
ATOM     26  C   UNL     1       3.021   3.161  -0.786  0.00  0.00    +0.278 C 
ATOM     27  C   UNL     1       3.277   3.332  -2.290  0.00  0.00    +0.281 C 
ATOM     28  O   UNL     1       4.681   3.184  -2.525  0.00  0.00    -0.484 OA
ATOM     29  C   UNL     1       5.516   3.858  -1.687  0.00  0.00    +0.162 A 
ATOM     30  C   UNL     1       6.837   4.057  -2.057  0.00  0.00    +0.049 A 
ATOM     31  C   UNL     1       7.697   4.736  -1.215  0.00  0.00    +0.004 A 
ATOM     32  C   UNL     1       7.243   5.218  -0.001  0.00  0.00    +0.004 A 
ATOM     33  C   UNL     1       5.927   5.024   0.373  0.00  0.00    +0.049 A 
ATOM     34  C   UNL     1       5.059   4.345  -0.468  0.00  0.00    +0.163 A 
ATOM     35  O   UNL     1       3.764   4.166  -0.087  0.00  0.00    -0.474 OA
ENDBRANCH  23  26
ENDBRANCH  19  20
ENDBRANCH   2  19
TORSDOF 4
