REMARK  Name = ZINC05146071
REMARK  7 active torsions:
REMARK  status: ('A' for Active; 'I' for Inactive)
REMARK    1  A    between atoms: C_1  and  C_2
REMARK    2  A    between atoms: C_5  and  C_28
REMARK    3  A    between atoms: C_6  and  C_8
REMARK    4  A    between atoms: N_10  and  C_11
REMARK    5  A    between atoms: C_12  and  C_21
REMARK    6  A    between atoms: C_24  and  O_26
REMARK    7  A    between atoms: O_26  and  C_27
REMARK                            x       y       z     vdW  Elec       q    Type
REMARK                         _______ _______ _______ _____ _____    ______ ____
ROOT
ATOM      1  C   UNL     1       2.245   1.149   0.932  0.00  0.00    +0.085 A 
ATOM      2  C   UNL     1       3.517   1.656   1.153  0.00  0.00    +0.069 A 
ATOM      3  C   UNL     1       4.597   0.703   1.373  0.00  0.00    -0.023 A 
ATOM      4  C   UNL     1       4.230  -0.596   1.318  0.00  0.00    -0.004 A 
ATOM      5  S   UNL     1       2.487  -0.565   0.999  0.00  0.00    -0.077 S 
ATOM      6  C   UNL     1       5.104  -1.801   1.475  0.00  0.00    +0.043 C 
ATOM      7  C   UNL     1       5.974  -1.635   2.729  0.00  0.00    +0.005 C 
ATOM      8  C   UNL     1       7.267  -0.932   2.329  0.00  0.00    +0.001 C 
ATOM      9  C   UNL     1       7.000   0.052   1.191  0.00  0.00    +0.005 C 
ATOM     10  C   UNL     1       6.032   1.139   1.643  0.00  0.00    +0.037 C 
ENDROOT
BRANCH   2  11
ATOM     11  C   UNL     1       3.765   3.099   1.169  0.00  0.00    +0.255 C 
ATOM     12  O   UNL     1       3.681   3.720   2.213  0.00  0.00    -0.270 OA
ATOM     13  N   UNL     1       4.088   3.740   0.028  0.00  0.00    -0.217 N 
ATOM     14  C   UNL     1       4.316   5.069   0.043  0.00  0.00    +0.407 C 
ATOM     15  O   UNL     1       4.232   5.688   1.085  0.00  0.00    -0.226 OA
ATOM     16  H   UNL     1       4.155   3.246  -0.803  0.00  0.00    +0.161 HD
BRANCH  14  17
ATOM     17  O   UNL     1       4.638   5.709  -1.096  0.00  0.00    -0.453 OA
ATOM     18  C   UNL     1       4.870   7.139  -1.006  0.00  0.00    +0.282 C 
ENDBRANCH  14  17
ENDBRANCH   2  11
BRANCH   1  21
ATOM     19  C   UNL     1      -0.083   1.173   0.506  0.00  0.00    +0.249 C 
ATOM     20  O   UNL     1      -0.088  -0.043   0.521  0.00  0.00    -0.270 OA
ATOM     21  N   UNL     1       1.068   1.844   0.708  0.00  0.00    -0.275 N 
ATOM     22  H   UNL     1       1.072   2.814   0.696  0.00  0.00    +0.156 HD
BRANCH  19  28
ATOM     23  C   UNL     1      -2.563   5.494   0.247  0.00  0.00    +0.044 C 
ATOM     24  C   UNL     1      -2.536   3.992   0.134  0.00  0.00    -0.050 A 
ATOM     25  C   UNL     1      -3.688   3.304  -0.201  0.00  0.00    +0.003 A 
ATOM     26  C   UNL     1      -3.671   1.924  -0.307  0.00  0.00    +0.004 A 
ATOM     27  C   UNL     1      -2.504   1.226  -0.079  0.00  0.00    -0.038 A 
ATOM     28  C   UNL     1      -1.337   1.914   0.260  0.00  0.00    +0.040 A 
ATOM     29  C   UNL     1      -1.363   3.306   0.371  0.00  0.00    +0.016 A 
ATOM     30  C   UNL     1      -2.487  -0.277  -0.194  0.00  0.00    +0.044 C 
ENDBRANCH  19  28
ENDBRANCH   1  21
TORSDOF 4
