REMARK  Name = ZINC00660245
REMARK  11 active torsions:
REMARK  status: ('A' for Active; 'I' for Inactive)
REMARK    1  A    between atoms: C_1  and  C_2
REMARK    2  A    between atoms: C_2  and  C_29
REMARK    3  A    between atoms: C_6  and  C_14
REMARK    4  A    between atoms: C_8  and  C_12
REMARK    5  A    between atoms: C_9  and  N_11
REMARK    6  A    between atoms: C_16  and  O_24
REMARK    7  A    between atoms: C_17  and  O_22
REMARK    8  A    between atoms: C_19  and  O_20
REMARK    9  A    between atoms: O_20  and  C_21
REMARK   10  A    between atoms: O_22  and  C_23
REMARK   11  A    between atoms: O_24  and  C_25
REMARK                            x       y       z     vdW  Elec       q    Type
REMARK                         _______ _______ _______ _____ _____    ______ ____
ROOT
ATOM      1  C   UNL     1      -0.019   1.526   0.010  0.00  0.00    +0.012 C 
ATOM      2  C   UNL     1       0.002  -0.004   0.002  0.00  0.00    -0.021 C 
ATOM      3  C   UNL     1       0.740  -0.501  -1.243  0.00  0.00    +0.081 C 
ATOM      4  C   UNL     1       2.166  -0.005  -1.220  0.00  0.00    +0.115 C 
ATOM      5  C   UNL     1       2.809   0.187  -0.053  0.00  0.00    +0.046 C 
ATOM      6  C   UNL     1       4.237   0.675  -0.034  0.00  0.00    +0.105 C 
ATOM      7  C   UNL     1       4.877   0.468  -1.378  0.00  0.00    +0.098 C 
ATOM      8  C   UNL     1       4.113   0.262  -2.478  0.00  0.00    +0.198 C 
ATOM      9  O   UNL     1       2.772   0.239  -2.398  0.00  0.00    -0.445 OA
ATOM     10  C   UNL     1       2.173  -0.054   1.180  0.00  0.00    +0.164 C 
ATOM     11  O   UNL     1       2.791   0.113   2.212  0.00  0.00    -0.292 OA
ATOM     12  C   UNL     1       0.743  -0.516   1.242  0.00  0.00    +0.086 C 
ATOM     13  C   UNL     1      -1.432  -0.538   0.003  0.00  0.00    +0.012 C 
ENDROOT
BRANCH   6  14
ATOM     14  C   UNL     1       4.258   2.143   0.304  0.00  0.00    +0.011 A 
ATOM     15  C   UNL     1       3.599   3.048  -0.507  0.00  0.00    +0.057 A 
ATOM     16  C   UNL     1       3.617   4.398  -0.198  0.00  0.00    +0.162 A 
ATOM     17  C   UNL     1       4.299   4.844   0.930  0.00  0.00    +0.165 A 
ATOM     18  C   UNL     1       4.958   3.936   1.742  0.00  0.00    +0.095 A 
ATOM     19  C   UNL     1       4.933   2.585   1.432  0.00  0.00    +0.128 A 
BRANCH  19  20
ATOM     20  O   UNL     1       5.576   1.692   2.232  0.00  0.00    -0.495 OA
ATOM     21  C   UNL     1       6.251   2.216   3.377  0.00  0.00    +0.277 C 
ENDBRANCH  19  20
BRANCH  17  22
ATOM     22  O   UNL     1       4.317   6.169   1.235  0.00  0.00    -0.491 OA
ATOM     23  C   UNL     1       5.037   6.555   2.408  0.00  0.00    +0.277 C 
ENDBRANCH  17  22
BRANCH  16  24
ATOM     24  O   UNL     1       2.969   5.288  -0.998  0.00  0.00    -0.491 OA
ATOM     25  C   UNL     1       2.291   4.761  -2.140  0.00  0.00    +0.277 C 
ENDBRANCH  16  24
ENDBRANCH   6  14
BRANCH   8  26
ATOM     26  N   UNL     1       4.719   0.075  -3.696  0.00  0.00    -0.328 N 
ATOM     27  H   UNL     1       5.687   0.090  -3.763  0.00  0.00    +0.145 HD
ATOM     28  H   UNL     1       4.180  -0.073  -4.488  0.00  0.00    +0.145 HD
ENDBRANCH   8  26
BRANCH   7  29
ATOM     29  C   UNL     1       6.303   0.489  -1.496  0.00  0.00    +0.101 C 
ATOM     30  N   UNL     1       7.435   0.505  -1.591  0.00  0.00    -0.191 NA
ENDBRANCH   7  29
TORSDOF 6
