REMARK  Name = ZINC15410128
REMARK  9 active torsions:
REMARK  status: ('A' for Active; 'I' for Inactive)
REMARK    1  A    between atoms: C_1  and  C_2
REMARK    2  A    between atoms: C_5  and  N_8
REMARK    3  A    between atoms: N_8  and  S_9
REMARK    4  A    between atoms: S_9  and  C_12
REMARK    5  A    between atoms: C_15  and  C_31
REMARK    6  A    between atoms: C_16  and  C_18
REMARK    7  A    between atoms: N_20  and  C_21
REMARK    8  A    between atoms: C_24  and  C_30
REMARK    9  A    between atoms: C_25  and  N_27
REMARK                            x       y       z     vdW  Elec       q    Type
REMARK                         _______ _______ _______ _____ _____    ______ ____
ROOT
ATOM      1  C   UNL     1       2.132  -1.229   1.293  0.00  0.00    +0.109 A 
ATOM      2  C   UNL     1       3.268  -0.534   1.668  0.00  0.00    +0.029 A 
ATOM      3  C   UNL     1       3.615  -0.431   3.003  0.00  0.00    +0.006 A 
ATOM      4  C   UNL     1       2.834  -1.030   3.970  0.00  0.00    -0.038 A 
ATOM      5  C   UNL     1       1.690  -1.738   3.599  0.00  0.00    +0.042 A 
ATOM      6  C   UNL     1       1.343  -1.833   2.250  0.00  0.00    +0.042 A 
ATOM      7  C   UNL     1       3.217  -0.922   5.423  0.00  0.00    +0.044 C 
ENDROOT
BRANCH   5   8
ATOM      8  C   UNL     1       0.848  -2.382   4.629  0.00  0.00    +0.249 C 
ATOM      9  O   UNL     1       1.204  -2.381   5.792  0.00  0.00    -0.270 OA
ATOM     10  N   UNL     1      -0.313  -2.970   4.280  0.00  0.00    -0.281 N 
ATOM     11  H   UNL     1      -0.561  -3.035   3.345  0.00  0.00    +0.155 HD
BRANCH  10  12
ATOM     12  C   UNL     1      -1.159  -3.488   5.266  0.00  0.00    +0.036 A 
ATOM     13  C   UNL     1      -0.623  -4.076   6.404  0.00  0.00    +0.024 A 
ATOM     14  C   UNL     1      -1.461  -4.582   7.378  0.00  0.00    +0.007 A 
ATOM     15  C   UNL     1      -2.833  -4.512   7.216  0.00  0.00    -0.020 A 
ATOM     16  C   UNL     1      -3.369  -3.932   6.082  0.00  0.00    +0.131 A 
ATOM     17  C   UNL     1      -2.537  -3.419   5.106  0.00  0.00    +0.056 A 
ATOM     18  C   UNL     1      -3.744  -5.070   8.279  0.00  0.00    +0.046 C 
BRANCH  16  19
ATOM     19  N   UNL     1      -4.838  -3.859   5.913  0.00  0.00    +0.057 N 
ATOM     20  O   UNL     1      -5.312  -3.332   4.922  0.00  0.00    -0.126 OA
ATOM     21  O   UNL     1      -5.573  -4.325   6.765  0.00  0.00    -0.126 OA
ENDBRANCH  16  19
ENDBRANCH  10  12
ENDBRANCH   5   8
BRANCH   1  22
ATOM     22  S   UNL     1       1.696  -1.349  -0.410  0.00  0.00    +0.072 S 
ATOM     23  O   UNL     1       0.795  -2.443  -0.522  0.00  0.00    -0.150 OA
ATOM     24  O   UNL     1       2.910  -1.284  -1.145  0.00  0.00    -0.150 OA
BRANCH  22  25
ATOM     25  N   UNL     1       0.837   0.013  -0.793  0.00  0.00    -0.216 N 
ATOM     26  H   UNL     1       1.174   0.626  -1.465  0.00  0.00    +0.174 HD
BRANCH  25  31
ATOM     27  C   UNL     1      -4.064   1.109   1.841  0.00  0.00    +0.044 C 
ATOM     28  C   UNL     1      -2.762   0.818   1.141  0.00  0.00    -0.050 A 
ATOM     29  C   UNL     1      -1.823   1.821   0.986  0.00  0.00    +0.005 A 
ATOM     30  C   UNL     1      -0.628   1.557   0.345  0.00  0.00    +0.025 A 
ATOM     31  C   UNL     1      -0.370   0.283  -0.144  0.00  0.00    +0.048 A 
ATOM     32  C   UNL     1      -1.318  -0.721   0.009  0.00  0.00    +0.025 A 
ATOM     33  C   UNL     1      -2.509  -0.452   0.655  0.00  0.00    +0.005 A 
ENDBRANCH  25  31
ENDBRANCH  22  25
ENDBRANCH   1  22
TORSDOF 6
