REMARK  Name = ZINC64336987
REMARK  11 active torsions:
REMARK  status: ('A' for Active; 'I' for Inactive)
REMARK    1  A    between atoms: C_1  and  C_2
REMARK    2  A    between atoms: C_3  and  C_13
REMARK    3  A    between atoms: C_4  and  C_12
REMARK    4  A    between atoms: C_9  and  O_11
REMARK    5  A    between atoms: C_13  and  C_14
REMARK    6  A    between atoms: C_14  and  C_15
REMARK    7  A    between atoms: N_17  and  C_18
REMARK    8  A    between atoms: C_18  and  C_19
REMARK    9  A    between atoms: C_19  and  N_24
REMARK   10  A    between atoms: N_24  and  C_25
REMARK   11  A    between atoms: N_24  and  C_26
REMARK                            x       y       z     vdW  Elec       q    Type
REMARK                         _______ _______ _______ _____ _____    ______ ____
ROOT
ATOM      1  C   UNL     1      -2.804   0.863   1.252  0.00  0.00    +0.100 C 
ENDROOT
BRANCH   1   2
ATOM      2  C   UNL     1      -4.201   1.421   1.340  0.00  0.00    +0.213 C 
ATOM      3  O   UNL     1      -4.855   1.581   0.331  0.00  0.00    -0.276 OA
ATOM      4  N   UNL     1      -4.723   1.743   2.540  0.00  0.00    -0.317 N 
ATOM      5  H   UNL     1      -4.200   1.615   3.347  0.00  0.00    +0.149 HD
BRANCH   4   6
ATOM      6  C   UNL     1      -6.082   2.285   2.626  0.00  0.00    +0.092 C 
BRANCH   6   7
ATOM      7  C   UNL     1      -6.470   2.458   4.095  0.00  0.00    -0.050 C 
ATOM      8  C   UNL     1      -6.519   1.083   4.794  0.00  0.00    -0.010 C 
ATOM      9  C   UNL     1      -7.715   1.196   5.771  0.00  0.00    -0.001 C 
ATOM     10  C   UNL     1      -8.743   2.021   4.959  0.00  0.00    -0.001 C 
ATOM     11  C   UNL     1      -7.885   3.054   4.200  0.00  0.00    -0.010 C 
BRANCH   7  12
ATOM     12  N   UNL     1      -5.503   3.333   4.772  0.00  0.00    +0.381 N 
ATOM     13  C   UNL     1      -5.521   4.660   4.142  0.00  0.00    -0.096 C 
ATOM     14  C   UNL     1      -5.865   3.458   6.190  0.00  0.00    -0.096 C 
ATOM     15  H   UNL     1      -4.579   2.936   4.694  0.00  0.00    -0.082 HD
ENDBRANCH   7  12
ENDBRANCH   6   7
ENDBRANCH   4   6
ENDBRANCH   1   2
BRANCH   1  16
ATOM     16  C   UNL     1      -2.457   0.585  -0.212  0.00  0.00    +0.048 C 
BRANCH  16  19
ATOM     17  C   UNL     1      -0.167   2.381  -0.306  0.00  0.00    +0.066 C 
ATOM     18  C   UNL     1       0.044   0.890  -0.345  0.00  0.00    +0.045 A 
ATOM     19  C   UNL     1      -1.060   0.027  -0.301  0.00  0.00    -0.005 A 
ATOM     20  C   UNL     1      -0.861  -1.313  -0.337  0.00  0.00    +0.047 A 
ATOM     21  N   UNL     1       0.414  -1.794  -0.417  0.00  0.00    -0.215 N 
ATOM     22  C   UNL     1       1.470  -0.919  -0.458  0.00  0.00    +0.160 A 
ATOM     23  N   UNL     1       1.260   0.404  -0.427  0.00  0.00    -0.233 NA
ATOM     24  C   UNL     1       2.626  -1.683  -0.537  0.00  0.00    +0.116 A 
ATOM     25  C   UNL     1       2.246  -3.022  -0.541  0.00  0.00    +0.234 A 
ATOM     26  N   UNL     1       0.933  -3.092  -0.470  0.00  0.00    -0.127 NA
ATOM     27  C   UNL     1      -2.031  -2.261  -0.290  0.00  0.00    +0.066 C 
BRANCH  25  28
ATOM     28  O   UNL     1       3.092  -4.084  -0.609  0.00  0.00    -0.491 OA
ATOM     29  H   UNL     1       3.386  -4.408   0.254  0.00  0.00    +0.294 HD
ENDBRANCH  25  28
ENDBRANCH  16  19
ENDBRANCH   1  16
TORSDOF 7
