REMARK  Name = ZINC09819732
REMARK  6 active torsions:
REMARK  status: ('A' for Active; 'I' for Inactive)
REMARK    1  A    between atoms: C_1  and  C_2
REMARK    2  A    between atoms: C_2  and  C_4
REMARK    3  A    between atoms: C_2  and  N_10
REMARK    4  A    between atoms: C_11  and  C_13
REMARK    5  A    between atoms: N_15  and  C_31
REMARK    6  A    between atoms: N_22  and  C_25
REMARK                            x       y       z     vdW  Elec       q    Type
REMARK                         _______ _______ _______ _____ _____    ______ ____
ROOT
ATOM      1  C   UNL     1       2.448   3.841  -0.138  0.00  0.00    +0.078 A 
ATOM      2  C   UNL     1       3.134   2.947  -0.938  0.00  0.00    +0.101 A 
ATOM      3  N   UNL     1       2.316   1.927  -1.253  0.00  0.00    -0.344 N 
ATOM      4  C   UNL     1       1.083   2.133  -0.668  0.00  0.00    +0.132 A 
ATOM      5  C   UNL     1       1.141   3.326   0.037  0.00  0.00    +0.086 A 
ATOM      6  N   UNL     1       0.022   3.764   0.722  0.00  0.00    -0.305 N 
ATOM      7  H   UNL     1       0.052   4.597   1.217  0.00  0.00    +0.170 HD
ATOM      8  C   UNL     1      -1.110   3.034   0.700  0.00  0.00    +0.334 A 
ATOM      9  O   UNL     1      -2.086   3.433   1.307  0.00  0.00    -0.246 OA
ATOM     10  N   UNL     1      -1.187   1.879   0.018  0.00  0.00    -0.227 N 
ATOM     11  C   UNL     1      -0.127   1.399  -0.663  0.00  0.00    +0.285 A 
ATOM     12  O   UNL     1      -0.211   0.347  -1.271  0.00  0.00    -0.265 OA
ATOM     13  C   UNL     1       2.677   0.778  -2.087  0.00  0.00    +0.149 C 
ENDROOT
BRANCH  10  14
ATOM     14  C   UNL     1      -2.388   1.157   0.019  0.00  0.00    +0.054 A 
ATOM     15  C   UNL     1      -2.622   0.199   0.996  0.00  0.00    +0.026 A 
ATOM     16  C   UNL     1      -3.810  -0.507   0.999  0.00  0.00    +0.002 A 
ATOM     17  C   UNL     1      -4.760  -0.268   0.023  0.00  0.00    +0.000 A 
ATOM     18  C   UNL     1      -4.527   0.681  -0.955  0.00  0.00    +0.002 A 
ATOM     19  C   UNL     1      -3.344   1.395  -0.959  0.00  0.00    +0.026 A 
ENDBRANCH  10  14
BRANCH   1  21
ATOM     20  N   UNL     1       4.250   5.460   0.175  0.00  0.00    -0.305 N 
ATOM     21  C   UNL     1       2.978   5.092   0.426  0.00  0.00    +0.248 C 
ATOM     22  O   UNL     1       2.268   5.795   1.120  0.00  0.00    -0.270 OA
ATOM     23  H   UNL     1       4.817   4.899  -0.378  0.00  0.00    +0.150 HD
BRANCH  20  25
ATOM     24  C   UNL     1       4.413   7.874  -0.182  0.00  0.00    +0.033 C 
ATOM     25  C   UNL     1       4.777   6.706   0.737  0.00  0.00    +0.100 C 
BRANCH  25  26
ATOM     26  C   UNL     1       6.277   6.609   0.856  0.00  0.00    -0.027 A 
ATOM     27  C   UNL     1       7.011   5.999  -0.144  0.00  0.00    +0.005 A 
ATOM     28  C   UNL     1       8.387   5.914  -0.037  0.00  0.00    +0.000 A 
ATOM     29  C   UNL     1       9.027   6.429   1.074  0.00  0.00    +0.000 A 
ATOM     30  C   UNL     1       8.292   7.035   2.077  0.00  0.00    +0.000 A 
ATOM     31  C   UNL     1       6.917   7.124   1.968  0.00  0.00    +0.005 A 
ENDBRANCH  25  26
ENDBRANCH  20  25
ENDBRANCH   1  21
TORSDOF 4
