REMARK  Name = ZINC40124008
REMARK  9 active torsions:
REMARK  status: ('A' for Active; 'I' for Inactive)
REMARK    1  A    between atoms: C_1  and  C_2
REMARK    2  A    between atoms: C_2  and  C_3
REMARK    3  A    between atoms: C_3  and  C_4
REMARK    4  A    between atoms: C_4  and  O_5
REMARK    5  A    between atoms: O_5  and  C_6
REMARK    6  A    between atoms: C_9  and  C_13
REMARK    7  A    between atoms: C_11  and  C_12
REMARK    8  A    between atoms: C_13  and  C_15
REMARK    9  A    between atoms: C_20  and  C_22
REMARK                            x       y       z     vdW  Elec       q    Type
REMARK                         _______ _______ _______ _____ _____    ______ ____
ROOT
ATOM      1  C   UNL     1      -2.213  -9.202  -0.372  0.00  0.00    +0.076 C 
ATOM      2  C   UNL     1      -1.669 -10.128  -1.196  0.00  0.00    +0.249 C 
ATOM      3  C   UNL     1      -0.395 -10.605  -0.617  0.00  0.00    +0.285 C 
ATOM      4  O   UNL     1       0.331 -11.439  -1.121  0.00  0.00    -0.267 OA
ATOM      5  N   UNL     1      -0.159  -9.979   0.550  0.00  0.00    -0.298 N 
ATOM      6  C   UNL     1      -1.267  -9.049   0.796  0.00  0.00    +0.142 C 
ATOM      7  O   UNL     1      -2.206 -10.550  -2.364  0.00  0.00    -0.282 OA
ATOM      8  H   UNL     1       0.611 -10.114   1.125  0.00  0.00    +0.150 HD
ENDROOT
BRANCH   6   9
ATOM      9  C   UNL     1      -1.968  -9.410   2.080  0.00  0.00    -0.022 A 
ATOM     10  C   UNL     1      -2.185 -10.738   2.399  0.00  0.00    +0.006 A 
ATOM     11  C   UNL     1      -2.827 -11.071   3.576  0.00  0.00    +0.001 A 
ATOM     12  C   UNL     1      -3.252 -10.076   4.437  0.00  0.00    +0.015 A 
ATOM     13  C   UNL     1      -3.034  -8.747   4.119  0.00  0.00    +0.018 A 
ATOM     14  C   UNL     1      -2.387  -8.415   2.943  0.00  0.00    +0.021 A 
ATOM     15 BR   UNL     1      -3.616  -7.386   5.295  0.00  0.00    -0.050 Br
ENDBRANCH   6   9
BRANCH   1  16
ATOM     16  C   UNL     1      -3.474  -8.482  -0.578  0.00  0.00    +0.195 C 
ATOM     17  O   UNL     1      -4.528  -9.090  -0.583  0.00  0.00    -0.287 OA
BRANCH  16  21
ATOM     18  C   UNL     1      -3.447  -4.274  -1.152  0.00  0.00    +0.123 A 
ATOM     19  C   UNL     1      -2.246  -4.966  -1.037  0.00  0.00    +0.046 A 
ATOM     20  C   UNL     1      -2.250  -6.330  -0.851  0.00  0.00    +0.015 A 
ATOM     21  C   UNL     1      -3.464  -7.019  -0.777  0.00  0.00    +0.023 A 
ATOM     22  C   UNL     1      -4.669  -6.320  -0.893  0.00  0.00    +0.018 A 
ATOM     23  C   UNL     1      -4.656  -4.955  -1.074  0.00  0.00    -0.008 A 
ATOM     24  C   UNL     1      -5.954  -4.200  -1.193  0.00  0.00    +0.047 C 
BRANCH  18  25
ATOM     25  O   UNL     1      -3.438  -2.930  -1.335  0.00  0.00    -0.492 OA
BRANCH  25  26
ATOM     26  C   UNL     1      -2.164  -2.307  -1.514  0.00  0.00    +0.229 C 
BRANCH  26  27
ATOM     27  C   UNL     1      -2.360  -0.818  -1.806  0.00  0.00    +0.041 C 
BRANCH  27  29
ATOM     28  C   UNL     1      -1.193   1.337  -2.289  0.00  0.00    +0.004 C 
ATOM     29  C   UNL     1      -0.996  -0.152  -1.998  0.00  0.00    -0.000 C 
ENDBRANCH  27  29
ENDBRANCH  26  27
ENDBRANCH  25  26
ENDBRANCH  18  25
ENDBRANCH  16  21
ENDBRANCH   1  16
TORSDOF 7
