REMARK  Name = ZINC64173269
REMARK  7 active torsions:
REMARK  status: ('A' for Active; 'I' for Inactive)
REMARK    1  A    between atoms: C_1  and  C_2
REMARK    2  A    between atoms: N_4  and  C_5
REMARK    3  A    between atoms: C_5  and  C_7
REMARK    4  A    between atoms: C_5  and  C_17
REMARK    5  A    between atoms: C_7  and  C_8
REMARK    6  A    between atoms: C_25  and  O_29
REMARK    7  A    between atoms: O_29  and  C_30
REMARK                            x       y       z     vdW  Elec       q    Type
REMARK                         _______ _______ _______ _____ _____    ______ ____
ROOT
ATOM      1  C   UNL     1      -1.136  -2.159   0.001  0.00  0.00    +0.163 C 
ENDROOT
BRANCH   1   2
ATOM      2  C   UNL     1      -0.407  -2.658   1.222  0.00  0.00    +0.239 C 
ATOM      3  O   UNL     1       0.350  -1.922   1.819  0.00  0.00    -0.273 OA
ATOM      4  N   UNL     1      -0.597  -3.922   1.651  0.00  0.00    -0.263 N 
ATOM      5  C   UNL     1       0.074  -4.381   2.773  0.00  0.00    +0.165 A 
ATOM      6  N   UNL     1       0.918  -3.740   3.546  0.00  0.00    -0.225 NA
ATOM      7  C   UNL     1       1.503  -4.319   4.620  0.00  0.00    +0.081 A 
ATOM      8  C   UNL     1       2.424  -3.744   5.526  0.00  0.00    +0.032 A 
ATOM      9  C   UNL     1       2.927  -4.473   6.571  0.00  0.00    +0.048 A 
ATOM     10  C   UNL     1       2.554  -5.797   6.779  0.00  0.00    +0.121 A 
ATOM     11  C   UNL     1       1.653  -6.391   5.908  0.00  0.00    +0.063 A 
ATOM     12  C   UNL     1       1.145  -5.665   4.860  0.00  0.00    +0.044 A 
ATOM     13  S   UNL     1       0.001  -5.993   3.541  0.00  0.00    -0.052 S 
ATOM     14  H   UNL     1      -1.202  -4.510   1.173  0.00  0.00    +0.157 HD
BRANCH  10  15
ATOM     15  O   UNL     1       3.068  -6.501   7.823  0.00  0.00    -0.495 OA
ATOM     16  C   UNL     1       3.991  -5.818   8.674  0.00  0.00    +0.277 C 
ENDBRANCH  10  15
ENDBRANCH   1   2
BRANCH   1  20
ATOM     17  C   UNL     1      -0.018   1.503   0.010  0.00  0.00    +0.109 C 
ATOM     18  C   UNL     1       0.002  -0.004   0.002  0.00  0.00    +0.211 C 
ATOM     19  O   UNL     1       1.060  -0.596  -0.011  0.00  0.00    -0.276 OA
ATOM     20  N   UNL     1      -1.156  -0.694   0.009  0.00  0.00    -0.304 N 
ATOM     21  H   UNL     1      -2.002  -0.220   0.020  0.00  0.00    +0.149 HD
ENDBRANCH   1  20
BRANCH   1  22
ATOM     22  C   UNL     1      -0.420  -2.652  -1.258  0.00  0.00    +0.065 C 
BRANCH  22  23
ATOM     23  C   UNL     1      -1.215  -2.257  -2.475  0.00  0.00    -0.039 C 
ATOM     24  C   UNL     1      -1.033  -1.160  -3.245  0.00  0.00    -0.001 A 
ATOM     25  C   UNL     1      -0.077  -0.048  -3.181  0.00  0.00    +0.010 A 
ATOM     26  C   UNL     1      -0.143   0.928  -4.115  0.00  0.00    +0.001 A 
ATOM     27  C   UNL     1      -1.099   0.905  -5.139  0.00  0.00    +0.002 A 
ATOM     28  C   UNL     1      -2.010  -0.084  -5.264  0.00  0.00    +0.026 A 
ATOM     29  C   UNL     1      -2.033  -1.162  -4.337  0.00  0.00    +0.043 A 
ATOM     30  N   UNL     1      -2.803  -2.219  -4.246  0.00  0.00    -0.380 N 
ATOM     31  C   UNL     1      -2.374  -3.011  -3.088  0.00  0.00    +0.144 C 
ATOM     32  H   UNL     1      -3.532  -2.442  -4.846  0.00  0.00    +0.160 HD
ENDBRANCH  22  23
ENDBRANCH   1  22
TORSDOF 5
