REMARK  Name = ZINC30513799
REMARK  8 active torsions:
REMARK  status: ('A' for Active; 'I' for Inactive)
REMARK    1  A    between atoms: C_1  and  C_2
REMARK    2  A    between atoms: C_2  and  C_4
REMARK    3  A    between atoms: C_2  and  N_16
REMARK    4  A    between atoms: N_6  and  C_7
REMARK    5  A    between atoms: C_11  and  N_13
REMARK    6  A    between atoms: N_16  and  C_17
REMARK    7  A    between atoms: C_17  and  C_18
REMARK    8  A    between atoms: C_18  and  N_23
REMARK                            x       y       z     vdW  Elec       q    Type
REMARK                         _______ _______ _______ _____ _____    ______ ____
ROOT
ATOM      1  C   UNL     1      -1.465  -0.832   1.355  0.00  0.00    -0.004 C 
ATOM      2  C   UNL     1      -0.997  -1.187  -0.057  0.00  0.00    +0.013 C 
ENDROOT
BRANCH   2   3
ATOM      3  C   UNL     1       0.398  -0.659  -0.272  0.00  0.00    +0.203 C 
ATOM      4  O   UNL     1       1.302  -1.423  -0.535  0.00  0.00    -0.277 OA
ATOM      5  N   UNL     1       0.641   0.663  -0.172  0.00  0.00    -0.287 N 
ATOM      6  H   UNL     1      -0.191   1.365  -0.013  0.00  0.00    +0.155 HD
BRANCH   5   7
ATOM      7  C   UNL     1       1.952   1.143  -0.268  0.00  0.00    +0.035 A 
ATOM      8  C   UNL     1       2.198   2.383  -0.845  0.00  0.00    +0.023 A 
ATOM      9  C   UNL     1       3.493   2.854  -0.938  0.00  0.00    +0.004 A 
ATOM     10  C   UNL     1       4.544   2.093  -0.459  0.00  0.00    +0.033 A 
ATOM     11  C   UNL     1       4.302   0.859   0.116  0.00  0.00    +0.128 A 
ATOM     12  C   UNL     1       3.008   0.384   0.217  0.00  0.00    +0.056 A 
BRANCH  11  13
ATOM     13  N   UNL     1       5.429   0.048   0.629  0.00  0.00    +0.056 N 
ATOM     14  O   UNL     1       6.569   0.468   0.544  0.00  0.00    -0.126 OA
ATOM     15  O   UNL     1       5.216  -1.039   1.135  0.00  0.00    -0.126 OA
ENDBRANCH  11  13
ENDBRANCH   5   7
ENDBRANCH   2   3
BRANCH   2  16
ATOM     16  N   UNL     1      -0.998  -2.647  -0.221  0.00  0.00    +0.388 N 
ATOM     17  H   UNL     1      -0.278  -2.929  -1.003  0.00  0.00    -0.085 HD
ATOM     18  H   UNL     1      -0.711  -3.123   0.729  0.00  0.00    -0.085 HD
BRANCH  16  19
ATOM     19  C   UNL     1      -2.329  -3.132  -0.608  0.00  0.00    -0.059 C 
BRANCH  19  20
ATOM     20  C   UNL     1      -2.311  -4.660  -0.689  0.00  0.00    +0.007 C 
ATOM     21  C   UNL     1      -3.733  -5.191  -0.964  0.00  0.00    +0.020 C 
ATOM     22  C   UNL     1      -3.820  -6.494  -0.131  0.00  0.00    +0.002 C 
ATOM     23  C   UNL     1      -3.044  -6.127   1.159  0.00  0.00    +0.002 C 
ATOM     24  C   UNL     1      -1.873  -5.255   0.660  0.00  0.00    +0.020 C 
BRANCH  20  25
ATOM     25  N   UNL     1      -1.396  -5.096  -1.752  0.00  0.00    -0.297 NA
ATOM     26  C   UNL     1      -0.006  -4.789  -1.407  0.00  0.00    +0.095 C 
ATOM     27  C   UNL     1       0.942  -5.633  -2.267  0.00  0.00    +0.084 C 
ATOM     28  S   UNL     1       0.667  -5.203  -4.013  0.00  0.00    -0.158 S 
ATOM     29  C   UNL     1      -1.140  -5.340  -4.180  0.00  0.00    +0.084 C 
ATOM     30  C   UNL     1      -1.791  -4.538  -3.047  0.00  0.00    +0.095 C 
ENDBRANCH  20  25
ENDBRANCH  19  20
ENDBRANCH  16  19
ENDBRANCH   2  16
TORSDOF 7
