REMARK  Name = ZINC21187880
REMARK  10 active torsions:
REMARK  status: ('A' for Active; 'I' for Inactive)
REMARK    1  A    between atoms: C_1  and  C_2
REMARK    2  A    between atoms: C_3  and  C_9
REMARK    3  A    between atoms: C_4  and  C_8
REMARK    4  A    between atoms: N_5  and  C_7
REMARK    5  A    between atoms: N_10  and  N_11
REMARK    6  A    between atoms: C_12  and  C_14
REMARK    7  A    between atoms: C_17  and  C_20
REMARK    8  A    between atoms: C_20  and  O_21
REMARK    9  A    between atoms: O_21  and  C_22
REMARK   10  A    between atoms: C_27  and  C_28
REMARK                            x       y       z     vdW  Elec       q    Type
REMARK                         _______ _______ _______ _____ _____    ______ ____
ROOT
ATOM      1  C   UNL     1      -0.070   3.106  -5.837  0.00  0.00    +0.038 A 
ATOM      2  C   UNL     1      -0.068   2.175  -6.876  0.00  0.00    +0.013 A 
ATOM      3  C   UNL     1      -0.081   2.608  -8.186  0.00  0.00    +0.008 A 
ATOM      4  C   UNL     1      -0.096   3.962  -8.470  0.00  0.00    -0.010 A 
ATOM      5  C   UNL     1      -0.098   4.890  -7.444  0.00  0.00    +0.008 A 
ATOM      6  C   UNL     1      -0.090   4.471  -6.130  0.00  0.00    +0.013 A 
ENDROOT
BRANCH   1   8
ATOM      7  N   UNL     1      -0.037   1.331  -4.151  0.00  0.00    -0.203 N 
ATOM      8  C   UNL     1      -0.057   2.650  -4.431  0.00  0.00    +0.263 C 
ATOM      9  O   UNL     1      -0.063   3.463  -3.527  0.00  0.00    -0.268 OA
ATOM     10  H   UNL     1      -0.032   0.682  -4.872  0.00  0.00    +0.178 HD
BRANCH   7  12
ATOM     11  C   UNL     1      -0.005  -0.370  -2.549  0.00  0.00    +0.141 C 
ATOM     12  N   UNL     1      -0.024   0.899  -2.818  0.00  0.00    -0.187 NA
BRANCH  11  15
ATOM     13  C   UNL     1      -0.018   1.503   0.010  0.00  0.00    +0.068 C 
ATOM     14  C   UNL     1       0.002  -0.004   0.002  0.00  0.00    +0.069 A 
ATOM     15  C   UNL     1       0.008  -0.826  -1.145  0.00  0.00    +0.038 A 
ATOM     16  C   UNL     1       0.028  -2.135  -0.711  0.00  0.00    +0.045 A 
ATOM     17  N   UNL     1       0.034  -2.111   0.636  0.00  0.00    -0.271 N 
ATOM     18  N   UNL     1       0.023  -0.776   1.055  0.00  0.00    -0.176 NA
ATOM     19  C   UNL     1       0.054  -3.285   1.514  0.00  0.00    +0.172 C 
ATOM     20  C   UNL     1       0.041  -3.364  -1.583  0.00  0.00    +0.066 C 
ENDBRANCH  11  15
ENDBRANCH   7  12
ENDBRANCH   1   8
BRANCH   4  21
ATOM     21  C   UNL     1      -0.110   4.427  -9.903  0.00  0.00    +0.264 C 
BRANCH  21  22
ATOM     22  O   UNL     1      -1.461   4.562 -10.348  0.00  0.00    -0.487 OA
BRANCH  22  23
ATOM     23  C   UNL     1      -1.651   4.976 -11.627  0.00  0.00    +0.129 A 
ATOM     24  C   UNL     1      -0.562   5.243 -12.441  0.00  0.00    +0.046 A 
ATOM     25  C   UNL     1      -0.757   5.665 -13.743  0.00  0.00    +0.004 A 
ATOM     26  C   UNL     1      -2.038   5.823 -14.241  0.00  0.00    +0.001 A 
ATOM     27  C   UNL     1      -3.132   5.561 -13.441  0.00  0.00    +0.012 A 
ATOM     28  C   UNL     1      -2.947   5.130 -12.130  0.00  0.00    +0.024 A 
BRANCH  28  29
ATOM     29  C   UNL     1      -4.119   4.840 -11.268  0.00  0.00    -0.014 A 
ATOM     30  C   UNL     1      -4.188   3.642 -10.560  0.00  0.00    +0.008 A 
ATOM     31  C   UNL     1      -5.281   3.379  -9.759  0.00  0.00    +0.001 A 
ATOM     32  C   UNL     1      -6.307   4.301  -9.659  0.00  0.00    +0.000 A 
ATOM     33  C   UNL     1      -6.244   5.492 -10.361  0.00  0.00    +0.001 A 
ATOM     34  C   UNL     1      -5.153   5.768 -11.160  0.00  0.00    +0.008 A 
ENDBRANCH  28  29
ENDBRANCH  22  23
ENDBRANCH  21  22
ENDBRANCH   4  21
TORSDOF 7
