REMARK  Name = ZINC12763924
REMARK  9 active torsions:
REMARK  status: ('A' for Active; 'I' for Inactive)
REMARK    1  A    between atoms: C_1  and  C_2
REMARK    2  A    between atoms: C_4  and  C_21
REMARK    3  A    between atoms: C_6  and  C_20
REMARK    4  A    between atoms: C_7  and  C_8
REMARK    5  A    between atoms: C_8  and  N_9
REMARK    6  A    between atoms: N_18  and  C_19
REMARK    7  A    between atoms: C_21  and  C_22
REMARK    8  A    between atoms: C_21  and  C_23
REMARK    9  A    between atoms: C_21  and  C_24
REMARK                            x       y       z     vdW  Elec       q    Type
REMARK                         _______ _______ _______ _____ _____    ______ ____
ROOT
ATOM      1  C   UNL     1      -0.107   3.829   0.987  0.00  0.00    +0.044 C 
ATOM      2  C   UNL     1      -1.016   2.772   1.560  0.00  0.00    -0.045 A 
ATOM      3  C   UNL     1      -1.892   3.093   2.580  0.00  0.00    +0.008 A 
ATOM      4  C   UNL     1      -2.721   2.122   3.110  0.00  0.00    -0.041 A 
ATOM      5  C   UNL     1      -2.678   0.832   2.616  0.00  0.00    +0.008 A 
ATOM      6  C   UNL     1      -1.806   0.512   1.592  0.00  0.00    -0.045 A 
ATOM      7  C   UNL     1      -0.977   1.483   1.062  0.00  0.00    -0.022 A 
ATOM      8  C   UNL     1      -1.760  -0.894   1.054  0.00  0.00    +0.044 C 
ENDROOT
BRANCH   4   9
ATOM      9  C   UNL     1      -3.671   2.471   4.226  0.00  0.00    -0.013 C 
ATOM     10  C   UNL     1      -3.352   1.615   5.454  0.00  0.00    +0.015 C 
ATOM     11  C   UNL     1      -3.519   3.951   4.583  0.00  0.00    +0.015 C 
ATOM     12  C   UNL     1      -5.108   2.200   3.776  0.00  0.00    +0.015 C 
ENDBRANCH   4   9
BRANCH   7  13
ATOM     13  C   UNL     1      -0.026   1.134  -0.054  0.00  0.00    +0.162 C 
BRANCH  13  14
ATOM     14  N   UNL     1      -0.531   1.683  -1.315  0.00  0.00    -0.294 N 
ATOM     15  C   UNL     1      -0.066   2.874  -1.768  0.00  0.00    +0.204 A 
ATOM     16  N   UNL     1      -0.470   3.418  -2.878  0.00  0.00    -0.218 NA
ATOM     17  C   UNL     1      -1.388   2.830  -3.662  0.00  0.00    +0.165 A 
ATOM     18  C   UNL     1      -1.928   1.593  -3.275  0.00  0.00    +0.103 A 
ATOM     19  C   UNL     1      -1.456   0.996  -2.026  0.00  0.00    +0.265 A 
ATOM     20  O   UNL     1      -1.883  -0.077  -1.638  0.00  0.00    -0.267 OA
ATOM     21  C   UNL     1      -2.852   1.212  -4.266  0.00  0.00    +0.150 A 
ATOM     22  N   UNL     1      -2.875   2.140  -5.183  0.00  0.00    -0.177 NA
ATOM     23  N   UNL     1      -1.978   3.159  -4.840  0.00  0.00    -0.249 N 
ATOM     24  C   UNL     1      -1.721   4.373  -5.619  0.00  0.00    +0.174 C 
ENDBRANCH  13  14
ENDBRANCH   7  13
TORSDOF 3
