REMARK  Name = ZINC08793016
REMARK  9 active torsions:
REMARK  status: ('A' for Active; 'I' for Inactive)
REMARK    1  A    between atoms: C_1  and  C_2
REMARK    2  A    between atoms: C_2  and  O_3
REMARK    3  A    between atoms: O_3  and  C_4
REMARK    4  A    between atoms: C_4  and  C_6
REMARK    5  A    between atoms: C_10  and  N_11
REMARK    6  A    between atoms: C_12  and  C_14
REMARK    7  A    between atoms: C_25  and  C_26
REMARK    8  A    between atoms: C_25  and  C_27
REMARK    9  A    between atoms: C_25  and  N_50
REMARK                            x       y       z     vdW  Elec       q    Type
REMARK                         _______ _______ _______ _____ _____    ______ ____
ROOT
ATOM      1  C   UNL     1       1.244   1.962   0.001  0.00  0.00    +0.091 A 
ATOM      2  C   UNL     1       1.900   2.345   1.236  0.00  0.00    -0.025 A 
ATOM      3  C   UNL     1       3.056   3.031   1.088  0.00  0.00    -0.021 A 
ATOM      4  S   UNL     1       3.272   3.179  -0.661  0.00  0.00    -0.079 S 
ATOM      5  C   UNL     1       1.852   2.338  -1.191  0.00  0.00    +0.086 A 
ATOM      6  C   UNL     1       3.932   3.544   2.188  0.00  0.00    -0.035 C 
ATOM      7  C   UNL     1       2.538   2.177   3.622  0.00  0.00    -0.073 C 
ATOM      8  C   UNL     1       1.383   2.011   2.631  0.00  0.00    +0.018 C 
ATOM      9  N   UNL     1       3.147   3.512   3.446  0.00  0.00    +0.384 N 
ATOM     10  H   UNL     1       2.401   4.215   3.392  0.00  0.00    -0.081 HD
ENDROOT
BRANCH   5  11
ATOM     11  N   UNL     1       1.427   2.099  -2.487  0.00  0.00    -0.275 N 
ATOM     12  C   UNL     1       2.157   2.546  -3.529  0.00  0.00    +0.249 C 
ATOM     13  O   UNL     1       3.188   3.158  -3.330  0.00  0.00    -0.270 OA
ATOM     14  H   UNL     1       0.604   1.610  -2.645  0.00  0.00    +0.156 HD
BRANCH  12  15
ATOM     15  C   UNL     1       1.703   2.291  -4.912  0.00  0.00    +0.040 A 
ATOM     16  C   UNL     1       0.522   1.583  -5.143  0.00  0.00    +0.033 A 
ATOM     17  C   UNL     1       0.100   1.353  -6.438  0.00  0.00    +0.043 A 
ATOM     18  C   UNL     1       0.852   1.814  -7.505  0.00  0.00    +0.040 A 
ATOM     19  C   UNL     1       2.027   2.511  -7.283  0.00  0.00    +0.043 A 
ATOM     20  C   UNL     1       2.456   2.752  -5.993  0.00  0.00    +0.033 A 
ATOM     21 CL   UNL     1       2.963   3.084  -8.628  0.00  0.00    -0.083 Cl
ATOM     22 CL   UNL     1      -1.372   0.480  -6.727  0.00  0.00    -0.083 Cl
ENDBRANCH  12  15
ENDBRANCH   5  11
BRANCH   9  23
ATOM     23  C   UNL     1       4.022   3.825   4.596  0.00  0.00    -0.074 C 
ATOM     24  C   UNL     1       5.159   2.806   4.696  0.00  0.00    -0.014 C 
ATOM     25  C   UNL     1       4.608   5.226   4.408  0.00  0.00    -0.014 C 
ENDBRANCH   9  23
BRANCH   1  26
ATOM     26  C   UNL     1      -0.014   1.212   0.009  0.00  0.00    +0.342 C 
ATOM     27  O   UNL     1       0.002  -0.004   0.002  0.00  0.00    -0.245 OA
BRANCH  26  28
ATOM     28  O   UNL     1      -1.192   1.871   0.018  0.00  0.00    -0.461 OA
BRANCH  28  30
ATOM     29  C   UNL     1      -3.624   1.979   0.030  0.00  0.00    +0.048 C 
ATOM     30  C   UNL     1      -2.398   1.063   0.019  0.00  0.00    +0.229 C 
ENDBRANCH  28  30
ENDBRANCH  26  28
ENDBRANCH   1  26
TORSDOF 6
