REMARK  Name = ZINC42132989
REMARK  10 active torsions:
REMARK  status: ('A' for Active; 'I' for Inactive)
REMARK    1  A    between atoms: C_1  and  C_2
REMARK    2  A    between atoms: C_5  and  N_9
REMARK    3  A    between atoms: C_7  and  C_8
REMARK    4  A    between atoms: C_13  and  C_15
REMARK    5  A    between atoms: C_15  and  N_16
REMARK    6  A    between atoms: N_16  and  C_17
REMARK    7  A    between atoms: N_16  and  C_18
REMARK    8  A    between atoms: C_18  and  C_19
REMARK    9  A    between atoms: C_20  and  C_25
REMARK   10  A    between atoms: C_23  and  C_24
REMARK                            x       y       z     vdW  Elec       q    Type
REMARK                         _______ _______ _______ _____ _____    ______ ____
ROOT
ATOM      1  N   UNL     1       0.059  -4.170  -0.021  0.00  0.00    -0.269 N 
ATOM      2  C   UNL     1      -0.040  -4.839  -1.187  0.00  0.00    +0.310 C 
ATOM      3  O   UNL     1      -0.054  -4.229  -2.238  0.00  0.00    -0.252 OA
ATOM      4  N   UNL     1      -0.124  -6.184  -1.187  0.00  0.00    -0.241 N 
ATOM      5  C   UNL     1      -0.223  -6.853  -2.353  0.00  0.00    +0.204 C 
ATOM      6  O   UNL     1      -0.237  -6.244  -3.401  0.00  0.00    -0.277 OA
ATOM      7  H   UNL     1       0.147  -4.658   0.812  0.00  0.00    +0.156 HD
ATOM      8  H   UNL     1      -0.113  -6.671  -0.348  0.00  0.00    +0.159 HD
ENDROOT
BRANCH   1  13
ATOM      9  C   UNL     1      -0.045   1.502   0.014  0.00  0.00    +0.044 C 
ATOM     10  C   UNL     1      -0.017  -0.004   0.005  0.00  0.00    -0.047 A 
ATOM     11  C   UNL     1      -0.754  -0.702  -0.935  0.00  0.00    +0.005 A 
ATOM     12  C   UNL     1      -0.731  -2.083  -0.946  0.00  0.00    +0.023 A 
ATOM     13  C   UNL     1       0.033  -2.771  -0.013  0.00  0.00    +0.035 A 
ATOM     14  C   UNL     1       0.772  -2.067   0.929  0.00  0.00    +0.027 A 
ATOM     15  C   UNL     1       0.749  -0.686   0.932  0.00  0.00    -0.046 A 
ATOM     16  C   UNL     1       1.555   0.078   1.950  0.00  0.00    +0.044 C 
ENDBRANCH   1  13
BRANCH   5  17
ATOM     17  C   UNL     1      -0.317  -8.357  -2.353  0.00  0.00    +0.019 C 
BRANCH  17  18
ATOM     18  N   UNL     1      -0.415  -8.841  -3.737  0.00  0.00    +0.386 N 
ATOM     19  C   UNL     1      -1.674  -8.373  -4.331  0.00  0.00    -0.095 C 
ATOM     20  H   UNL     1       0.362  -8.486  -4.273  0.00  0.00    -0.081 HD
BRANCH  18  21
ATOM     21  C   UNL     1      -0.386 -10.310  -3.744  0.00  0.00    -0.037 C 
BRANCH  21  22
ATOM     22  C   UNL     1      -0.362 -10.804  -5.168  0.00  0.00    +0.001 A 
ATOM     23  C   UNL     1      -1.488 -11.092  -5.960  0.00  0.00    +0.082 A 
ATOM     24  N   UNL     1      -1.070 -11.492  -7.127  0.00  0.00    -0.083 NA
ATOM     25  O   UNL     1       0.346 -11.471  -7.113  0.00  0.00    -0.359 OA
ATOM     26  C   UNL     1       0.740 -11.042  -5.904  0.00  0.00    +0.136 A 
ATOM     27  C   UNL     1       2.165 -10.860  -5.450  0.00  0.00    +0.089 C 
ATOM     28  C   UNL     1      -2.928 -10.960  -5.534  0.00  0.00    +0.069 C 
ENDBRANCH  21  22
ENDBRANCH  18  21
ENDBRANCH  17  18
ENDBRANCH   5  17
TORSDOF 5
