REMARK  Name = ZINC61953564
REMARK  4 active torsions:
REMARK  status: ('A' for Active; 'I' for Inactive)
REMARK    1  A    between atoms: C_1  and  N_2
REMARK    2  A    between atoms: N_2  and  C_3
REMARK    3  A    between atoms: N_2  and  C_11
REMARK    4  A    between atoms: C_7  and  C_9
REMARK                            x       y       z     vdW  Elec       q    Type
REMARK                         _______ _______ _______ _____ _____    ______ ____
ROOT
ATOM      1  C   UNL     1       0.027  -0.738  -1.175  0.00  0.00    +0.035 A 
ATOM      2  C   UNL     1      -1.046  -1.570  -1.494  0.00  0.00    +0.024 A 
ATOM      3  C   UNL     1      -1.031  -2.296  -2.651  0.00  0.00    +0.015 A 
ATOM      4  C   UNL     1       0.063  -2.205  -3.517  0.00  0.00    +0.048 A 
ATOM      5  C   UNL     1       1.151  -1.369  -3.205  0.00  0.00    +0.047 A 
ATOM      6  C   UNL     1       1.120  -0.635  -2.032  0.00  0.00    +0.047 A 
ATOM      7  N   UNL     1       2.107  -1.451  -4.215  0.00  0.00    -0.278 N 
ATOM      8  C   UNL     1       1.720  -2.296  -5.187  0.00  0.00    +0.289 C 
ATOM      9  O   UNL     1       2.345  -2.568  -6.191  0.00  0.00    -0.266 OA
ATOM     10  C   UNL     1       0.377  -2.841  -4.805  0.00  0.00    +0.249 C 
ATOM     11  O   UNL     1      -0.303  -3.633  -5.424  0.00  0.00    -0.282 OA
ATOM     12  H   UNL     1       2.945  -0.961  -4.218  0.00  0.00    +0.155 HD
ENDROOT
BRANCH   1  14
ATOM     13  C   UNL     1      -0.580   1.341   0.015  0.00  0.00    +0.135 C 
ATOM     14  N   UNL     1       0.002  -0.004   0.002  0.00  0.00    -0.303 N 
BRANCH  14  15
ATOM     15  C   UNL     1       0.532  -0.547   1.175  0.00  0.00    +0.035 A 
ATOM     16  C   UNL     1       0.984  -1.862   1.190  0.00  0.00    +0.023 A 
ATOM     17  C   UNL     1       1.509  -2.404   2.348  0.00  0.00    +0.003 A 
ATOM     18  C   UNL     1       1.589  -1.644   3.497  0.00  0.00    +0.019 A 
ATOM     19  C   UNL     1       1.138  -0.322   3.493  0.00  0.00    +0.054 A 
ATOM     20  C   UNL     1       0.612   0.227   2.323  0.00  0.00    +0.042 A 
BRANCH  19  21
ATOM     21  C   UNL     1       1.219   0.469   4.684  0.00  0.00    +0.099 C 
ATOM     22  N   UNL     1       1.284   1.096   5.629  0.00  0.00    -0.191 NA
ENDBRANCH  19  21
ENDBRANCH  14  15
ENDBRANCH   1  14
TORSDOF 3
