REMARK  Name = ZINC65395318
REMARK  10 active torsions:
REMARK  status: ('A' for Active; 'I' for Inactive)
REMARK    1  A    between atoms: C_1  and  C_2
REMARK    2  A    between atoms: C_2  and  N_3
REMARK    3  A    between atoms: N_3  and  C_4
REMARK    4  A    between atoms: C_4  and  C_5
REMARK    5  A    between atoms: N_9  and  C_10
REMARK    6  A    between atoms: C_11  and  C_13
REMARK    7  A    between atoms: C_13  and  C_14
REMARK    8  A    between atoms: N_21  and  C_22
REMARK    9  A    between atoms: C_22  and  C_23
REMARK   10  A    between atoms: C_22  and  C_24
REMARK                            x       y       z     vdW  Elec       q    Type
REMARK                         _______ _______ _______ _____ _____    ______ ____
ROOT
ATOM      1  N   UNL     1       0.477  -0.369  -1.143  0.00  0.00    -0.295 N 
ATOM      2  C   UNL     1      -0.169  -0.658  -2.291  0.00  0.00    +0.215 C 
ATOM      3  O   UNL     1       0.436  -1.149  -3.220  0.00  0.00    -0.276 OA
ENDROOT
BRANCH   1   5
ATOM      4  C   UNL     1      -0.207   1.749  -0.131  0.00  0.00    +0.024 C 
ATOM      5  C   UNL     1      -0.253   0.224  -0.021  0.00  0.00    +0.105 C 
ENDBRANCH   1   5
BRANCH   1   6
ATOM      6  C   UNL     1       1.910  -0.648  -1.020  0.00  0.00    +0.180 C 
BRANCH   6   7
ATOM      7  C   UNL     1       2.106  -2.043  -0.484  0.00  0.00    +0.104 A 
ATOM      8  N   UNL     1       2.313  -3.112  -1.203  0.00  0.00    -0.348 N 
ATOM      9  C   UNL     1       2.442  -4.173  -0.392  0.00  0.00    +0.101 A 
ATOM     10  C   UNL     1       2.309  -3.744   0.878  0.00  0.00    +0.104 A 
ATOM     11  N   UNL     1       2.101  -2.393   0.821  0.00  0.00    -0.338 N 
ATOM     12  C   UNL     1       1.907  -1.494   1.961  0.00  0.00    +0.150 C 
ATOM     13  H   UNL     1       2.366  -3.136  -2.171  0.00  0.00    +0.166 HD
ENDBRANCH   6   7
ENDBRANCH   1   6
BRANCH   2  14
ATOM     14  C   UNL     1      -1.643  -0.371  -2.418  0.00  0.00    +0.090 C 
BRANCH  14  15
ATOM     15  C   UNL     1      -2.100  -0.673  -3.846  0.00  0.00    +0.028 C 
ATOM     16  C   UNL     1      -1.262   0.113  -4.814  0.00  0.00    +0.200 C 
ATOM     17  O   UNL     1      -0.994   1.266  -4.548  0.00  0.00    -0.278 OA
ATOM     18  N   UNL     1      -0.801  -0.406  -5.958  0.00  0.00    -0.318 N 
ATOM     19  C   UNL     1      -1.049  -1.791  -6.350  0.00  0.00    +0.085 C 
ATOM     20  C   UNL     1      -2.211  -2.362  -5.536  0.00  0.00    -0.058 C 
ATOM     21  N   UNL     1      -1.956  -2.111  -4.109  0.00  0.00    +0.390 N 
ATOM     22  H   UNL     1      -0.281   0.160  -6.550  0.00  0.00    +0.149 HD
ATOM     23  H   UNL     1      -1.019  -2.405  -3.875  0.00  0.00    -0.080 HD
BRANCH  21  24
ATOM     24  C   UNL     1      -2.926  -2.859  -3.299  0.00  0.00    -0.074 C 
ATOM     25  C   UNL     1      -4.345  -2.518  -3.760  0.00  0.00    -0.013 C 
ATOM     26  C   UNL     1      -2.682  -4.360  -3.468  0.00  0.00    -0.013 C 
ENDBRANCH  21  24
ENDBRANCH  14  15
ENDBRANCH   2  14
TORSDOF 6
