REMARK  Name = ZINC00929761
REMARK  10 active torsions:
REMARK  status: ('A' for Active; 'I' for Inactive)
REMARK    1  A    between atoms: C_1  and  C_2
REMARK    2  A    between atoms: C_5  and  O_29
REMARK    3  A    between atoms: C_6  and  N_8
REMARK    4  A    between atoms: C_9  and  C_11
REMARK    5  A    between atoms: C_11  and  S_12
REMARK    6  A    between atoms: S_12  and  C_13
REMARK    7  A    between atoms: C_19  and  C_28
REMARK    8  A    between atoms: C_21  and  C_27
REMARK    9  A    between atoms: C_25  and  C_26
REMARK   10  A    between atoms: O_29  and  C_30
REMARK                            x       y       z     vdW  Elec       q    Type
REMARK                         _______ _______ _______ _____ _____    ______ ____
ROOT
ATOM      1  C   UNL     1      -3.554   4.983   1.105  0.00  0.00    +0.197 A 
ATOM      2  N   UNL     1      -4.843   5.194   0.922  0.00  0.00    -0.122 NA
ATOM      3  N   UNL     1      -5.362   4.207   0.290  0.00  0.00    -0.128 NA
ATOM      4  C   UNL     1      -4.426   3.315   0.029  0.00  0.00    +0.165 A 
ATOM      5  N   UNL     1      -3.213   3.876   0.391  0.00  0.00    -0.270 N 
ATOM      6  C   UNL     1      -2.039   3.253   0.007  0.00  0.00    +0.061 A 
ATOM      7  C   UNL     1      -0.823   3.898  -0.127  0.00  0.00    -0.026 A 
ATOM      8  C   UNL     1       0.339   3.169  -0.309  0.00  0.00    +0.008 A 
ATOM      9  C   UNL     1       0.304   1.788  -0.407  0.00  0.00    -0.050 A 
ATOM     10  C   UNL     1      -0.907   1.133  -0.403  0.00  0.00    +0.013 A 
ATOM     11  C   UNL     1      -2.086   1.874  -0.298  0.00  0.00    -0.000 A 
ATOM     12  C   UNL     1      -3.381   1.246  -0.575  0.00  0.00    +0.017 A 
ATOM     13  C   UNL     1      -4.504   1.984  -0.443  0.00  0.00    -0.005 A 
ATOM     14  C   UNL     1      -5.843   1.391  -0.800  0.00  0.00    +0.047 C 
ATOM     15  C   UNL     1       1.585   1.004  -0.519  0.00  0.00    +0.044 C 
ATOM     16  C   UNL     1      -0.720   5.402  -0.161  0.00  0.00    +0.046 C 
ENDROOT
BRANCH   1  17
ATOM     17  S   UNL     1      -2.519   5.953   2.154  0.00  0.00    -0.076 S 
BRANCH  17  18
ATOM     18  C   UNL     1      -3.711   7.200   2.703  0.00  0.00    +0.173 C 
BRANCH  18  20
ATOM     19  N   UNL     1      -3.727   9.188   4.175  0.00  0.00    -0.282 N 
ATOM     20  C   UNL     1      -3.030   8.167   3.637  0.00  0.00    +0.228 C 
ATOM     21  O   UNL     1      -1.855   8.027   3.905  0.00  0.00    -0.275 OA
ATOM     22  H   UNL     1      -4.679   9.266   4.008  0.00  0.00    +0.155 HD
BRANCH  19  28
ATOM     23  C   UNL     1      -0.011  10.361   7.174  0.00  0.00    +0.044 C 
ATOM     24  C   UNL     1      -1.273  10.733   6.439  0.00  0.00    -0.048 A 
ATOM     25  C   UNL     1      -1.787  12.012   6.554  0.00  0.00    +0.007 A 
ATOM     26  C   UNL     1      -2.944  12.359   5.883  0.00  0.00    +0.048 A 
ATOM     27  C   UNL     1      -3.592  11.425   5.091  0.00  0.00    +0.141 A 
ATOM     28  C   UNL     1      -3.075  10.137   4.974  0.00  0.00    +0.076 A 
ATOM     29  C   UNL     1      -1.916   9.794   5.655  0.00  0.00    +0.030 A 
BRANCH  27  30
ATOM     30  O   UNL     1      -4.731  11.765   4.430  0.00  0.00    -0.493 OA
ATOM     31  C   UNL     1      -5.203  13.103   4.596  0.00  0.00    +0.277 C 
ENDBRANCH  27  30
ENDBRANCH  19  28
ENDBRANCH  18  20
ENDBRANCH  17  18
ENDBRANCH   1  17
TORSDOF 5
