REMARK  Name = ZINC21505161
REMARK  4 active torsions:
REMARK  status: ('A' for Active; 'I' for Inactive)
REMARK    1  A    between atoms: C_1  and  C_2
REMARK    2  A    between atoms: C_6  and  C_8
REMARK    3  A    between atoms: C_10  and  C_13
REMARK    4  A    between atoms: C_14  and  C_19
REMARK                            x       y       z     vdW  Elec       q    Type
REMARK                         _______ _______ _______ _____ _____    ______ ____
ROOT
ATOM      1  C   UNL     1      -0.070   5.328   0.037  0.00  0.00    +0.202 A 
ATOM      2  N   UNL     1      -1.168   6.111   0.052  0.00  0.00    -0.190 NA
ATOM      3  C   UNL     1      -0.714   7.356   0.051  0.00  0.00    +0.245 A 
ATOM      4  O   UNL     1       0.629   7.279   0.035  0.00  0.00    -0.336 OA
ATOM      5  N   UNL     1       0.975   6.117   0.032  0.00  0.00    -0.056 NA
ENDROOT
BRANCH   3   6
ATOM      6  C   UNL     1      -1.518   8.579   0.064  0.00  0.00    +0.167 C 
ATOM      7  C   UNL     1      -1.098   9.900   0.069  0.00  0.00    -0.048 C 
ATOM      8  C   UNL     1      -2.047  10.889   0.078  0.00  0.00    +0.034 C 
ATOM      9  C   UNL     1      -3.372  10.540   0.089  0.00  0.00    +0.089 C 
ATOM     10  S   UNL     1      -3.294   8.756   0.085  0.00  0.00    -0.089 S 
ATOM     11  N   UNL     1      -4.490  11.363   0.104  0.00  0.00    -0.293 NA
ATOM     12  C   UNL     1       0.370  10.242   0.064  0.00  0.00    +0.041 C 
ATOM     13  H   UNL     1      -5.497  10.922   0.111  0.00  0.00    +0.187 HD
ENDBRANCH   3   6
BRANCH   1  19
ATOM     14  C   UNL     1       2.490   1.041  -0.006  0.00  0.00    +0.044 C 
ATOM     15  C   UNL     1       1.177   1.781   0.012  0.00  0.00    -0.050 A 
ATOM     16  C   UNL     1      -0.013   1.076   0.024  0.00  0.00    +0.003 A 
ATOM     17  C   UNL     1      -1.221   1.748   0.034  0.00  0.00    +0.001 A 
ATOM     18  C   UNL     1      -1.245   3.128   0.045  0.00  0.00    +0.012 A 
ATOM     19  C   UNL     1      -0.050   3.844   0.033  0.00  0.00    +0.023 A 
ATOM     20  C   UNL     1       1.164   3.161   0.016  0.00  0.00    +0.015 A 
ENDBRANCH   1  19
TORSDOF 2
