REMARK  Name = ZINC56441901
REMARK  6 active torsions:
REMARK  status: ('A' for Active; 'I' for Inactive)
REMARK    1  A    between atoms: C_1  and  C_2
REMARK    2  A    between atoms: C_2  and  N_3
REMARK    3  A    between atoms: N_14  and  N_15
REMARK    4  A    between atoms: C_16  and  C_18
REMARK    5  A    between atoms: C_19  and  C_20
REMARK    6  A    between atoms: C_19  and  C_21
REMARK                            x       y       z     vdW  Elec       q    Type
REMARK                         _______ _______ _______ _____ _____    ______ ____
ROOT
ATOM      1  N   UNL     1       0.643  -2.381  -0.431  0.00  0.00    -0.280 N 
ATOM      2  C   UNL     1      -0.103  -2.798  -1.479  0.00  0.00    +0.263 A 
ATOM      3  O   UNL     1      -1.298  -2.998  -1.363  0.00  0.00    -0.267 OA
ATOM      4  C   UNL     1       0.582  -3.002  -2.763  0.00  0.00    +0.065 A 
ATOM      5  C   UNL     1      -0.099  -3.431  -3.902  0.00  0.00    +0.015 A 
ATOM      6  C   UNL     1       0.589  -3.604  -5.071  0.00  0.00    +0.001 A 
ATOM      7  C   UNL     1       1.954  -3.359  -5.136  0.00  0.00    +0.002 A 
ATOM      8  C   UNL     1       2.646  -2.938  -4.035  0.00  0.00    +0.028 A 
ATOM      9  C   UNL     1       1.972  -2.751  -2.824  0.00  0.00    +0.080 A 
ATOM     10  N   UNL     1       2.616  -2.335  -1.709  0.00  0.00    -0.214 NA
ATOM     11  C   UNL     1       1.981  -2.156  -0.578  0.00  0.00    +0.216 A 
ATOM     12  N   UNL     1       2.696  -1.727   0.512  0.00  0.00    -0.234 N 
ATOM     13  H   UNL     1       2.249  -1.590   1.362  0.00  0.00    +0.173 HD
ENDROOT
BRANCH  12  14
ATOM     14  N   UNL     1       4.071  -1.486   0.397  0.00  0.00    -0.231 N 
ATOM     15  C   UNL     1       4.773  -1.064   1.468  0.00  0.00    +0.253 C 
ATOM     16  O   UNL     1       4.212  -0.893   2.534  0.00  0.00    -0.269 OA
ATOM     17  H   UNL     1       4.518  -1.622  -0.453  0.00  0.00    +0.173 HD
BRANCH  15  18
ATOM     18  C   UNL     1       6.211  -0.813   1.348  0.00  0.00    +0.072 C 
ATOM     19  C   UNL     1       6.890  -0.278   2.382  0.00  0.00    -0.038 C 
ATOM     20  C   UNL     1       6.147   0.208   3.600  0.00  0.00    +0.044 C 
BRANCH  19  21
ATOM     21  C   UNL     1       8.356  -0.168   2.322  0.00  0.00    -0.022 A 
ATOM     22  C   UNL     1       9.146  -1.321   2.276  0.00  0.00    +0.008 A 
ATOM     23  C   UNL     1      10.519  -1.211   2.219  0.00  0.00    +0.001 A 
ATOM     24  C   UNL     1      11.117   0.038   2.208  0.00  0.00    +0.000 A 
ATOM     25  C   UNL     1      10.342   1.184   2.254  0.00  0.00    +0.001 A 
ATOM     26  C   UNL     1       8.967   1.090   2.305  0.00  0.00    +0.008 A 
ENDBRANCH  19  21
ENDBRANCH  15  18
ENDBRANCH  12  14
BRANCH   1  28
ATOM     27  C   UNL     1      -0.482  -0.716   0.963  0.00  0.00    +0.027 C 
ATOM     28  C   UNL     1       0.009  -2.162   0.871  0.00  0.00    +0.125 C 
ENDBRANCH   1  28
TORSDOF 4
