REMARK  Name = ZINC03374615
REMARK  10 active torsions:
REMARK  status: ('A' for Active; 'I' for Inactive)
REMARK    1  A    between atoms: C_1  and  C_2
REMARK    2  A    between atoms: C_5  and  C_36
REMARK    3  A    between atoms: C_6  and  S_8
REMARK    4  A    between atoms: S_8  and  O_11
REMARK    5  A    between atoms: O_11  and  C_12
REMARK    6  A    between atoms: C_15  and  C_20
REMARK    7  A    between atoms: C_17  and  O_18
REMARK    8  A    between atoms: O_18  and  C_19
REMARK    9  A    between atoms: N_21  and  N_22
REMARK   10  A    between atoms: C_23  and  C_25
REMARK                            x       y       z     vdW  Elec       q    Type
REMARK                         _______ _______ _______ _____ _____    ______ ____
ROOT
ATOM      1  C   UNL     1      -2.977  14.376   0.963  0.00  0.00    +0.198 A 
ATOM      2  C   UNL     1      -1.929  13.524   1.283  0.00  0.00    +0.053 A 
ATOM      3  C   UNL     1      -1.983  12.194   0.921  0.00  0.00    +0.013 A 
ATOM      4  C   UNL     1      -3.094  11.702   0.231  0.00  0.00    -0.002 A 
ATOM      5  C   UNL     1      -4.146  12.562  -0.095  0.00  0.00    +0.059 A 
ATOM      6  C   UNL     1      -4.088  13.892   0.276  0.00  0.00    +0.165 A 
ENDROOT
BRANCH   6   7
ATOM      7  O   UNL     1      -5.112  14.730  -0.035  0.00  0.00    -0.491 OA
ATOM      8  C   UNL     1      -6.220  14.167  -0.741  0.00  0.00    +0.277 C 
ENDBRANCH   6   7
BRANCH   4   9
ATOM      9  C   UNL     1      -3.153  10.281  -0.158  0.00  0.00    +0.138 C 
ATOM     10  N   UNL     1      -2.172   9.486   0.141  0.00  0.00    -0.188 NA
BRANCH  10  11
ATOM     11  N   UNL     1      -2.228   8.135  -0.228  0.00  0.00    -0.204 N 
ATOM     12  C   UNL     1      -1.209   7.309   0.082  0.00  0.00    +0.276 C 
ATOM     13  O   UNL     1      -0.244   7.734   0.682  0.00  0.00    -0.270 OA
ATOM     14  H   UNL     1      -3.000   7.795  -0.707  0.00  0.00    +0.177 HD
BRANCH  12  15
ATOM     15  C   UNL     1      -1.270   5.856  -0.315  0.00  0.00    +0.297 C 
ATOM     16  C   UNL     1      -2.417   5.163   0.432  0.00  0.00    +0.283 C 
ATOM     17  O   UNL     1      -2.437   3.785   0.043  0.00  0.00    -0.484 OA
ATOM     18  C   UNL     1      -1.241   3.136   0.031  0.00  0.00    +0.162 A 
ATOM     19  C   UNL     1      -1.219   1.749   0.017  0.00  0.00    +0.049 A 
ATOM     20  C   UNL     1      -0.013   1.076   0.008  0.00  0.00    +0.004 A 
ATOM     21  C   UNL     1       1.176   1.782   0.000  0.00  0.00    +0.004 A 
ATOM     22  C   UNL     1       1.161   3.164   0.009  0.00  0.00    +0.049 A 
ATOM     23  C   UNL     1      -0.046   3.846   0.026  0.00  0.00    +0.163 A 
ATOM     24  O   UNL     1      -0.045   5.207   0.043  0.00  0.00    -0.472 OA
ENDBRANCH  12  15
ENDBRANCH  10  11
ENDBRANCH   4   9
BRANCH   1  25
ATOM     25  O   UNL     1      -2.919  15.685   1.322  0.00  0.00    -0.339 OA
BRANCH  25  26
ATOM     26  S   UNL     1      -2.276  16.586   0.277  0.00  0.00    +0.151 S 
ATOM     27  O   UNL     1      -2.107  17.859   0.886  0.00  0.00    -0.131 OA
ATOM     28  O   UNL     1      -1.190  15.855  -0.276  0.00  0.00    -0.131 OA
BRANCH  26  34
ATOM     29  C   UNL     1      -4.411  15.132  -4.267  0.00  0.00    +0.044 C 
ATOM     30  C   UNL     1      -4.390  16.089  -3.103  0.00  0.00    -0.049 A 
ATOM     31  C   UNL     1      -5.292  17.136  -3.053  0.00  0.00    +0.004 A 
ATOM     32  C   UNL     1      -5.272  18.015  -1.986  0.00  0.00    +0.005 A 
ATOM     33  C   UNL     1      -4.351  17.846  -0.969  0.00  0.00    -0.022 A 
ATOM     34  C   UNL     1      -3.450  16.800  -1.019  0.00  0.00    +0.131 A 
ATOM     35  C   UNL     1      -3.466  15.924  -2.089  0.00  0.00    +0.034 A 
ATOM     36  C   UNL     1      -4.330  18.805   0.194  0.00  0.00    +0.046 C 
ENDBRANCH  26  34
ENDBRANCH  25  26
ENDBRANCH   1  25
TORSDOF 7
