REMARK  Name = ZINC50972143
REMARK  3 active torsions:
REMARK  status: ('A' for Active; 'I' for Inactive)
REMARK    1  A    between atoms: C_5  and  C_8
REMARK    2  A    between atoms: C_8  and  C_10
REMARK    3  A    between atoms: C_8  and  O_17
REMARK                            x       y       z     vdW  Elec       q    Type
REMARK                         _______ _______ _______ _____ _____    ______ ____
ROOT
ATOM      1  C   UNL     1       2.775  -1.914  -1.107  0.00  0.00    +0.169 C 
ENDROOT
BRANCH   1   6
ATOM      2  C   UNL     1      -0.018   1.514   0.010  0.00  0.00    +0.001 C 
ATOM      3  C   UNL     1       1.364   2.142   0.001  0.00  0.00    +0.004 C 
ATOM      4  C   UNL     1       2.081   1.854  -1.321  0.00  0.00    +0.027 C 
ATOM      5  C   UNL     1       2.770   0.510  -1.214  0.00  0.00    -0.025 C 
ATOM      6  C   UNL     1       2.076  -0.583  -1.213  0.00  0.00    -0.043 C 
ATOM      7  C   UNL     1       0.567  -0.531  -1.319  0.00  0.00    +0.033 C 
ATOM      8  C   UNL     1       0.002  -0.004   0.002  0.00  0.00    +0.004 C 
ENDBRANCH   1   6
BRANCH   1   9
ATOM      9  C   UNL     1       2.562  -2.706  -2.398  0.00  0.00    +0.151 C 
ATOM     10  C   UNL     1       3.272  -4.058  -2.291  0.00  0.00    +0.034 C 
ATOM     11  C   UNL     1       3.106  -4.820  -3.609  0.00  0.00    +0.005 C 
ATOM     12  C   UNL     1       3.656  -3.964  -4.754  0.00  0.00    +0.028 C 
ATOM     13  C   UNL     1       2.931  -2.616  -4.766  0.00  0.00    +0.160 C 
ATOM     14  O   UNL     1       3.100  -1.974  -3.501  0.00  0.00    -0.374 OA
ENDBRANCH   1   9
BRANCH   1  15
ATOM     15  O   UNL     1       2.237  -2.647  -0.004  0.00  0.00    -0.385 OA
ATOM     16  H   UNL     1       1.290  -2.827  -0.076  0.00  0.00    +0.210 HD
ENDBRANCH   1  15
TORSDOF 3
