REMARK  Name = ZINC63426764
REMARK  9 active torsions:
REMARK  status: ('A' for Active; 'I' for Inactive)
REMARK    1  A    between atoms: C_1  and  C_2
REMARK    2  A    between atoms: C_2  and  C_3
REMARK    3  A    between atoms: C_3  and  C_5
REMARK    4  A    between atoms: C_3  and  N_15
REMARK    5  A    between atoms: C_5  and  C_6
REMARK    6  A    between atoms: N_15  and  C_16
REMARK    7  A    between atoms: C_16  and  C_29
REMARK    8  A    between atoms: N_23  and  C_26
REMARK    9  A    between atoms: C_26  and  C_27
REMARK                            x       y       z     vdW  Elec       q    Type
REMARK                         _______ _______ _______ _____ _____    ______ ____
ROOT
ATOM      1  N   UNL     1       2.006  -0.156  -1.318  0.00  0.00    -0.343 N 
ATOM      2  H   UNL     1       2.582  -0.578  -0.662  0.00  0.00    +0.146 HD
ENDROOT
BRANCH   1   3
ATOM      3  C   UNL     1       2.530   0.674  -2.242  0.00  0.00    +0.018 C 
ATOM      4  C   UNL     1       3.867   1.020  -2.181  0.00  0.00    +0.116 C 
ATOM      5  C   UNL     1       4.437   2.049  -3.069  0.00  0.00    +0.258 C 
ATOM      6  O   UNL     1       3.741   2.625  -3.885  0.00  0.00    -0.270 OA
ATOM      7  N   UNL     1       5.750   2.335  -2.954  0.00  0.00    -0.235 N 
ATOM      8  C   UNL     1       6.527   1.708  -2.060  0.00  0.00    +0.316 C 
ATOM      9  O   UNL     1       7.703   2.012  -2.007  0.00  0.00    -0.252 OA
ATOM     10  N   UNL     1       6.077   0.764  -1.222  0.00  0.00    -0.218 N 
ATOM     11  C   UNL     1       4.784   0.380  -1.221  0.00  0.00    +0.261 C 
ATOM     12  O   UNL     1       4.386  -0.474  -0.452  0.00  0.00    -0.269 OA
ATOM     13  C   UNL     1       1.658   1.226  -3.341  0.00  0.00    +0.061 C 
ATOM     14  H   UNL     1       6.140   3.010  -3.531  0.00  0.00    +0.159 HD
BRANCH  10  15
ATOM     15  C   UNL     1       7.010   0.139  -0.281  0.00  0.00    +0.145 C 
BRANCH  15  16
ATOM     16  C   UNL     1       7.028   0.924   1.005  0.00  0.00    -0.015 C 
ATOM     17  C   UNL     1       6.784   0.322   2.143  0.00  0.00    +0.005 C 
ENDBRANCH  15  16
ENDBRANCH  10  15
ENDBRANCH   1   3
BRANCH   1  18
ATOM     18  C   UNL     1       0.565  -0.420  -1.304  0.00  0.00    +0.074 C 
BRANCH  18  20
ATOM     19  C   UNL     1       0.117   1.635   0.045  0.00  0.00    +0.006 C 
ATOM     20  C   UNL     1      -0.040   0.113  -0.004  0.00  0.00    +0.019 C 
ENDBRANCH  18  20
BRANCH  18  21
ATOM     21  C   UNL     1       0.322  -1.928  -1.399  0.00  0.00    +0.055 C 
BRANCH  21  22
ATOM     22  C   UNL     1       0.807  -2.432  -2.734  0.00  0.00    -0.040 C 
ATOM     23  C   UNL     1       2.014  -2.979  -3.006  0.00  0.00    -0.001 A 
ATOM     24  C   UNL     1       3.190  -3.258  -2.174  0.00  0.00    +0.010 A 
ATOM     25  C   UNL     1       4.277  -3.826  -2.744  0.00  0.00    +0.001 A 
ATOM     26  C   UNL     1       4.309  -4.154  -4.106  0.00  0.00    +0.002 A 
ATOM     27  C   UNL     1       3.267  -3.929  -4.935  0.00  0.00    +0.026 A 
ATOM     28  C   UNL     1       2.072  -3.336  -4.442  0.00  0.00    +0.043 A 
ATOM     29  N   UNL     1       0.945  -3.021  -5.034  0.00  0.00    -0.380 N 
ATOM     30  C   UNL     1       0.042  -2.434  -4.038  0.00  0.00    +0.144 C 
ATOM     31  H   UNL     1       0.741  -3.158  -5.972  0.00  0.00    +0.160 HD
ENDBRANCH  21  22
ENDBRANCH  18  21
ENDBRANCH   1  18
TORSDOF 7
