REMARK  Name = ZINC17329883
REMARK  6 active torsions:
REMARK  status: ('A' for Active; 'I' for Inactive)
REMARK    1  A    between atoms: C_3  and  C_10
REMARK    2  A    between atoms: C_5  and  N_7
REMARK    3  A    between atoms: N_12  and  N_13
REMARK    4  A    between atoms: C_14  and  C_16
REMARK    5  A    between atoms: C_18  and  C_26
REMARK    6  A    between atoms: C_20  and  C_22
REMARK                            x       y       z     vdW  Elec       q    Type
REMARK                         _______ _______ _______ _____ _____    ______ ____
ROOT
ATOM      1  N   UNL     1      -7.361   1.111   0.043  0.00  0.00    -0.230 N 
ATOM      2  C   UNL     1      -8.535   1.773   0.053  0.00  0.00    +0.260 C 
ATOM      3  O   UNL     1      -8.546   2.988   0.060  0.00  0.00    -0.269 OA
ATOM      4  H   UNL     1      -7.352   0.141   0.037  0.00  0.00    +0.173 HD
ENDROOT
BRANCH   2   5
ATOM      5  C   UNL     1      -9.808   1.021   0.054  0.00  0.00    +0.039 A 
ATOM      6  C   UNL     1      -9.798  -0.374   0.040  0.00  0.00    +0.025 A 
ATOM      7  C   UNL     1     -10.989  -1.070   0.047  0.00  0.00    +0.056 A 
ATOM      8  C   UNL     1     -12.192  -0.387   0.057  0.00  0.00    +0.024 A 
ATOM      9  C   UNL     1     -12.209   0.997   0.065  0.00  0.00    +0.056 A 
ATOM     10  C   UNL     1     -11.025   1.704   0.064  0.00  0.00    +0.025 A 
BRANCH   9  11
ATOM     11  C   UNL     1     -13.525   1.732   0.077  0.00  0.00    +0.417 C 
ATOM     12  F   UNL     1     -13.288   3.111   0.084  0.00  0.00    -0.166 F 
ATOM     13  F   UNL     1     -14.259   1.392  -1.064  0.00  0.00    -0.166 F 
ATOM     14  F   UNL     1     -14.248   1.377   1.220  0.00  0.00    -0.166 F 
ENDBRANCH   9  11
BRANCH   7  15
ATOM     15  C   UNL     1     -10.980  -2.577   0.038  0.00  0.00    +0.417 C 
ATOM     16  F   UNL     1     -10.984  -3.035  -1.284  0.00  0.00    -0.166 F 
ATOM     17  F   UNL     1      -9.832  -3.040   0.689  0.00  0.00    -0.166 F 
ATOM     18  F   UNL     1     -12.117  -3.054   0.700  0.00  0.00    -0.166 F 
ENDBRANCH   7  15
ENDBRANCH   2   5
BRANCH   1  21
ATOM     19  C   UNL     1      -4.981   1.160   0.032  0.00  0.00    +0.260 C 
ATOM     20  O   UNL     1      -4.969  -0.055   0.025  0.00  0.00    -0.269 OA
ATOM     21  N   UNL     1      -6.155   1.823   0.042  0.00  0.00    -0.230 N 
ATOM     22  H   UNL     1      -6.164   2.793   0.048  0.00  0.00    +0.173 HD
BRANCH  19  25
ATOM     23  C   UNL     1      -2.526   4.003   0.037  0.00  0.00    +0.003 A 
ATOM     24  C   UNL     1      -3.718   3.308   0.039  0.00  0.00    +0.013 A 
ATOM     25  C   UNL     1      -3.708   1.912   0.030  0.00  0.00    +0.040 A 
ATOM     26  C   UNL     1      -2.490   1.229   0.021  0.00  0.00    +0.045 A 
ATOM     27  C   UNL     1      -1.306   1.936   0.019  0.00  0.00    +0.127 A 
ATOM     28  C   UNL     1      -1.323   3.320   0.032  0.00  0.00    +0.033 A 
BRANCH  27  29
ATOM     29  N   UNL     1      -0.014   1.214   0.009  0.00  0.00    +0.056 N 
ATOM     30  O   UNL     1       0.002  -0.004   0.002  0.00  0.00    -0.126 OA
ATOM     31  O   UNL     1       1.032   1.837   0.002  0.00  0.00    -0.126 OA
ENDBRANCH  27  29
ENDBRANCH  19  25
ENDBRANCH   1  21
TORSDOF 6
