REMARK  Name = ZINC04121427
REMARK  8 active torsions:
REMARK  status: ('A' for Active; 'I' for Inactive)
REMARK    1  A    between atoms: C_1  and  C_2
REMARK    2  A    between atoms: C_7  and  C_8
REMARK    3  A    between atoms: N_12  and  N_13
REMARK    4  A    between atoms: C_14  and  C_16
REMARK    5  A    between atoms: C_19  and  S_22
REMARK    6  A    between atoms: S_22  and  N_25
REMARK    7  A    between atoms: N_25  and  C_26
REMARK    8  A    between atoms: N_25  and  C_27
REMARK                            x       y       z     vdW  Elec       q    Type
REMARK                         _______ _______ _______ _____ _____    ______ ____
ROOT
ATOM      1  N   UNL     1       2.333   4.249   0.002  0.00  0.00    -0.231 N 
ATOM      2  C   UNL     1       1.172   3.565   0.009  0.00  0.00    +0.260 C 
ATOM      3  O   UNL     1       0.114   4.164   0.022  0.00  0.00    -0.269 OA
ATOM      4  H   UNL     1       3.177   3.771  -0.008  0.00  0.00    +0.173 HD
ENDROOT
BRANCH   1  16
ATOM      5  C   UNL     1       6.916  11.439  -0.005  0.00  0.00    +0.044 C 
ATOM      6  C   UNL     1       6.589   9.968  -0.009  0.00  0.00    -0.045 A 
ATOM      7  C   UNL     1       7.624   9.044  -0.023  0.00  0.00    +0.005 A 
ATOM      8  C   UNL     1       7.325   7.693  -0.027  0.00  0.00    +0.017 A 
ATOM      9  C   UNL     1       6.014   7.289  -0.017  0.00  0.00    +0.041 A 
ATOM     10  C   UNL     1       4.935   8.201  -0.002  0.00  0.00    +0.083 A 
ATOM     11  C   UNL     1       5.277   9.573   0.001  0.00  0.00    -0.021 A 
ATOM     12  C   UNL     1       4.186  10.613   0.016  0.00  0.00    +0.046 C 
ATOM     13  N   UNL     1       3.701   7.649   0.006  0.00  0.00    -0.223 NA
ATOM     14  C   UNL     1       3.510   6.350   0.002  0.00  0.00    +0.176 A 
ATOM     15  S   UNL     1       5.183   5.719  -0.009  0.00  0.00    -0.051 S 
ATOM     16  N   UNL     1       2.321   5.650   0.009  0.00  0.00    -0.242 N 
ATOM     17  H   UNL     1       1.477   6.128   0.020  0.00  0.00    +0.172 HD
ENDBRANCH   1  16
BRANCH   2  18
ATOM     18  C   UNL     1       1.184   2.087   0.002  0.00  0.00    +0.038 A 
ATOM     19  C   UNL     1      -0.017   1.375   0.010  0.00  0.00    +0.015 A 
ATOM     20  C   UNL     1       0.002  -0.004   0.002  0.00  0.00    +0.029 A 
ATOM     21  C   UNL     1       1.208  -0.682  -0.013  0.00  0.00    +0.105 A 
ATOM     22  C   UNL     1       2.402   0.016  -0.020  0.00  0.00    +0.029 A 
ATOM     23  C   UNL     1       2.397   1.396  -0.013  0.00  0.00    +0.015 A 
BRANCH  21  24
ATOM     24  S   UNL     1       1.223  -2.445  -0.021  0.00  0.00    +0.060 S 
ATOM     25  O   UNL     1       2.477  -2.842   0.516  0.00  0.00    -0.153 OA
ATOM     26  O   UNL     1      -0.014  -2.864   0.540  0.00  0.00    -0.153 OA
BRANCH  24  27
ATOM     27  N   UNL     1       1.212  -2.927  -1.605  0.00  0.00    -0.183 NA
ATOM     28  C   UNL     1       2.476  -3.129  -2.318  0.00  0.00    +0.131 C 
ATOM     29  C   UNL     1      -0.062  -3.151  -2.294  0.00  0.00    +0.131 C 
ENDBRANCH  24  27
ENDBRANCH  21  24
ENDBRANCH   2  18
TORSDOF 4
