REMARK  Name = ZINC23353850
REMARK  6 active torsions:
REMARK  status: ('A' for Active; 'I' for Inactive)
REMARK    1  A    between atoms: C_1  and  N_2
REMARK    2  A    between atoms: C_5  and  C_7
REMARK    3  A    between atoms: C_16  and  N_20
REMARK    4  A    between atoms: N_20  and  C_21
REMARK    5  A    between atoms: C_21  and  C_22
REMARK    6  A    between atoms: C_22  and  N_27
REMARK                            x       y       z     vdW  Elec       q    Type
REMARK                         _______ _______ _______ _____ _____    ______ ____
ROOT
ATOM      1  C   UNL     1      -0.771   3.407   0.439  0.00  0.00    +0.172 C 
ATOM      2  N   UNL     1      -0.708   1.959   0.651  0.00  0.00    -0.270 N 
ATOM      3  C   UNL     1      -0.776   1.035  -0.321  0.00  0.00    +0.043 A 
ATOM      4  C   UNL     1      -0.684  -0.180   0.274  0.00  0.00    +0.004 A 
ATOM      5  C   UNL     1      -0.556   0.072   1.650  0.00  0.00    +0.151 A 
ATOM      6  N   UNL     1      -0.574   1.385   1.797  0.00  0.00    -0.166 NA
ATOM      7  C   UNL     1      -0.722  -1.494  -0.457  0.00  0.00    +0.023 C 
ATOM      8  C   UNL     1      -1.278  -1.245  -1.866  0.00  0.00    -0.067 C 
ATOM      9  C   UNL     1      -0.533  -0.073  -2.510  0.00  0.00    -0.009 C 
ATOM     10  C   UNL     1      -0.922   1.234  -1.808  0.00  0.00    +0.054 C 
ENDROOT
BRANCH   5  11
ATOM     11  C   UNL     1      -0.422  -0.935   2.722  0.00  0.00    +0.267 C 
ATOM     12  O   UNL     1      -0.307  -2.112   2.440  0.00  0.00    -0.268 OA
ATOM     13  N   UNL     1      -0.426  -0.549   4.013  0.00  0.00    -0.296 N 
ATOM     14  C   UNL     1      -0.719   0.845   4.377  0.00  0.00    +0.108 C 
ATOM     15  C   UNL     1      -1.855   0.858   5.404  0.00  0.00    +0.019 C 
ATOM     16  C   UNL     1      -1.478  -0.034   6.588  0.00  0.00    +0.003 C 
ATOM     17  C   UNL     1      -1.282  -1.473   6.104  0.00  0.00    +0.019 C 
ATOM     18  C   UNL     1      -0.145  -1.514   5.085  0.00  0.00    +0.108 C 
ENDBRANCH   5  11
BRANCH   8  19
ATOM     19  N   UNL     1      -1.093  -2.451  -2.685  0.00  0.00    +0.382 N 
ATOM     20  H   UNL     1      -0.107  -2.623  -2.813  0.00  0.00    -0.085 HD
ATOM     21  H   UNL     1      -1.515  -3.241  -2.220  0.00  0.00    -0.085 HD
BRANCH  19  22
ATOM     22  C   UNL     1      -1.731  -2.256  -3.994  0.00  0.00    -0.060 C 
BRANCH  22  23
ATOM     23  C   UNL     1      -1.696  -3.569  -4.779  0.00  0.00    +0.007 C 
ATOM     24  C   UNL     1      -0.243  -3.918  -5.162  0.00  0.00    +0.020 C 
ATOM     25  C   UNL     1      -0.362  -4.538  -6.577  0.00  0.00    +0.002 C 
ATOM     26  C   UNL     1      -1.467  -3.677  -7.236  0.00  0.00    +0.002 C 
ATOM     27  C   UNL     1      -2.474  -3.416  -6.097  0.00  0.00    +0.020 C 
BRANCH  23  28
ATOM     28  N   UNL     1      -2.279  -4.651  -3.974  0.00  0.00    -0.294 NA
ATOM     29  C   UNL     1      -2.265  -5.923  -4.712  0.00  0.00    +0.113 C 
ATOM     30  C   UNL     1      -2.824  -7.032  -3.817  0.00  0.00    +0.175 C 
ATOM     31  O   UNL     1      -4.138  -6.671  -3.383  0.00  0.00    -0.377 OA
ATOM     32  C   UNL     1      -4.188  -5.438  -2.660  0.00  0.00    +0.175 C 
ATOM     33  C   UNL     1      -3.643  -4.313  -3.544  0.00  0.00    +0.113 C 
ENDBRANCH  23  28
ENDBRANCH  22  23
ENDBRANCH  19  22
ENDBRANCH   8  19
TORSDOF 5
