REMARK  Name = ZINC67511785
REMARK  8 active torsions:
REMARK  status: ('A' for Active; 'I' for Inactive)
REMARK    1  A    between atoms: C_1  and  C_2
REMARK    2  A    between atoms: C_2  and  C_3
REMARK    3  A    between atoms: C_2  and  C_4
REMARK    4  A    between atoms: C_4  and  C_5
REMARK    5  A    between atoms: C_5  and  C_7
REMARK    6  A    between atoms: C_5  and  N_21
REMARK    7  A    between atoms: N_9  and  C_10
REMARK    8  A    between atoms: C_13  and  C_15
REMARK                            x       y       z     vdW  Elec       q    Type
REMARK                         _______ _______ _______ _____ _____    ______ ____
ROOT
ATOM      1  C   UNL     1      -2.135  -0.131  -1.286  0.00  0.00    +0.170 C 
ENDROOT
BRANCH   1   2
ATOM      2  N   UNL     1      -1.486  -0.796  -2.418  0.00  0.00    -0.230 N 
ATOM      3  C   UNL     1      -1.411  -2.135  -2.541  0.00  0.00    +0.227 C 
ATOM      4  O   UNL     1      -2.018  -2.952  -1.881  0.00  0.00    -0.275 OA
ATOM      5  C   UNL     1      -0.415  -2.434  -3.673  0.00  0.00    +0.091 C 
ATOM      6  C   UNL     1       0.952  -2.494  -2.986  0.00  0.00    +0.040 C 
ATOM      7  C   UNL     1       2.061  -1.968  -3.830  0.00  0.00    -0.030 C 
ATOM      8  C   UNL     1       1.905  -1.219  -4.870  0.00  0.00    -0.030 C 
ATOM      9  C   UNL     1       0.565  -0.815  -5.399  0.00  0.00    +0.040 C 
ATOM     10  C   UNL     1      -0.582  -1.142  -4.489  0.00  0.00    +0.091 C 
ATOM     11  C   UNL     1      -0.911  -0.121  -3.439  0.00  0.00    +0.227 C 
ATOM     12  O   UNL     1      -0.700   1.072  -3.494  0.00  0.00    -0.275 OA
ENDBRANCH   1   2
BRANCH   1  13
ATOM     13  C   UNL     1      -3.583  -0.545  -1.223  0.00  0.00    +0.234 C 
ATOM     14  O   UNL     1      -4.028  -1.319  -2.044  0.00  0.00    -0.274 OA
ATOM     15  N   UNL     1      -4.383  -0.056  -0.256  0.00  0.00    -0.310 N 
ATOM     16  H   UNL     1      -4.027   0.564   0.401  0.00  0.00    +0.149 HD
BRANCH  15  17
ATOM     17  C   UNL     1      -5.790  -0.458  -0.195  0.00  0.00    +0.081 C 
ATOM     18  C   UNL     1      -6.367  -0.806   1.179  0.00  0.00    +0.033 C 
ATOM     19  C   UNL     1      -6.770   0.499   0.487  0.00  0.00    +0.041 C 
BRANCH  19  20
ATOM     20  C   UNL     1      -8.165   0.585  -0.077  0.00  0.00    -0.042 A 
ATOM     21  C   UNL     1      -8.966  -0.541  -0.114  0.00  0.00    +0.004 A 
ATOM     22  C   UNL     1     -10.246  -0.461  -0.631  0.00  0.00    +0.000 A 
ATOM     23  C   UNL     1     -10.724   0.744  -1.111  0.00  0.00    +0.000 A 
ATOM     24  C   UNL     1      -9.923   1.870  -1.072  0.00  0.00    +0.000 A 
ATOM     25  C   UNL     1      -8.645   1.791  -0.551  0.00  0.00    +0.004 A 
ENDBRANCH  19  20
ENDBRANCH  15  17
ENDBRANCH   1  13
BRANCH   1  26
ATOM     26  C   UNL     1      -1.433  -0.534   0.013  0.00  0.00    +0.035 C 
BRANCH  26  28
ATOM     27  C   UNL     1      -0.019   1.526   0.010  0.00  0.00    +0.007 C 
ATOM     28  C   UNL     1       0.002  -0.004   0.002  0.00  0.00    -0.015 C 
ATOM     29  C   UNL     1       0.742  -0.511   1.242  0.00  0.00    +0.007 C 
ENDBRANCH  26  28
ENDBRANCH   1  26
TORSDOF 6
