REMARK  Name = ZINC21221212
REMARK  12 active torsions:
REMARK  status: ('A' for Active; 'I' for Inactive)
REMARK    1  A    between atoms: C_1  and  C_2
REMARK    2  A    between atoms: C_2  and  O_3
REMARK    3  A    between atoms: O_3  and  C_4
REMARK    4  A    between atoms: C_6  and  C_14
REMARK    5  A    between atoms: C_9  and  O_10
REMARK    6  A    between atoms: O_10  and  C_11
REMARK    7  A    between atoms: C_11  and  C_12
REMARK    8  A    between atoms: C_11  and  C_13
REMARK    9  A    between atoms: C_19  and  C_24
REMARK   10  A    between atoms: C_27  and  N_30
REMARK   11  A    between atoms: N_30  and  C_31
REMARK   12  A    between atoms: N_30  and  C_32
REMARK                            x       y       z     vdW  Elec       q    Type
REMARK                         _______ _______ _______ _____ _____    ______ ____
ROOT
ATOM      1  C   UNL     1      -2.713   2.390   2.706  0.00  0.00    +0.136 C 
ATOM      2  C   UNL     1      -2.013   1.815   1.498  0.00  0.00    +0.036 C 
ATOM      3  C   UNL     1      -2.560   1.628   0.284  0.00  0.00    +0.017 C 
ATOM      4  C   UNL     1      -1.739   1.032  -0.847  0.00  0.00    +0.059 C 
ATOM      5  C   UNL     1      -0.276   1.447  -0.704  0.00  0.00    +0.032 C 
ATOM      6  C   UNL     1       0.226   0.927   0.649  0.00  0.00    +0.088 C 
ATOM      7  C   UNL     1      -0.656   1.474   1.731  0.00  0.00    +0.163 C 
ATOM      8  O   UNL     1      -0.190   1.631   2.843  0.00  0.00    -0.292 OA
ATOM      9  N   UNL     1      -3.845   1.924  -0.039  0.00  0.00    -0.316 N 
ATOM     10  C   UNL     1      -4.492   3.112   0.282  0.00  0.00    +0.052 A 
ATOM     11  C   UNL     1      -4.971   3.978  -0.685  0.00  0.00    +0.025 A 
ATOM     12  C   UNL     1      -5.707   5.086  -0.300  0.00  0.00    +0.002 A 
ATOM     13  C   UNL     1      -5.959   5.324   1.039  0.00  0.00    +0.002 A 
ATOM     14  C   UNL     1      -5.462   4.471   2.009  0.00  0.00    +0.025 A 
ATOM     15  C   UNL     1      -4.710   3.372   1.627  0.00  0.00    +0.049 A 
ATOM     16  N   UNL     1      -4.149   2.510   2.568  0.00  0.00    -0.331 N 
ATOM     17  H   UNL     1      -4.453   1.197  -0.597  0.00  0.00    +0.152 HD
ATOM     18  H   UNL     1      -4.814   1.917   3.212  0.00  0.00    +0.147 HD
ENDROOT
BRANCH   1  21
ATOM     19  C   UNL     1      -0.937   5.253   4.414  0.00  0.00    +0.162 A 
ATOM     20  C   UNL     1      -1.461   3.996   4.160  0.00  0.00    +0.055 A 
ATOM     21  C   UNL     1      -2.143   3.757   2.981  0.00  0.00    -0.019 A 
ATOM     22  C   UNL     1      -2.298   4.769   2.051  0.00  0.00    +0.009 A 
ATOM     23  C   UNL     1      -1.783   6.027   2.302  0.00  0.00    +0.050 A 
ATOM     24  C   UNL     1      -1.098   6.273   3.481  0.00  0.00    +0.162 A 
BRANCH  19  25
ATOM     25  O   UNL     1      -0.267   5.490   5.574  0.00  0.00    -0.489 OA
BRANCH  25  27
ATOM     26  C   UNL     1       0.638   4.850   7.721  0.00  0.00    +0.048 C 
ATOM     27  C   UNL     1      -0.140   4.396   6.485  0.00  0.00    +0.226 C 
ENDBRANCH  25  27
ENDBRANCH  19  25
BRANCH  24  28
ATOM     28  O   UNL     1      -0.586   7.508   3.727  0.00  0.00    -0.486 OA
BRANCH  28  29
ATOM     29  C   UNL     1      -0.893   8.537   2.784  0.00  0.00    +0.167 C 
ATOM     30  C   UNL     1      -0.803   9.902   3.471  0.00  0.00    +0.051 C 
ATOM     31  C   UNL     1       0.105   8.483   1.626  0.00  0.00    +0.051 C 
ENDBRANCH  28  29
ENDBRANCH  24  28
ENDBRANCH   1  21
BRANCH   5  32
ATOM     32  C   UNL     1       0.539   0.842  -1.818  0.00  0.00    -0.043 A 
ATOM     33  C   UNL     1       0.575  -0.531  -1.979  0.00  0.00    +0.006 A 
ATOM     34  C   UNL     1       1.317  -1.088  -3.002  0.00  0.00    +0.023 A 
ATOM     35  C   UNL     1       2.036  -0.269  -3.863  0.00  0.00    +0.029 A 
ATOM     36  C   UNL     1       2.002   1.110  -3.694  0.00  0.00    +0.023 A 
ATOM     37  C   UNL     1       1.254   1.661  -2.673  0.00  0.00    +0.006 A 
BRANCH  35  38
ATOM     38  N   UNL     1       2.791  -0.829  -4.895  0.00  0.00    -0.336 N 
ATOM     39  C   UNL     1       3.444   0.038  -5.880  0.00  0.00    +0.129 C 
ATOM     40  C   UNL     1       2.931  -2.284  -4.994  0.00  0.00    +0.129 C 
ENDBRANCH  35  38
ENDBRANCH   5  32
TORSDOF 7
