REMARK  Name = ZINC12833768
REMARK  8 active torsions:
REMARK  status: ('A' for Active; 'I' for Inactive)
REMARK    1  A    between atoms: C_1  and  C_2
REMARK    2  A    between atoms: C_3  and  C_30
REMARK    3  A    between atoms: C_8  and  C_10
REMARK    4  A    between atoms: C_10  and  S_11
REMARK    5  A    between atoms: S_11  and  C_12
REMARK    6  A    between atoms: C_25  and  C_29
REMARK    7  A    between atoms: C_30  and  O_32
REMARK    8  A    between atoms: O_32  and  C_33
REMARK                            x       y       z     vdW  Elec       q    Type
REMARK                         _______ _______ _______ _____ _____    ______ ____
ROOT
ATOM      1  C   UNL     1       2.378   6.933   0.017  0.00  0.00    +0.198 A 
ATOM      2  N   UNL     1       3.429   6.146   0.003  0.00  0.00    -0.122 NA
ATOM      3  N   UNL     1       3.062   4.911  -0.000  0.00  0.00    -0.128 NA
ATOM      4  C   UNL     1       1.753   4.841   0.011  0.00  0.00    +0.173 A 
ATOM      5  N   UNL     1       1.270   6.131   0.022  0.00  0.00    -0.260 N 
ATOM      6  C   UNL     1      -0.073   6.368   0.035  0.00  0.00    +0.208 A 
ATOM      7  N   UNL     1      -0.935   5.391   0.037  0.00  0.00    -0.230 NA
ATOM      8  C   UNL     1      -0.564   4.114   0.028  0.00  0.00    +0.114 A 
ATOM      9  C   UNL     1       0.783   3.724   0.014  0.00  0.00    +0.056 A 
ATOM     10  C   UNL     1       1.044   2.331   0.005  0.00  0.00    -0.024 A 
ATOM     11  C   UNL     1      -0.018   1.493   0.010  0.00  0.00    -0.004 A 
ATOM     12  S   UNL     1      -1.431   2.564   0.022  0.00  0.00    -0.073 S 
ATOM     13  C   UNL     1       0.002  -0.004   0.002  0.00  0.00    +0.046 C 
ATOM     14  C   UNL     1       1.414  -0.467  -0.385  0.00  0.00    -0.009 C 
ATOM     15  C   UNL     1       2.433   0.318   0.447  0.00  0.00    +0.008 C 
ATOM     16  C   UNL     1       2.467   1.776  -0.011  0.00  0.00    +0.037 C 
ATOM     17  C   UNL     1       1.560  -1.963  -0.102  0.00  0.00    +0.008 C 
ENDROOT
BRANCH   1  18
ATOM     18  S   UNL     1       2.392   8.695   0.026  0.00  0.00    -0.076 S 
BRANCH  18  19
ATOM     19  C   UNL     1       4.156   9.120   0.013  0.00  0.00    +0.173 C 
BRANCH  19  27
ATOM     20  C   UNL     1       8.046  15.373   0.012  0.00  0.00    +0.067 C 
ATOM     21  C   UNL     1       6.772  14.568   0.019  0.00  0.00    +0.062 A 
ATOM     22  C   UNL     1       5.530  15.189   0.034  0.00  0.00    +0.120 A 
ATOM     23  S   UNL     1       4.451  13.765   0.036  0.00  0.00    -0.045 S 
ATOM     24  C   UNL     1       5.686  12.544   0.018  0.00  0.00    +0.165 A 
ATOM     25  N   UNL     1       6.799  13.261   0.018  0.00  0.00    -0.229 NA
ATOM     26  N   UNL     1       5.542  11.168   0.012  0.00  0.00    -0.264 N 
ATOM     27  C   UNL     1       4.312  10.618   0.020  0.00  0.00    +0.229 C 
ATOM     28  O   UNL     1       3.330  11.330   0.032  0.00  0.00    -0.275 OA
ATOM     29  H   UNL     1       6.328  10.599   0.002  0.00  0.00    +0.157 HD
BRANCH  22  30
ATOM     30  C   UNL     1       5.198  16.612   0.045  0.00  0.00    +0.347 C 
ATOM     31  O   UNL     1       6.086  17.444   0.042  0.00  0.00    -0.244 OA
BRANCH  30  32
ATOM     32  O   UNL     1       3.907  17.004   0.058  0.00  0.00    -0.464 OA
ATOM     33  C   UNL     1       3.656  18.411   0.068  0.00  0.00    +0.280 C 
ENDBRANCH  30  32
ENDBRANCH  22  30
ENDBRANCH  19  27
ENDBRANCH  18  19
ENDBRANCH   1  18
TORSDOF 5
