REMARK  Name = ZINC12709882
REMARK  7 active torsions:
REMARK  status: ('A' for Active; 'I' for Inactive)
REMARK    1  A    between atoms: C_3  and  N_8
REMARK    2  A    between atoms: N_11  and  C_12
REMARK    3  A    between atoms: N_11  and  C_16
REMARK    4  A    between atoms: C_12  and  C_13
REMARK    5  A    between atoms: C_13  and  C_14
REMARK    6  A    between atoms: C_14  and  O_15
REMARK    7  A    between atoms: C_16  and  C_17
REMARK                            x       y       z     vdW  Elec       q    Type
REMARK                         _______ _______ _______ _____ _____    ______ ____
ROOT
ATOM      1  N   UNL     1      -2.428   1.040   0.019  0.00  0.00    -0.269 N 
ATOM      2  C   UNL     1      -3.600   1.695   0.130  0.00  0.00    +0.307 C 
ATOM      3  O   UNL     1      -3.619   2.911   0.137  0.00  0.00    -0.252 OA
ATOM      4  N   UNL     1      -4.752   1.003   0.233  0.00  0.00    -0.281 N 
ATOM      5  H   UNL     1      -2.418   0.073  -0.064  0.00  0.00    +0.156 HD
ENDROOT
BRANCH   1   8
ATOM      6  C   UNL     1       0.086   3.612   0.787  0.00  0.00    +0.003 A 
ATOM      7  C   UNL     1      -1.105   2.912   0.780  0.00  0.00    +0.023 A 
ATOM      8  C   UNL     1      -1.224   1.754   0.024  0.00  0.00    +0.036 A 
ATOM      9  C   UNL     1      -0.148   1.307  -0.732  0.00  0.00    +0.043 A 
ATOM     10  C   UNL     1       1.042   2.012  -0.721  0.00  0.00    +0.043 A 
ATOM     11  C   UNL     1       1.158   3.163   0.038  0.00  0.00    +0.020 A 
ATOM     12 CL   UNL     1       2.391   1.451  -1.659  0.00  0.00    -0.083 Cl
ENDBRANCH   1   8
BRANCH   4  13
ATOM     13  C   UNL     1      -4.729  -0.462   0.225  0.00  0.00    +0.112 C 
BRANCH  13  14
ATOM     14  C   UNL     1      -4.589  -0.978   1.658  0.00  0.00    +0.047 C 
BRANCH  14  15
ATOM     15  C   UNL     1      -4.566  -2.508   1.650  0.00  0.00    +0.157 C 
BRANCH  15  16
ATOM     16  O   UNL     1      -4.435  -2.990   2.988  0.00  0.00    -0.395 OA
ATOM     17  H   UNL     1      -4.413  -3.954   3.059  0.00  0.00    +0.209 HD
ENDBRANCH  15  16
ENDBRANCH  14  15
ENDBRANCH  13  14
ENDBRANCH   4  13
BRANCH   4  18
ATOM     18  C   UNL     1      -6.026   1.715   0.354  0.00  0.00    +0.150 C 
BRANCH  18  19
ATOM     19  C   UNL     1      -6.594   1.966  -1.020  0.00  0.00    +0.035 A 
ATOM     20  C   UNL     1      -7.493   1.097  -1.548  0.00  0.00    +0.020 A 
ATOM     21  C   UNL     1      -8.029   1.371  -2.881  0.00  0.00    +0.003 A 
ATOM     22  C   UNL     1      -8.963   0.512  -3.475  0.00  0.00    +0.059 A 
ATOM     23  C   UNL     1      -9.447   0.793  -4.735  0.00  0.00    +0.163 A 
ATOM     24  C   UNL     1      -9.010   1.931  -5.420  0.00  0.00    +0.164 A 
ATOM     25  C   UNL     1      -8.087   2.785  -4.841  0.00  0.00    +0.075 A 
ATOM     26  C   UNL     1      -7.588   2.515  -3.573  0.00  0.00    +0.053 A 
ATOM     27  N   UNL     1      -6.667   3.355  -2.981  0.00  0.00    -0.322 N 
ATOM     28  H   UNL     1      -6.363   4.144  -3.458  0.00  0.00    +0.169 HD
ATOM     29  C   UNL     1      -6.184   3.097  -1.753  0.00  0.00    +0.254 A 
ATOM     30  O   UNL     1      -5.371   3.861  -1.262  0.00  0.00    -0.268 OA
ATOM     31  O   UNL     1      -9.486   2.217  -6.661  0.00  0.00    -0.485 OA
ATOM     32  C   UNL     1     -10.125   1.149  -7.369  0.00  0.00    +0.270 C 
ATOM     33  C   UNL     1     -11.101   0.453  -6.410  0.00  0.00    +0.270 C 
ATOM     34  O   UNL     1     -10.353  -0.053  -5.300  0.00  0.00    -0.485 OA
ENDBRANCH  18  19
ENDBRANCH   4  18
TORSDOF 7
