REMARK  Name = ZINC05958661
REMARK  7 active torsions:
REMARK  status: ('A' for Active; 'I' for Inactive)
REMARK    1  A    between atoms: C_6  and  C_7
REMARK    2  A    between atoms: C_8  and  C_9
REMARK    3  A    between atoms: C_9  and  O_11
REMARK    4  A    between atoms: O_11  and  C_12
REMARK    5  A    between atoms: C_12  and  C_13
REMARK    6  A    between atoms: N_15  and  C_16
REMARK    7  A    between atoms: C_17  and  C_21
REMARK                            x       y       z     vdW  Elec       q    Type
REMARK                         _______ _______ _______ _____ _____    ______ ____
ROOT
ATOM      1  O   UNL     1       1.145   1.903   0.001  0.00  0.00    -0.452 OA
ENDROOT
BRANCH   1   2
ATOM      2  C   UNL     1      -0.014   1.212   0.009  0.00  0.00    +0.332 C 
ATOM      3  O   UNL     1       0.002  -0.004   0.002  0.00  0.00    -0.246 OA
BRANCH   2   5
ATOM      4  C   UNL     1      -2.450   1.235   0.020  0.00  0.00    +0.015 C 
ATOM      5  C   UNL     1      -1.290   1.926   0.019  0.00  0.00    +0.092 C 
BRANCH   4  11
ATOM      6  C   UNL     1      -3.757   3.352   0.044  0.00  0.00    +0.009 A 
ATOM      7  C   UNL     1      -4.963   4.018   0.048  0.00  0.00    +0.016 A 
ATOM      8  C   UNL     1      -6.152   3.306   0.050  0.00  0.00    +0.018 A 
ATOM      9  C   UNL     1      -6.137   1.921   0.042  0.00  0.00    +0.016 A 
ATOM     10  C   UNL     1      -4.938   1.241   0.032  0.00  0.00    +0.009 A 
ATOM     11  C   UNL     1      -3.734   1.954   0.030  0.00  0.00    -0.025 A 
ATOM     12 BR   UNL     1      -7.802   4.229   0.064  0.00  0.00    -0.050 Br
ENDBRANCH   4  11
ENDBRANCH   2   5
ENDBRANCH   1   2
BRANCH   1  13
ATOM     13  C   UNL     1       2.353   1.141  -0.014  0.00  0.00    +0.328 C 
BRANCH  13  14
ATOM     14  C   UNL     1       3.536   2.075  -0.021  0.00  0.00    +0.255 C 
ATOM     15  O   UNL     1       3.361   3.275  -0.012  0.00  0.00    -0.272 OA
ATOM     16  N   UNL     1       4.788   1.577  -0.035  0.00  0.00    -0.276 N 
ATOM     17  H   UNL     1       4.928   0.617  -0.042  0.00  0.00    +0.155 HD
BRANCH  16  18
ATOM     18  C   UNL     1       5.877   2.437  -0.041  0.00  0.00    +0.089 A 
ATOM     19  C   UNL     1       7.229   2.118  -0.050  0.00  0.00    +0.080 A 
ATOM     20  C   UNL     1       8.158   3.222  -0.057  0.00  0.00    +0.028 A 
ATOM     21  C   UNL     1       7.636   4.463  -0.046  0.00  0.00    +0.048 A 
ATOM     22  S   UNL     1       5.880   4.169  -0.031  0.00  0.00    -0.081 S 
BRANCH  19  23
ATOM     23  C   UNL     1       7.679   0.758  -0.055  0.00  0.00    +0.102 C 
ATOM     24  N   UNL     1       8.036  -0.320  -0.059  0.00  0.00    -0.191 NA
ENDBRANCH  19  23
ENDBRANCH  16  18
ENDBRANCH  13  14
ENDBRANCH   1  13
TORSDOF 7
