REMARK  Name = ZINC58939795
REMARK  5 active torsions:
REMARK  status: ('A' for Active; 'I' for Inactive)
REMARK    1  A    between atoms: C_6  and  C_7
REMARK    2  A    between atoms: C_7  and  O_9
REMARK    3  A    between atoms: O_9  and  C_10
REMARK    4  A    between atoms: C_10  and  C_11
REMARK    5  A    between atoms: N_13  and  C_14
REMARK                            x       y       z     vdW  Elec       q    Type
REMARK                         _______ _______ _______ _____ _____    ______ ____
ROOT
ATOM      1  C   UNL     1      -1.795  -4.497   0.001  0.00  0.00    +0.255 C 
ATOM      2  O   UNL     1      -0.624  -4.815  -0.016  0.00  0.00    -0.272 OA
ATOM      3  N   UNL     1      -2.751  -5.447   0.000  0.00  0.00    -0.282 N 
ATOM      4  H   UNL     1      -3.684  -5.196   0.080  0.00  0.00    +0.155 HD
ENDROOT
BRANCH   3   5
ATOM      5  C   UNL     1      -2.397  -6.798  -0.116  0.00  0.00    +0.051 A 
ATOM      6  C   UNL     1      -1.222  -7.260   0.461  0.00  0.00    +0.073 A 
ATOM      7  C   UNL     1      -0.872  -8.596   0.346  0.00  0.00    +0.164 A 
ATOM      8  C   UNL     1      -1.700  -9.473  -0.346  0.00  0.00    +0.163 A 
ATOM      9  C   UNL     1      -2.872  -9.008  -0.923  0.00  0.00    +0.066 A 
ATOM     10  C   UNL     1      -3.223  -7.676  -0.805  0.00  0.00    +0.043 A 
ATOM     11 BR   UNL     1      -4.827  -7.049  -1.587  0.00  0.00    -0.048 Br
ATOM     12  O   UNL     1      -1.376 -10.791  -0.463  0.00  0.00    -0.485 OA
ATOM     13  C   UNL     1      -0.015 -11.145  -0.194  0.00  0.00    +0.270 C 
ATOM     14  C   UNL     1       0.416 -10.447   1.103  0.00  0.00    +0.270 C 
ATOM     15  O   UNL     1       0.285  -9.033   0.915  0.00  0.00    -0.485 OA
ENDBRANCH   3   5
BRANCH   1  16
ATOM     16  C   UNL     1      -2.180  -3.041   0.025  0.00  0.00    +0.328 C 
BRANCH  16  17
ATOM     17  O   UNL     1      -0.999  -2.236   0.021  0.00  0.00    -0.451 OA
BRANCH  17  18
ATOM     18  C   UNL     1      -1.170  -0.899   0.040  0.00  0.00    +0.360 C 
ATOM     19  O   UNL     1      -2.290  -0.430   0.059  0.00  0.00    -0.243 OA
BRANCH  18  25
ATOM     20  C   UNL     1      -0.014   1.410   0.057  0.00  0.00    +0.056 A 
ATOM     21  C   UNL     1       1.285   1.789   0.048  0.00  0.00    +0.105 A 
ATOM     22  N   UNL     1       2.030   0.663   0.025  0.00  0.00    -0.284 N 
ATOM     23  H   UNL     1       3.000   0.640   0.014  0.00  0.00    +0.188 HD
ATOM     24  N   UNL     1       1.270  -0.373   0.020  0.00  0.00    -0.167 NA
ATOM     25  C   UNL     1       0.004  -0.005   0.039  0.00  0.00    +0.169 A 
ENDBRANCH  18  25
ENDBRANCH  17  18
ENDBRANCH  16  17
ENDBRANCH   1  16
TORSDOF 5
