REMARK  Name = ZINC39970313
REMARK  7 active torsions:
REMARK  status: ('A' for Active; 'I' for Inactive)
REMARK    1  A    between atoms: C_1  and  C_2
REMARK    2  A    between atoms: C_2  and  C_3
REMARK    3  A    between atoms: C_15  and  S_17
REMARK    4  A    between atoms: S_17  and  C_18
REMARK    5  A    between atoms: C_18  and  C_19
REMARK    6  A    between atoms: N_21  and  C_22
REMARK    7  A    between atoms: C_27  and  O_28
REMARK                            x       y       z     vdW  Elec       q    Type
REMARK                         _______ _______ _______ _____ _____    ______ ____
ROOT
ATOM      1  C   UNL     1       0.662  -0.557  -1.202  0.00  0.00    -0.047 A 
ATOM      2  C   UNL     1      -0.089  -0.779  -2.364  0.00  0.00    +0.005 A 
ATOM      3  C   UNL     1       0.485  -1.199  -3.514  0.00  0.00    +0.026 A 
ATOM      4  C   UNL     1       1.935  -1.430  -3.550  0.00  0.00    +0.046 A 
ATOM      5  N   UNL     1       2.728  -1.860  -4.502  0.00  0.00    -0.358 N 
ATOM      6  C   UNL     1       4.103  -1.784  -4.036  0.00  0.00    +0.252 C 
ATOM      7  C   UNL     1       4.020  -1.489  -2.549  0.00  0.00    +0.117 C 
ATOM      8  C   UNL     1       2.700  -1.197  -2.299  0.00  0.00    +0.025 A 
ATOM      9  C   UNL     1       2.000  -0.748  -1.156  0.00  0.00    +0.015 A 
ATOM     10  N   UNL     1       5.068  -1.661  -1.739  0.00  0.00    -0.147 NA
ATOM     11  N   UNL     1       5.930  -2.554  -2.122  0.00  0.00    -0.122 NA
ATOM     12  C   UNL     1       5.742  -3.306  -3.234  0.00  0.00    +0.208 C 
ATOM     13  N   UNL     1       4.868  -3.022  -4.173  0.00  0.00    -0.227 NA
ATOM     14  H   UNL     1       2.444  -2.177  -5.373  0.00  0.00    +0.162 HD
ENDROOT
BRANCH   1  16
ATOM     15  C   UNL     1      -0.077   1.448   0.057  0.00  0.00    +0.009 C 
ATOM     16  C   UNL     1      -0.046  -0.082   0.040  0.00  0.00    +0.032 C 
ENDBRANCH   1  16
BRANCH  12  17
ATOM     17  S   UNL     1       6.732  -4.749  -3.436  0.00  0.00    -0.075 S 
BRANCH  17  18
ATOM     18  C   UNL     1       6.175  -5.447  -5.015  0.00  0.00    +0.173 C 
BRANCH  18  19
ATOM     19  C   UNL     1       6.953  -6.703  -5.312  0.00  0.00    +0.228 C 
ATOM     20  O   UNL     1       7.800  -7.089  -4.534  0.00  0.00    -0.275 OA
ATOM     21  N   UNL     1       6.707  -7.397  -6.441  0.00  0.00    -0.282 N 
ATOM     22  H   UNL     1       5.987  -7.125  -7.030  0.00  0.00    +0.155 HD
BRANCH  21  23
ATOM     23  C   UNL     1       7.493  -8.511  -6.763  0.00  0.00    +0.075 A 
ATOM     24  C   UNL     1       7.979  -9.334  -5.757  0.00  0.00    +0.027 A 
ATOM     25  C   UNL     1       8.753 -10.433  -6.077  0.00  0.00    +0.002 A 
ATOM     26  C   UNL     1       9.046 -10.715  -7.399  0.00  0.00    +0.004 A 
ATOM     27  C   UNL     1       8.565  -9.900  -8.407  0.00  0.00    +0.047 A 
ATOM     28  C   UNL     1       7.783  -8.800  -8.094  0.00  0.00    +0.138 A 
BRANCH  28  29
ATOM     29  O   UNL     1       7.305  -8.000  -9.085  0.00  0.00    -0.505 OA
ATOM     30  H   UNL     1       7.895  -7.271  -9.320  0.00  0.00    +0.292 HD
ENDBRANCH  28  29
ENDBRANCH  21  23
ENDBRANCH  18  19
ENDBRANCH  17  18
ENDBRANCH  12  17
TORSDOF 6
