REMARK  Name = ZINC07841815
REMARK  4 active torsions:
REMARK  status: ('A' for Active; 'I' for Inactive)
REMARK    1  A    between atoms: C_6  and  N_7
REMARK    2  A    between atoms: C_8  and  C_10
REMARK    3  A    between atoms: C_13  and  N_19
REMARK    4  A    between atoms: C_14  and  N_16
REMARK                            x       y       z     vdW  Elec       q    Type
REMARK                         _______ _______ _______ _____ _____    ______ ____
ROOT
ATOM      1  C   UNL     1      -1.232  -0.826   0.098  0.00  0.00    +0.039 A 
ATOM      2  C   UNL     1      -2.436  -0.130   0.242  0.00  0.00    +0.015 A 
ATOM      3  C   UNL     1      -3.618  -0.822   0.366  0.00  0.00    +0.026 A 
ATOM      4  C   UNL     1      -3.616  -2.215   0.358  0.00  0.00    +0.055 A 
ATOM      5  C   UNL     1      -2.418  -2.911   0.221  0.00  0.00    +0.147 A 
ATOM      6  C   UNL     1      -1.233  -2.224   0.091  0.00  0.00    +0.047 A 
ENDROOT
BRANCH   1   8
ATOM      7  N   UNL     1       0.036   1.261  -0.033  0.00  0.00    -0.282 N 
ATOM      8  C   UNL     1       0.037  -0.087  -0.040  0.00  0.00    +0.248 C 
ATOM      9  O   UNL     1       1.084  -0.694  -0.160  0.00  0.00    -0.270 OA
ATOM     10  H   UNL     1      -0.804   1.745  -0.005  0.00  0.00    +0.155 HD
BRANCH   7  16
ATOM     11  C   UNL     1       1.379   3.159   0.617  0.00  0.00    +0.024 A 
ATOM     12  C   UNL     1       2.577   3.846   0.580  0.00  0.00    +0.016 A 
ATOM     13  C   UNL     1       3.640   3.347  -0.151  0.00  0.00    +0.013 A 
ATOM     14  C   UNL     1       3.509   2.156  -0.843  0.00  0.00    +0.016 A 
ATOM     15  C   UNL     1       2.315   1.462  -0.806  0.00  0.00    +0.024 A 
ATOM     16  C   UNL     1       1.246   1.961  -0.073  0.00  0.00    +0.034 A 
ATOM     17  I   UNL     1       5.452   4.397  -0.210  0.00  0.00    -0.044 I 
ENDBRANCH   7  16
ENDBRANCH   1   8
BRANCH   5  18
ATOM     18  N   UNL     1      -2.420  -4.391   0.213  0.00  0.00    +0.058 N 
ATOM     19  O   UNL     1      -1.366  -5.001   0.200  0.00  0.00    -0.126 OA
ATOM     20  O   UNL     1      -3.475  -4.999   0.220  0.00  0.00    -0.126 OA
ENDBRANCH   5  18
BRANCH   4  21
ATOM     21  N   UNL     1      -4.812  -2.911   0.489  0.00  0.00    -0.356 N 
ATOM     22  H   UNL     1      -4.811  -3.815   0.842  0.00  0.00    +0.142 HD
ATOM     23  H   UNL     1      -5.648  -2.494   0.228  0.00  0.00    +0.142 HD
ENDBRANCH   4  21
TORSDOF 4
