REMARK  Name = ZINC42742050
REMARK  9 active torsions:
REMARK  status: ('A' for Active; 'I' for Inactive)
REMARK    1  A    between atoms: C_1  and  C_2
REMARK    2  A    between atoms: C_2  and  N_3
REMARK    3  A    between atoms: N_3  and  C_4
REMARK    4  A    between atoms: N_3  and  C_17
REMARK    5  A    between atoms: C_4  and  C_5
REMARK    6  A    between atoms: N_10  and  C_11
REMARK    7  A    between atoms: C_17  and  C_19
REMARK    8  A    between atoms: C_17  and  C_20
REMARK    9  A    between atoms: C_23  and  C_26
REMARK                            x       y       z     vdW  Elec       q    Type
REMARK                         _______ _______ _______ _____ _____    ______ ____
ROOT
ATOM      1  C   UNL     1      -1.226  -1.845  -0.194  0.00  0.00    +0.181 C 
ENDROOT
BRANCH   1   2
ATOM      2  C   UNL     1      -0.730  -2.313  -1.538  0.00  0.00    +0.234 C 
ATOM      3  O   UNL     1      -0.395  -1.504  -2.376  0.00  0.00    -0.274 OA
ATOM      4  N   UNL     1      -0.660  -3.632  -1.808  0.00  0.00    -0.239 N 
ATOM      5  C   UNL     1      -0.217  -4.051  -3.010  0.00  0.00    +0.310 C 
ATOM      6  O   UNL     1       0.119  -3.239  -3.850  0.00  0.00    -0.252 OA
ATOM      7  N   UNL     1      -0.147  -5.369  -3.281  0.00  0.00    -0.269 N 
ATOM      8  H   UNL     1      -0.929  -4.279  -1.138  0.00  0.00    +0.159 HD
ATOM      9  H   UNL     1      -0.362  -6.018  -2.592  0.00  0.00    +0.156 HD
BRANCH   7  10
ATOM     10  C   UNL     1       0.236  -5.803  -4.555  0.00  0.00    +0.035 A 
ATOM     11  C   UNL     1      -0.338  -6.942  -5.104  0.00  0.00    +0.023 A 
ATOM     12  C   UNL     1       0.042  -7.367  -6.362  0.00  0.00    +0.002 A 
ATOM     13  C   UNL     1       0.993  -6.660  -7.074  0.00  0.00    +0.000 A 
ATOM     14  C   UNL     1       1.566  -5.526  -6.530  0.00  0.00    +0.002 A 
ATOM     15  C   UNL     1       1.186  -5.091  -5.276  0.00  0.00    +0.023 A 
ENDBRANCH   7  10
ENDBRANCH   1   2
BRANCH   1  16
ATOM     16  N   UNL     1      -1.207  -0.377  -0.150  0.00  0.00    -0.288 NA
BRANCH  16  18
ATOM     17  C   UNL     1       0.993  -0.481   0.920  0.00  0.00    +0.020 C 
ATOM     18  C   UNL     1       0.169   0.134  -0.212  0.00  0.00    +0.082 C 
ENDBRANCH  16  18
BRANCH  16  19
ATOM     19  C   UNL     1      -1.900   0.122   1.046  0.00  0.00    +0.084 C 
ATOM     20  C   UNL     1      -3.292  -0.507   1.128  0.00  0.00    +0.029 C 
BRANCH  19  21
ATOM     21  C   UNL     1      -2.032   1.621   0.961  0.00  0.00    -0.030 A 
ATOM     22  C   UNL     1      -2.448   2.210  -0.220  0.00  0.00    +0.006 A 
ATOM     23  C   UNL     1      -2.570   3.582  -0.305  0.00  0.00    +0.019 A 
ATOM     24  C   UNL     1      -2.273   4.376   0.804  0.00  0.00    +0.052 A 
ATOM     25  C   UNL     1      -1.854   3.775   1.993  0.00  0.00    +0.019 A 
ATOM     26  C   UNL     1      -1.741   2.402   2.066  0.00  0.00    +0.006 A 
BRANCH  24  27
ATOM     27  C   UNL     1      -2.397   5.800   0.724  0.00  0.00    +0.099 C 
ATOM     28  N   UNL     1      -2.496   6.930   0.659  0.00  0.00    -0.191 NA
ENDBRANCH  24  27
ENDBRANCH  19  21
ENDBRANCH  16  19
ENDBRANCH   1  16
TORSDOF 7
