REMARK  Name = ZINC04521520
REMARK  9 active torsions:
REMARK  status: ('A' for Active; 'I' for Inactive)
REMARK    1  A    between atoms: C_1  and  N_2
REMARK    2  A    between atoms: C_7  and  C_8
REMARK    3  A    between atoms: C_7  and  C_17
REMARK    4  A    between atoms: C_11  and  N_14
REMARK    5  A    between atoms: N_14  and  C_15
REMARK    6  A    between atoms: N_14  and  C_16
REMARK    7  A    between atoms: C_20  and  N_23
REMARK    8  A    between atoms: N_23  and  C_24
REMARK    9  A    between atoms: N_23  and  C_25
REMARK                            x       y       z     vdW  Elec       q    Type
REMARK                         _______ _______ _______ _____ _____    ______ ____
ROOT
ATOM      1  C   UNL     1      -0.020   1.468  -0.063  0.00  0.00    +0.139 C 
ATOM      2  N   UNL     1       0.002   0.003  -0.055  0.00  0.00    -0.387 N 
ATOM      3  C   UNL     1      -1.137  -0.677  -0.033  0.00  0.00    +0.035 C 
ATOM      4  C   UNL     1      -2.375   0.013  -0.024  0.00  0.00    +0.026 C 
ATOM      5  C   UNL     1      -3.536  -0.682  -0.002  0.00  0.00    +0.010 C 
ATOM      6  C   UNL     1      -3.514  -2.095   0.012  0.00  0.00    -0.017 C 
ATOM      7  C   UNL     1      -4.723  -2.816   0.034  0.00  0.00    -0.004 C 
ATOM      8  C   UNL     1      -2.281  -2.785   0.003  0.00  0.00    +0.010 C 
ATOM      9  C   UNL     1      -1.118  -2.093  -0.025  0.00  0.00    +0.026 C 
ATOM     10  H   UNL     1       0.848  -0.470  -0.065  0.00  0.00    +0.159 HD
ENDROOT
BRANCH   7  11
ATOM     11  C   UNL     1      -4.702  -4.285   0.049  0.00  0.00    -0.017 A 
ATOM     12  C   UNL     1      -5.213  -5.006  -1.039  0.00  0.00    +0.010 A 
ATOM     13  C   UNL     1      -5.191  -6.372  -1.022  0.00  0.00    +0.024 A 
ATOM     14  C   UNL     1      -4.662  -7.048   0.076  0.00  0.00    +0.029 A 
ATOM     15  C   UNL     1      -4.154  -6.335   1.160  0.00  0.00    +0.024 A 
ATOM     16  C   UNL     1      -4.165  -4.970   1.148  0.00  0.00    +0.010 A 
BRANCH  14  17
ATOM     17  N   UNL     1      -4.643  -8.437   0.090  0.00  0.00    -0.336 N 
ATOM     18  C   UNL     1      -5.177  -9.189  -1.048  0.00  0.00    +0.129 C 
ATOM     19  C   UNL     1      -4.088  -9.150   1.243  0.00  0.00    +0.129 C 
ENDBRANCH  14  17
ENDBRANCH   7  11
BRANCH   7  20
ATOM     20  C   UNL     1      -6.006  -2.100   0.043  0.00  0.00    -0.017 A 
ATOM     21  C   UNL     1      -6.853  -2.189   1.156  0.00  0.00    +0.010 A 
ATOM     22  C   UNL     1      -8.044  -1.522   1.160  0.00  0.00    +0.024 A 
ATOM     23  C   UNL     1      -8.418  -0.753   0.059  0.00  0.00    +0.029 A 
ATOM     24  C   UNL     1      -7.580  -0.662  -1.049  0.00  0.00    +0.024 A 
ATOM     25  C   UNL     1      -6.384  -1.321  -1.059  0.00  0.00    +0.010 A 
BRANCH  23  26
ATOM     26  N   UNL     1      -9.632  -0.076   0.068  0.00  0.00    -0.336 N 
ATOM     27  C   UNL     1     -10.571  -0.270   1.175  0.00  0.00    +0.129 C 
ATOM     28  C   UNL     1      -9.972   0.832  -1.031  0.00  0.00    +0.129 C 
ENDBRANCH  23  26
ENDBRANCH   7  20
TORSDOF 4
