REMARK  Name = ZINC22926957
REMARK  7 active torsions:
REMARK  status: ('A' for Active; 'I' for Inactive)
REMARK    1  A    between atoms: C_1  and  N_2
REMARK    2  A    between atoms: N_5  and  C_8
REMARK    3  A    between atoms: C_8  and  C_9
REMARK    4  A    between atoms: C_18  and  C_20
REMARK    5  A    between atoms: C_20  and  N_21
REMARK    6  A    between atoms: N_21  and  S_22
REMARK    7  A    between atoms: S_22  and  C_25
REMARK                            x       y       z     vdW  Elec       q    Type
REMARK                         _______ _______ _______ _____ _____    ______ ____
ROOT
ATOM      1  C   UNL     1      -0.086  -4.485   2.544  0.00  0.00    -0.011 C 
ATOM      2  C   UNL     1      -1.034  -4.052   3.664  0.00  0.00    -0.073 C 
ATOM      3  N   UNL     1      -1.540  -5.228   4.375  0.00  0.00    +0.383 N 
ATOM      4  C   UNL     1      -0.439  -5.969   4.995  0.00  0.00    -0.078 C 
ATOM      5  C   UNL     1       0.529  -6.466   3.920  0.00  0.00    -0.015 C 
ATOM      6  C   UNL     1       0.019  -6.016   2.544  0.00  0.00    -0.012 C 
ATOM      7  C   UNL     1      -1.386  -6.597   2.339  0.00  0.00    -0.010 C 
ATOM      8  C   UNL     1      -2.298  -6.093   3.468  0.00  0.00    -0.053 C 
ATOM      9  H   UNL     1      -2.159  -4.916   5.109  0.00  0.00    -0.081 HD
ENDROOT
BRANCH   1  10
ATOM     10  C   UNL     1      -0.632  -4.009   1.196  0.00  0.00    +0.086 C 
BRANCH  10  15
ATOM     11  C   UNL     1      -0.018   1.465   0.010  0.00  0.00    -0.096 C 
ATOM     12  N   UNL     1       0.002  -0.004   0.002  0.00  0.00    +0.379 N 
ATOM     13  C   UNL     1      -1.376  -0.512   0.011  0.00  0.00    -0.064 C 
ATOM     14  C   UNL     1      -1.356  -2.042  -0.017  0.00  0.00    +0.066 C 
ATOM     15  N   UNL     1      -0.624  -2.541   1.156  0.00  0.00    -0.306 NA
ATOM     16  C   UNL     1       0.750  -2.020   1.175  0.00  0.00    +0.066 C 
ATOM     17  C   UNL     1       0.713  -0.490   1.192  0.00  0.00    -0.064 C 
ATOM     18  H   UNL     1       0.475  -0.329  -0.828  0.00  0.00    -0.082 HD
ENDBRANCH  10  15
ENDBRANCH   1  10
BRANCH   8  19
ATOM     19  C   UNL     1      -3.463  -5.304   2.868  0.00  0.00    +0.090 C 
BRANCH  19  20
ATOM     20  N   UNL     1      -4.274  -4.734   3.947  0.00  0.00    -0.196 NA
ATOM     21  H   UNL     1      -4.169  -5.057   4.855  0.00  0.00    +0.148 HD
BRANCH  20  22
ATOM     22  S   UNL     1      -5.370  -3.538   3.615  0.00  0.00    +0.026 S 
ATOM     23  O   UNL     1      -5.946  -3.215   4.874  0.00  0.00    -0.158 OA
ATOM     24  O   UNL     1      -4.636  -2.566   2.884  0.00  0.00    -0.158 OA
ATOM     25  C   UNL     1      -6.607  -4.322   2.545  0.00  0.00    +0.214 C 
ENDBRANCH  20  22
ENDBRANCH  19  20
ENDBRANCH   8  19
TORSDOF 5
