REMARK  Name = ZINC06076942
REMARK  15 active torsions:
REMARK  status: ('A' for Active; 'I' for Inactive)
REMARK    1  A    between atoms: C_1  and  C_2
REMARK    2  A    between atoms: C_2  and  C_3
REMARK    3  A    between atoms: C_2  and  C_4
REMARK    4  A    between atoms: C_4  and  C_5
REMARK    5  A    between atoms: C_5  and  N_6
REMARK    6  A    between atoms: C_7  and  C_9
REMARK    7  A    between atoms: C_9  and  C_11
REMARK    8  A    between atoms: C_9  and  N_20
REMARK    9  A    between atoms: C_14  and  N_17
REMARK   10  A    between atoms: N_17  and  C_18
REMARK   11  A    between atoms: N_17  and  C_19
REMARK   12  A    between atoms: N_20  and  C_21
REMARK   13  A    between atoms: C_28  and  C_30
REMARK   14  A    between atoms: C_31  and  N_38
REMARK   15  A    between atoms: C_32  and  C_35
REMARK                            x       y       z     vdW  Elec       q    Type
REMARK                         _______ _______ _______ _____ _____    ______ ____
ROOT
ATOM      1  N   UNL     1       3.393   1.731   1.067  0.00  0.00    -0.251 N 
ATOM      2  C   UNL     1       4.387   1.001   1.611  0.00  0.00    +0.262 C 
ATOM      3  O   UNL     1       4.774  -0.010   1.055  0.00  0.00    -0.269 OA
ENDROOT
BRANCH   1   4
ATOM      4  C   UNL     1       2.864   2.822   1.765  0.00  0.00    +0.038 A 
ATOM      5  C   UNL     1       3.275   4.112   1.455  0.00  0.00    +0.026 A 
ATOM      6  C   UNL     1       2.747   5.188   2.142  0.00  0.00    +0.040 A 
ATOM      7  C   UNL     1       1.817   4.981   3.146  0.00  0.00    +0.124 A 
ATOM      8  C   UNL     1       1.409   3.695   3.460  0.00  0.00    +0.040 A 
ATOM      9  C   UNL     1       1.930   2.617   2.772  0.00  0.00    +0.026 A 
ATOM     10  F   UNL     1       1.305   6.034   3.820  0.00  0.00    -0.205 F 
ENDBRANCH   1   4
BRANCH   2  11
ATOM     11  C   UNL     1       5.001   1.425   2.870  0.00  0.00    +0.116 A 
ATOM     12  C   UNL     1       5.970   0.781   3.643  0.00  0.00    +0.076 A 
ATOM     13  C   UNL     1       6.308   1.504   4.787  0.00  0.00    +0.155 A 
ATOM     14  N   UNL     1       5.718   2.656   5.017  0.00  0.00    -0.203 NA
ATOM     15  S   UNL     1       4.719   2.903   3.823  0.00  0.00    +0.019 S 
BRANCH  13  16
ATOM     16  C   UNL     1       7.316   0.982   5.728  0.00  0.00    +0.262 C 
ATOM     17  O   UNL     1       7.857  -0.084   5.508  0.00  0.00    -0.269 OA
ATOM     18  N   UNL     1       7.637   1.687   6.831  0.00  0.00    -0.324 N 
ATOM     19  H   UNL     1       7.205   2.537   7.006  0.00  0.00    +0.145 HD
ATOM     20  H   UNL     1       8.300   1.343   7.450  0.00  0.00    +0.145 HD
ENDBRANCH  13  16
BRANCH  12  21
ATOM     21  N   UNL     1       6.535  -0.443   3.309  0.00  0.00    -0.355 N 
ATOM     22  H   UNL     1       6.259  -0.899   2.499  0.00  0.00    +0.142 HD
ATOM     23  H   UNL     1       7.205  -0.841   3.886  0.00  0.00    +0.142 HD
ENDBRANCH  12  21
ENDBRANCH   2  11
BRANCH   1  24
ATOM     24  C   UNL     1       2.867   1.382  -0.255  0.00  0.00    +0.197 C 
BRANCH  24  25
ATOM     25  C   UNL     1       1.369   1.241  -0.179  0.00  0.00    -0.018 A 
ATOM     26  C   UNL     1       0.790  -0.014  -0.230  0.00  0.00    +0.008 A 
ATOM     27  C   UNL     1      -0.583  -0.146  -0.166  0.00  0.00    +0.023 A 
ATOM     28  C   UNL     1      -1.383   0.982  -0.038  0.00  0.00    +0.029 A 
ATOM     29  C   UNL     1      -0.798   2.242   0.014  0.00  0.00    +0.023 A 
ATOM     30  C   UNL     1       0.575   2.367  -0.057  0.00  0.00    +0.008 A 
BRANCH  28  31
ATOM     31  N   UNL     1      -2.771   0.852   0.034  0.00  0.00    -0.336 N 
ATOM     32  C   UNL     1      -3.621   2.045   0.026  0.00  0.00    +0.129 C 
ATOM     33  C   UNL     1      -3.379  -0.479   0.116  0.00  0.00    +0.129 C 
ENDBRANCH  28  31
ENDBRANCH  24  25
BRANCH  24  35
ATOM     34  N   UNL     1       2.836   2.362  -2.526  0.00  0.00    -0.313 N 
ATOM     35  C   UNL     1       3.220   2.469  -1.239  0.00  0.00    +0.238 C 
ATOM     36  O   UNL     1       3.848   3.438  -0.872  0.00  0.00    -0.273 OA
ATOM     37  H   UNL     1       2.333   1.586  -2.820  0.00  0.00    +0.149 HD
BRANCH  34  38
ATOM     38  C   UNL     1       3.179   3.418  -3.483  0.00  0.00    +0.104 C 
BRANCH  38  39
ATOM     39  C   UNL     1       2.630   3.053  -4.863  0.00  0.00    +0.022 C 
BRANCH  39  41
ATOM     40  C   UNL     1       2.548   3.735  -7.266  0.00  0.00    +0.007 C 
ATOM     41  C   UNL     1       2.988   4.156  -5.862  0.00  0.00    -0.016 C 
ATOM     42  C   UNL     1       2.272   5.450  -5.470  0.00  0.00    +0.007 C 
ENDBRANCH  39  41
ENDBRANCH  38  39
ENDBRANCH  34  38
ENDBRANCH  24  35
ENDBRANCH   1  24
TORSDOF 11
