REMARK  Name = ZINC38643131
REMARK  8 active torsions:
REMARK  status: ('A' for Active; 'I' for Inactive)
REMARK    1  A    between atoms: C_1  and  C_2
REMARK    2  A    between atoms: C_5  and  C_8
REMARK    3  A    between atoms: N_12  and  C_16
REMARK    4  A    between atoms: C_16  and  C_17
REMARK    5  A    between atoms: N_19  and  C_20
REMARK    6  A    between atoms: N_19  and  C_28
REMARK    7  A    between atoms: C_20  and  C_21
REMARK    8  A    between atoms: C_28  and  C_29
REMARK                            x       y       z     vdW  Elec       q    Type
REMARK                         _______ _______ _______ _____ _____    ______ ____
ROOT
ATOM      1  C   UNL     1       2.031  -8.556   2.965  0.00  0.00    +0.234 C 
ATOM      2  O   UNL     1       2.868  -7.703   2.764  0.00  0.00    -0.274 OA
ATOM      3  N   UNL     1       2.410  -9.824   3.221  0.00  0.00    -0.293 N 
ENDROOT
BRANCH   1   4
ATOM      4  C   UNL     1       0.567  -8.200   2.929  0.00  0.00    +0.210 C 
BRANCH   4   9
ATOM      5  C   UNL     1       0.060  -4.244  -0.021  0.00  0.00    +0.028 C 
ATOM      6  C   UNL     1       0.177  -4.927   1.144  0.00  0.00    +0.077 C 
ATOM      7  C   UNL     1       0.324  -6.380   1.375  0.00  0.00    +0.259 C 
ATOM      8  O   UNL     1       0.356  -7.174   0.453  0.00  0.00    -0.269 OA
ATOM      9  N   UNL     1       0.419  -6.773   2.634  0.00  0.00    -0.246 N 
ATOM     10  C   UNL     1       0.383  -5.889   3.652  0.00  0.00    +0.121 C 
ATOM     11  S   UNL     1       0.491  -6.200   5.333  0.00  0.00    -0.027 S 
ATOM     12  S   UNL     1       0.205  -4.317   2.825  0.00  0.00    -0.061 S 
BRANCH   5  17
ATOM     13  C   UNL     1      -1.204   1.362   0.048  0.00  0.00    +0.044 C 
ATOM     14  C   UNL     1      -0.873  -0.108   0.029  0.00  0.00    -0.050 A 
ATOM     15  C   UNL     1      -0.513  -0.718  -1.160  0.00  0.00    +0.004 A 
ATOM     16  C   UNL     1      -0.208  -2.062  -1.185  0.00  0.00    +0.008 A 
ATOM     17  C   UNL     1      -0.263  -2.810  -0.004  0.00  0.00    -0.024 A 
ATOM     18  C   UNL     1      -0.627  -2.186   1.195  0.00  0.00    +0.008 A 
ATOM     19  C   UNL     1      -0.924  -0.839   1.203  0.00  0.00    +0.004 A 
ENDBRANCH   5  17
ENDBRANCH   4   9
ENDBRANCH   1   4
BRANCH   3  20
ATOM     20  C   UNL     1       3.833 -10.171   3.256  0.00  0.00    +0.143 C 
BRANCH  20  21
ATOM     21  C   UNL     1       4.357  -9.998   4.658  0.00  0.00    -0.030 A 
ATOM     22  C   UNL     1       4.876  -8.780   5.056  0.00  0.00    +0.006 A 
ATOM     23  C   UNL     1       5.358  -8.621   6.342  0.00  0.00    +0.020 A 
ATOM     24  C   UNL     1       5.321  -9.681   7.230  0.00  0.00    +0.041 A 
ATOM     25  C   UNL     1       4.802 -10.900   6.831  0.00  0.00    +0.020 A 
ATOM     26  C   UNL     1       4.315 -11.056   5.547  0.00  0.00    +0.006 A 
ATOM     27 CL   UNL     1       5.926  -9.483   8.845  0.00  0.00    -0.084 Cl
ENDBRANCH  20  21
ENDBRANCH   3  20
BRANCH   3  28
ATOM     28  C   UNL     1       1.398 -10.856   3.465  0.00  0.00    +0.139 C 
BRANCH  28  29
ATOM     29  C   UNL     1       1.008 -11.511   2.138  0.00  0.00    +0.136 C 
ATOM     30  C   UNL     1      -0.142 -12.514   2.367  0.00  0.00    +0.035 C 
ATOM     31  C   UNL     1       0.248 -13.685   1.425  0.00  0.00    +0.031 C 
ATOM     32  C   UNL     1       1.794 -13.638   1.522  0.00  0.00    +0.160 C 
ATOM     33  O   UNL     1       2.122 -12.241   1.611  0.00  0.00    -0.375 OA
ENDBRANCH  28  29
ENDBRANCH   3  28
TORSDOF 7
