REMARK  Name = ZINC38865210
REMARK  8 active torsions:
REMARK  status: ('A' for Active; 'I' for Inactive)
REMARK    1  A    between atoms: C_1  and  C_2
REMARK    2  A    between atoms: C_4  and  N_21
REMARK    3  A    between atoms: C_9  and  C_12
REMARK    4  A    between atoms: C_22  and  C_24
REMARK    5  A    between atoms: C_26  and  O_32
REMARK    6  A    between atoms: C_28  and  O_30
REMARK    7  A    between atoms: O_30  and  C_31
REMARK    8  A    between atoms: O_32  and  C_33
REMARK                            x       y       z     vdW  Elec       q    Type
REMARK                         _______ _______ _______ _____ _____    ______ ____
ROOT
ATOM      1  C   UNL     1      -0.018   1.503   0.010  0.00  0.00    +0.067 C 
ATOM      2  C   UNL     1       0.002  -0.004   0.002  0.00  0.00    +0.062 A 
ATOM      3  C   UNL     1       0.008  -0.814  -1.137  0.00  0.00    +0.068 A 
ATOM      4  C   UNL     1       0.028  -2.112  -0.727  0.00  0.00    +0.131 A 
ATOM      5  N   UNL     1       0.035  -2.109   0.636  0.00  0.00    -0.194 N 
ATOM      6  N   UNL     1       0.023  -0.774   1.060  0.00  0.00    -0.168 NA
ATOM      7  C   UNL     1       0.055  -3.232   1.459  0.00  0.00    +0.196 A 
ATOM      8  N   UNL     1       0.057  -3.302   2.777  0.00  0.00    -0.221 NA
ATOM      9  C   UNL     1       0.076  -4.467   3.405  0.00  0.00    +0.081 A 
ATOM     10  C   UNL     1       0.095  -5.622   2.674  0.00  0.00    +0.077 A 
ATOM     11  S   UNL     1       0.076  -4.963   1.012  0.00  0.00    -0.056 S 
ENDROOT
BRANCH   9  12
ATOM     12  C   UNL     1       0.079  -4.518   4.887  0.00  0.00    +0.005 A 
ATOM     13  C   UNL     1       0.106  -5.748   5.543  0.00  0.00    +0.014 A 
ATOM     14  C   UNL     1       0.108  -5.795   6.922  0.00  0.00    +0.050 A 
ATOM     15  C   UNL     1       0.084  -4.621   7.660  0.00  0.00    +0.166 A 
ATOM     16  C   UNL     1       0.057  -3.389   7.010  0.00  0.00    +0.167 A 
ATOM     17  C   UNL     1       0.060  -3.338   5.627  0.00  0.00    +0.059 A 
ATOM     18  O   UNL     1       0.036  -2.400   7.950  0.00  0.00    -0.453 OA
ATOM     19  C   UNL     1      -0.362  -3.043   9.176  0.00  0.00    +0.466 C 
ATOM     20  O   UNL     1       0.080  -4.402   9.008  0.00  0.00    -0.453 OA
ENDBRANCH   9  12
BRANCH   4  21
ATOM     21  N   UNL     1       0.040  -3.237  -1.549  0.00  0.00    -0.266 N 
ATOM     22  C   UNL     1       0.031  -3.092  -2.889  0.00  0.00    +0.250 C 
ATOM     23  O   UNL     1       0.013  -1.980  -3.380  0.00  0.00    -0.270 OA
ATOM     24  H   UNL     1       0.054  -4.124  -1.157  0.00  0.00    +0.157 HD
BRANCH  22  25
ATOM     25  C   UNL     1       0.043  -4.286  -3.761  0.00  0.00    +0.044 A 
ATOM     26  C   UNL     1       0.058  -5.563  -3.199  0.00  0.00    +0.059 A 
ATOM     27  C   UNL     1       0.069  -6.678  -4.020  0.00  0.00    +0.124 A 
ATOM     28  C   UNL     1       0.066  -6.527  -5.399  0.00  0.00    +0.091 A 
ATOM     29  C   UNL     1       0.051  -5.259  -5.962  0.00  0.00    +0.124 A 
ATOM     30  C   UNL     1       0.035  -4.138  -5.149  0.00  0.00    +0.059 A 
BRANCH  29  31
ATOM     31  O   UNL     1       0.048  -5.117  -7.314  0.00  0.00    -0.495 OA
ATOM     32  C   UNL     1       0.061  -6.315  -8.092  0.00  0.00    +0.277 C 
ENDBRANCH  29  31
BRANCH  27  33
ATOM     33  O   UNL     1       0.083  -7.923  -3.474  0.00  0.00    -0.495 OA
ATOM     34  C   UNL     1       0.093  -9.028  -4.379  0.00  0.00    +0.277 C 
ENDBRANCH  27  33
ENDBRANCH  22  25
ENDBRANCH   4  21
TORSDOF 5
