REMARK  Name = ZINC09166177
REMARK  11 active torsions:
REMARK  status: ('A' for Active; 'I' for Inactive)
REMARK    1  A    between atoms: C_1  and  C_2
REMARK    2  A    between atoms: C_2  and  N_3
REMARK    3  A    between atoms: C_7  and  N_17
REMARK    4  A    between atoms: C_12  and  C_15
REMARK    5  A    between atoms: C_12  and  C_16
REMARK    6  A    between atoms: N_17  and  S_18
REMARK    7  A    between atoms: S_18  and  C_21
REMARK    8  A    between atoms: C_22  and  C_30
REMARK    9  A    between atoms: C_23  and  C_29
REMARK   10  A    between atoms: C_25  and  C_28
REMARK   11  A    between atoms: C_26  and  C_27
REMARK                            x       y       z     vdW  Elec       q    Type
REMARK                         _______ _______ _______ _____ _____    ______ ____
ROOT
ATOM      1  N   UNL     1      -1.139   1.965   1.778  0.00  0.00    -0.268 N 
ATOM      2  C   UNL     1      -1.599   0.663   2.028  0.00  0.00    +0.078 A 
ATOM      3  C   UNL     1      -1.195  -0.022   3.162  0.00  0.00    +0.029 A 
ATOM      4  C   UNL     1      -1.652  -1.306   3.393  0.00  0.00    +0.026 A 
ATOM      5  C   UNL     1      -2.516  -1.910   2.489  0.00  0.00    +0.052 A 
ATOM      6  C   UNL     1      -2.925  -1.226   1.352  0.00  0.00    +0.072 A 
ATOM      7  C   UNL     1      -2.469   0.061   1.120  0.00  0.00    +0.144 A 
ATOM      8  O   UNL     1      -2.870   0.745   0.016  0.00  0.00    -0.489 OA
ATOM      9  C   UNL     1      -3.841   1.771   0.202  0.00  0.00    +0.244 C 
ATOM     10  C   UNL     1      -3.500   2.613   1.430  0.00  0.00    +0.076 C 
ATOM     11  C   UNL     1      -2.027   2.931   1.452  0.00  0.00    +0.229 C 
ATOM     12  O   UNL     1      -1.640   4.046   1.175  0.00  0.00    -0.275 OA
ATOM     13  C   UNL     1      -4.298   3.917   1.389  0.00  0.00    +0.024 C 
ATOM     14  C   UNL     1      -3.864   1.835   2.696  0.00  0.00    +0.024 C 
ENDROOT
BRANCH   1  16
ATOM     15  C   UNL     1       0.953   2.059   0.515  0.00  0.00    +0.025 C 
ATOM     16  C   UNL     1       0.289   2.277   1.876  0.00  0.00    +0.110 C 
ENDBRANCH   1  16
BRANCH   5  17
ATOM     17  N   UNL     1      -2.976  -3.210   2.724  0.00  0.00    -0.216 N 
ATOM     18  H   UNL     1      -3.918  -3.417   2.620  0.00  0.00    +0.174 HD
BRANCH  17  19
ATOM     19  S   UNL     1      -1.913  -4.394   3.181  0.00  0.00    +0.073 S 
ATOM     20  O   UNL     1      -2.672  -5.586   3.332  0.00  0.00    -0.150 OA
ATOM     21  O   UNL     1      -0.802  -4.305   2.298  0.00  0.00    -0.150 OA
BRANCH  19  22
ATOM     22  C   UNL     1      -1.317  -3.970   4.784  0.00  0.00    +0.115 A 
ATOM     23  C   UNL     1      -2.168  -4.018   5.872  0.00  0.00    -0.021 A 
ATOM     24  C   UNL     1      -1.699  -3.690   7.131  0.00  0.00    -0.045 A 
ATOM     25  C   UNL     1      -0.383  -3.304   7.299  0.00  0.00    +0.007 A 
ATOM     26  C   UNL     1       0.467  -3.252   6.210  0.00  0.00    -0.045 A 
ATOM     27  C   UNL     1      -0.000  -3.585   4.952  0.00  0.00    -0.021 A 
ATOM     28  C   UNL     1       0.926  -3.528   3.765  0.00  0.00    +0.046 C 
ATOM     29  C   UNL     1       1.903  -2.832   6.394  0.00  0.00    +0.044 C 
ATOM     30  C   UNL     1      -2.626  -3.747   8.318  0.00  0.00    +0.044 C 
ATOM     31  C   UNL     1      -3.605  -4.432   5.688  0.00  0.00    +0.046 C 
ENDBRANCH  19  22
ENDBRANCH  17  19
ENDBRANCH   5  17
TORSDOF 4
