REMARK  Name = ZINC65466518
REMARK  9 active torsions:
REMARK  status: ('A' for Active; 'I' for Inactive)
REMARK    1  A    between atoms: C_1  and  C_2
REMARK    2  A    between atoms: C_2  and  C_3
REMARK    3  A    between atoms: C_3  and  C_4
REMARK    4  A    between atoms: C_3  and  N_5
REMARK    5  A    between atoms: C_6  and  C_8
REMARK    6  A    between atoms: C_11  and  N_14
REMARK    7  A    between atoms: C_19  and  C_25
REMARK    8  A    between atoms: C_21  and  C_23
REMARK    9  A    between atoms: C_21  and  C_24
REMARK                            x       y       z     vdW  Elec       q    Type
REMARK                         _______ _______ _______ _____ _____    ______ ____
ROOT
ATOM      1  C   UNL     1      -4.022   0.518   2.589  0.00  0.00    +0.037 A 
ATOM      2  C   UNL     1      -3.289   1.008   3.673  0.00  0.00    +0.015 A 
ATOM      3  C   UNL     1      -3.923   1.273   4.867  0.00  0.00    +0.024 A 
ATOM      4  C   UNL     1      -5.291   1.053   4.994  0.00  0.00    +0.035 A 
ATOM      5  C   UNL     1      -6.023   0.564   3.916  0.00  0.00    +0.024 A 
ATOM      6  C   UNL     1      -5.397   0.303   2.718  0.00  0.00    +0.015 A 
ENDROOT
BRANCH   4   7
ATOM      7  N   UNL     1      -5.929   1.321   6.204  0.00  0.00    -0.269 N 
ATOM      8  C   UNL     1      -7.251   1.582   6.224  0.00  0.00    +0.307 C 
ATOM      9  O   UNL     1      -7.919   1.420   5.221  0.00  0.00    -0.252 OA
ATOM     10  N   UNL     1      -7.834   2.022   7.358  0.00  0.00    -0.280 N 
ATOM     11  C   UNL     1      -7.025   2.398   8.528  0.00  0.00    +0.140 C 
ATOM     12  C   UNL     1      -7.472   3.788   8.997  0.00  0.00    +0.133 C 
ATOM     13  O   UNL     1      -8.890   3.790   9.178  0.00  0.00    -0.368 OA
ATOM     14  C   UNL     1      -9.633   3.542   7.982  0.00  0.00    +0.080 C 
ATOM     15  C   UNL     1      -9.296   2.146   7.459  0.00  0.00    +0.143 C 
ATOM     16  C   UNL     1      -9.261   4.583   6.925  0.00  0.00    +0.043 C 
ATOM     17  C   UNL     1     -11.130   3.630   8.283  0.00  0.00    +0.043 C 
ATOM     18  C   UNL     1      -6.787   4.124  10.324  0.00  0.00    +0.039 C 
ATOM     19  H   UNL     1      -5.422   1.321   7.030  0.00  0.00    +0.156 HD
ENDBRANCH   4   7
BRANCH   1  21
ATOM     20  N   UNL     1      -2.020   0.442   1.185  0.00  0.00    -0.309 N 
ATOM     21  C   UNL     1      -3.346   0.234   1.308  0.00  0.00    +0.244 C 
ATOM     22  O   UNL     1      -3.986  -0.187   0.363  0.00  0.00    -0.270 OA
ATOM     23  H   UNL     1      -1.510   0.778   1.938  0.00  0.00    +0.149 HD
BRANCH  20  24
ATOM     24  C   UNL     1      -1.349   0.160  -0.087  0.00  0.00    +0.070 C 
ATOM     25  C   UNL     1      -0.974  -1.322  -0.148  0.00  0.00    +0.028 C 
BRANCH  24  27
ATOM     26  C   UNL     1      -0.467   2.491  -0.260  0.00  0.00    +0.005 C 
ATOM     27  C   UNL     1      -0.083   1.012  -0.195  0.00  0.00    +0.018 C 
ENDBRANCH  24  27
ENDBRANCH  20  24
ENDBRANCH   1  21
TORSDOF 4
