REMARK  Name = ZINC64612747
REMARK  6 active torsions:
REMARK  status: ('A' for Active; 'I' for Inactive)
REMARK    1  A    between atoms: C_1  and  C_2
REMARK    2  A    between atoms: C_7  and  N_8
REMARK    3  A    between atoms: N_8  and  S_9
REMARK    4  A    between atoms: S_9  and  C_12
REMARK    5  A    between atoms: C_15  and  C_17
REMARK    6  A    between atoms: C_21  and  C_24
REMARK                            x       y       z     vdW  Elec       q    Type
REMARK                         _______ _______ _______ _____ _____    ______ ____
ROOT
ATOM      1  C   UNL     1       0.046   0.333   5.145  0.00  0.00    +0.111 C 
ATOM      2  C   UNL     1       1.069   0.694   5.912  0.00  0.00    +0.135 C 
ATOM      3  N   UNL     1       0.724   1.636   6.820  0.00  0.00    -0.258 NA
ATOM      4  C   UNL     1      -0.517   1.984   6.752  0.00  0.00    +0.069 C 
ATOM      5  C   UNL     1      -1.125   1.169   5.627  0.00  0.00    +0.113 C 
ENDROOT
BRANCH   4   6
ATOM      6  C   UNL     1      -1.219   3.001   7.614  0.00  0.00    +0.248 C 
ATOM      7  N   UNL     1      -0.562   3.106   8.943  0.00  0.00    -0.222 NA
ATOM      8  N   UNL     1      -1.627   3.613   9.816  0.00  0.00    -0.223 NA
ATOM      9  C   UNL     1      -2.898   3.260   9.150  0.00  0.00    +0.233 C 
ATOM     10  O   UNL     1      -2.557   2.560   7.937  0.00  0.00    -0.332 OA
ATOM     11  H   UNL     1      -0.235   2.205   9.257  0.00  0.00    +0.144 HD
ATOM     12  H   UNL     1      -1.549   4.612   9.940  0.00  0.00    +0.144 HD
BRANCH   9  13
ATOM     13  C   UNL     1      -3.720   2.370  10.047  0.00  0.00    -0.003 A 
ATOM     14  C   UNL     1      -3.093   1.526  10.944  0.00  0.00    +0.007 A 
ATOM     15  C   UNL     1      -3.847   0.710  11.767  0.00  0.00    +0.000 A 
ATOM     16  C   UNL     1      -5.227   0.739  11.694  0.00  0.00    +0.000 A 
ATOM     17  C   UNL     1      -5.853   1.585  10.797  0.00  0.00    +0.000 A 
ATOM     18  C   UNL     1      -5.100   2.404   9.977  0.00  0.00    +0.007 A 
ENDBRANCH   9  13
ENDBRANCH   4   6
BRANCH   1  19
ATOM     19  S   UNL     1       0.050  -0.855   3.843  0.00  0.00    +0.090 S 
ATOM     20  O   UNL     1      -1.185  -1.552   3.926  0.00  0.00    -0.149 OA
ATOM     21  O   UNL     1       1.305  -1.518   3.902  0.00  0.00    -0.149 OA
BRANCH  19  22
ATOM     22  N   UNL     1       0.025  -0.016   2.415  0.00  0.00    -0.098 NA
BRANCH  22  29
ATOM     23  C   UNL     1      -0.018   1.503   0.010  0.00  0.00    +0.046 C 
ATOM     24  C   UNL     1       0.002  -0.004   0.002  0.00  0.00    -0.026 A 
ATOM     25  C   UNL     1       0.006  -0.689  -1.198  0.00  0.00    +0.005 A 
ATOM     26  C   UNL     1       0.024  -2.071  -1.206  0.00  0.00    +0.000 A 
ATOM     27  C   UNL     1       0.039  -2.773  -0.014  0.00  0.00    +0.002 A 
ATOM     28  C   UNL     1       0.036  -2.095   1.188  0.00  0.00    +0.027 A 
ATOM     29  C   UNL     1       0.023  -0.706   1.200  0.00  0.00    +0.077 A 
ENDBRANCH  22  29
ENDBRANCH  19  22
ENDBRANCH   1  19
TORSDOF 5
