REMARK  Name = ZINC36027857
REMARK  9 active torsions:
REMARK  status: ('A' for Active; 'I' for Inactive)
REMARK    1  A    between atoms: C_1  and  C_2
REMARK    2  A    between atoms: C_2  and  C_3
REMARK    3  A    between atoms: C_3  and  C_5
REMARK    4  A    between atoms: C_3  and  C_6
REMARK    5  A    between atoms: N_10  and  C_27
REMARK    6  A    between atoms: C_18  and  C_20
REMARK    7  A    between atoms: C_23  and  C_26
REMARK    8  A    between atoms: N_30  and  C_33
REMARK    9  A    between atoms: C_33  and  C_34
REMARK                            x       y       z     vdW  Elec       q    Type
REMARK                         _______ _______ _______ _____ _____    ______ ____
ROOT
ATOM      1  C   UNL     1      -1.367  -2.238  -0.345  0.00  0.00    +0.022 C 
ATOM      2  C   UNL     1      -0.679  -3.066   0.719  0.00  0.00    +0.201 C 
ATOM      3  O   UNL     1       0.518  -3.139   0.896  0.00  0.00    -0.277 OA
ATOM      4  N   UNL     1      -1.623  -3.710   1.437  0.00  0.00    -0.311 N 
ATOM      5  C   UNL     1      -2.950  -3.371   0.915  0.00  0.00    +0.006 C 
ATOM      6  N   UNL     1      -2.780  -2.151   0.095  0.00  0.00    +0.401 N 
ATOM      7  C   UNL     1      -3.480  -4.507   0.043  0.00  0.00    +0.025 C 
ATOM      8  C   UNL     1      -3.615  -5.777   0.890  0.00  0.00    +0.108 C 
ATOM      9  N   UNL     1      -4.439  -5.474   2.068  0.00  0.00    -0.298 N 
ATOM     10  C   UNL     1      -4.053  -4.348   2.930  0.00  0.00    +0.108 C 
ATOM     11  C   UNL     1      -3.914  -3.091   2.066  0.00  0.00    +0.025 C 
ATOM     12  C   UNL     1      -5.528  -6.215   2.353  0.00  0.00    +0.247 C 
ATOM     13  O   UNL     1      -6.268  -5.884   3.259  0.00  0.00    -0.270 OA
ATOM     14  H   UNL     1      -2.930  -1.324   0.653  0.00  0.00    -0.082 HD
ATOM     15  H   UNL     1      -3.402  -2.165  -0.699  0.00  0.00    -0.082 HD
ENDROOT
BRANCH  12  16
ATOM     16  C   UNL     1      -5.823  -7.429   1.563  0.00  0.00    +0.037 A 
ATOM     17  C   UNL     1      -4.782  -8.237   1.104  0.00  0.00    +0.013 A 
ATOM     18  C   UNL     1      -5.064  -9.369   0.368  0.00  0.00    +0.004 A 
ATOM     19  C   UNL     1      -6.376  -9.705   0.085  0.00  0.00    -0.050 A 
ATOM     20  C   UNL     1      -7.413  -8.908   0.536  0.00  0.00    +0.004 A 
ATOM     21  C   UNL     1      -7.145  -7.776   1.279  0.00  0.00    +0.013 A 
ATOM     22  C   UNL     1      -6.676 -10.943  -0.720  0.00  0.00    +0.044 C 
ENDBRANCH  12  16
BRANCH   4  23
ATOM     23  C   UNL     1      -1.362  -4.608   2.564  0.00  0.00    +0.071 C 
ATOM     24  C   UNL     1      -1.229  -3.790   3.852  0.00  0.00    +0.004 C 
ATOM     25  C   UNL     1      -0.877  -4.726   5.010  0.00  0.00    -0.077 C 
ATOM     26  N   UNL     1       0.393  -5.405   4.728  0.00  0.00    +0.382 N 
ATOM     27  C   UNL     1       0.251  -6.248   3.534  0.00  0.00    -0.077 C 
ATOM     28  C   UNL     1      -0.057  -5.371   2.319  0.00  0.00    +0.004 C 
ATOM     29  H   UNL     1       1.113  -4.717   4.568  0.00  0.00    -0.081 HD
BRANCH  26  30
ATOM     30  C   UNL     1       0.765  -6.242   5.876  0.00  0.00    -0.043 C 
BRANCH  30  31
ATOM     31  C   UNL     1       2.126  -6.844   5.639  0.00  0.00    -0.064 A 
ATOM     32  C   UNL     1       2.240  -8.065   5.000  0.00  0.00    +0.002 A 
ATOM     33  C   UNL     1       3.489  -8.616   4.782  0.00  0.00    +0.000 A 
ATOM     34  C   UNL     1       4.623  -7.948   5.203  0.00  0.00    +0.000 A 
ATOM     35  C   UNL     1       4.509  -6.727   5.842  0.00  0.00    +0.000 A 
ATOM     36  C   UNL     1       3.260  -6.173   6.055  0.00  0.00    +0.002 A 
ENDBRANCH  30  31
ENDBRANCH  26  30
ENDBRANCH   4  23
BRANCH   1  37
ATOM     37  C   UNL     1      -0.745  -0.842  -0.418  0.00  0.00    -0.020 C 
ATOM     38  C   UNL     1      -0.719  -0.221   0.980  0.00  0.00    +0.006 C 
BRANCH  37  40
ATOM     39  C   UNL     1       1.262   0.455  -1.146  0.00  0.00    +0.004 C 
ATOM     40  C   UNL     1       0.684  -0.948  -0.955  0.00  0.00    -0.001 C 
ENDBRANCH  37  40
ENDBRANCH   1  37
TORSDOF 6
