REMARK  Name = ZINC21101926
REMARK  8 active torsions:
REMARK  status: ('A' for Active; 'I' for Inactive)
REMARK    1  A    between atoms: C_1  and  O_2
REMARK    2  A    between atoms: O_2  and  C_3
REMARK    3  A    between atoms: C_10  and  N_14
REMARK    4  A    between atoms: N_17  and  C_18
REMARK    5  A    between atoms: C_20  and  O_26
REMARK    6  A    between atoms: C_22  and  O_24
REMARK    7  A    between atoms: O_24  and  C_25
REMARK    8  A    between atoms: O_26  and  C_27
REMARK                            x       y       z     vdW  Elec       q    Type
REMARK                         _______ _______ _______ _____ _____    ______ ____
ROOT
ATOM      1  N   UNL     1      -2.812   7.467   4.969  0.00  0.00    -0.293 N 
ATOM      2  C   UNL     1      -2.433   8.551   5.674  0.00  0.00    +0.304 C 
ATOM      3  O   UNL     1      -1.411   9.140   5.380  0.00  0.00    -0.252 OA
ATOM      4  N   UNL     1      -3.186   8.982   6.705  0.00  0.00    -0.269 N 
ATOM      5  H   UNL     1      -3.737   6.934   5.235  0.00  0.00    +0.151 HD
ATOM      6  H   UNL     1      -4.154   8.504   6.917  0.00  0.00    +0.156 HD
ENDROOT
BRANCH   1  14
ATOM      7  C   UNL     1      -0.901   3.336   0.836  0.00  0.00    +0.121 A 
ATOM      8  C   UNL     1      -0.556   4.273  -0.126  0.00  0.00    +0.049 A 
ATOM      9  C   UNL     1      -0.758   5.616   0.118  0.00  0.00    +0.049 A 
ATOM     10  C   UNL     1      -1.308   6.034   1.325  0.00  0.00    +0.124 A 
ATOM     11  C   UNL     1      -1.654   5.099   2.284  0.00  0.00    -0.000 A 
ATOM     12  C   UNL     1      -1.455   3.751   2.036  0.00  0.00    +0.053 A 
ATOM     13  C   UNL     1      -2.258   5.511   3.602  0.00  0.00    +0.064 C 
ATOM     14  C   UNL     1      -1.994   6.998   3.848  0.00  0.00    +0.116 C 
ATOM     15  C   UNL     1      -2.368   7.771   2.576  0.00  0.00    +0.251 C 
ATOM     16  O   UNL     1      -1.485   7.367   1.529  0.00  0.00    -0.490 OA
BRANCH   7  18
ATOM     17  C   UNL     1      -0.133   1.656  -0.662  0.00  0.00    +0.277 C 
ATOM     18  O   UNL     1      -0.702   2.011   0.599  0.00  0.00    -0.495 OA
ENDBRANCH   7  18
ENDBRANCH   1  14
BRANCH   4  19
ATOM     19  C   UNL     1      -2.737  10.038   7.506  0.00  0.00    +0.042 A 
ATOM     20  C   UNL     1      -1.380  10.195   7.751  0.00  0.00    +0.069 A 
ATOM     21  C   UNL     1      -0.935  11.244   8.541  0.00  0.00    +0.125 A 
ATOM     22  C   UNL     1      -1.847  12.131   9.095  0.00  0.00    +0.091 A 
ATOM     23  C   UNL     1      -3.204  11.971   8.855  0.00  0.00    +0.125 A 
ATOM     24  C   UNL     1      -3.649  10.925   8.061  0.00  0.00    +0.069 A 
BRANCH  23  25
ATOM     25  O   UNL     1      -4.096  12.840   9.398  0.00  0.00    -0.495 OA
ATOM     26  C   UNL     1      -3.567  13.894  10.205  0.00  0.00    +0.277 C 
ENDBRANCH  23  25
BRANCH  21  27
ATOM     27  O   UNL     1       0.394  11.401   8.777  0.00  0.00    -0.495 OA
ATOM     28  C   UNL     1       0.781  12.501   9.604  0.00  0.00    +0.277 C 
ENDBRANCH  21  27
ENDBRANCH   4  19
TORSDOF 5
