REMARK  Name = ZINC02731724
REMARK  13 active torsions:
REMARK  status: ('A' for Active; 'I' for Inactive)
REMARK    1  A    between atoms: C_1  and  C_2
REMARK    2  A    between atoms: C_2  and  C_3
REMARK    3  A    between atoms: C_3  and  O_4
REMARK    4  A    between atoms: O_4  and  C_5
REMARK    5  A    between atoms: C_7  and  C_28
REMARK    6  A    between atoms: C_12  and  C_17
REMARK    7  A    between atoms: C_22  and  O_23
REMARK    8  A    between atoms: O_23  and  C_24
REMARK    9  A    between atoms: C_26  and  C_27
REMARK   10  A    between atoms: C_31  and  O_36
REMARK   11  A    between atoms: C_32  and  O_34
REMARK   12  A    between atoms: O_34  and  C_35
REMARK   13  A    between atoms: O_36  and  C_37
REMARK                            x       y       z     vdW  Elec       q    Type
REMARK                         _______ _______ _______ _____ _____    ______ ____
ROOT
ATOM      1  C   UNL     1      -2.597  -2.592   0.094  0.00  0.00    +0.338 C 
ATOM      2  C   UNL     1      -2.655  -3.970   0.047  0.00  0.00    +0.069 C 
ATOM      3  C   UNL     1      -3.984  -4.654   0.166  0.00  0.00    +0.093 C 
ATOM      4  C   UNL     1      -3.831  -6.152   0.095  0.00  0.00    +0.028 C 
ATOM      5  C   UNL     1      -2.597  -6.736  -0.067  0.00  0.00    +0.050 C 
ATOM      6  C   UNL     1      -2.464  -8.239  -0.145  0.00  0.00    +0.064 C 
ATOM      7  C   UNL     1      -3.566  -8.896   0.687  0.00  0.00    +0.036 C 
ATOM      8  C   UNL     1      -4.924  -8.434   0.148  0.00  0.00    +0.088 C 
ATOM      9  C   UNL     1      -4.986  -6.932   0.201  0.00  0.00    +0.162 C 
ATOM     10  O   UNL     1      -6.064  -6.385   0.338  0.00  0.00    -0.292 OA
ATOM     11  N   UNL     1      -1.488  -6.007  -0.160  0.00  0.00    -0.256 NA
ATOM     12  C   UNL     1      -1.485  -4.693  -0.114  0.00  0.00    +0.049 C 
ATOM     13  C   UNL     1      -0.176  -3.956  -0.233  0.00  0.00    +0.066 C 
ATOM     14  O   UNL     1      -3.735  -1.871   0.125  0.00  0.00    -0.245 OA
ENDROOT
BRANCH   7  15
ATOM     15  C   UNL     1      -3.458 -10.395   0.578  0.00  0.00    -0.002 A 
ATOM     16  C   UNL     1      -3.559 -11.008  -0.656  0.00  0.00    +0.007 A 
ATOM     17  C   UNL     1      -3.460 -12.383  -0.756  0.00  0.00    +0.001 A 
ATOM     18  C   UNL     1      -3.259 -13.149   0.377  0.00  0.00    +0.004 A 
ATOM     19  C   UNL     1      -3.157 -12.541   1.613  0.00  0.00    +0.046 A 
ATOM     20  C   UNL     1      -3.251 -11.161   1.716  0.00  0.00    +0.124 A 
BRANCH  20  21
ATOM     21  O   UNL     1      -3.145 -10.560   2.931  0.00  0.00    -0.495 OA
ATOM     22  C   UNL     1      -2.932 -11.410   4.059  0.00  0.00    +0.277 C 
ENDBRANCH  20  21
ENDBRANCH   7  15
BRANCH   3  23
ATOM     23  C   UNL     1      -4.615  -4.284   1.484  0.00  0.00    -0.031 A 
ATOM     24  C   UNL     1      -3.966  -4.584   2.667  0.00  0.00    +0.008 A 
ATOM     25  C   UNL     1      -4.541  -4.247   3.878  0.00  0.00    +0.050 A 
ATOM     26  C   UNL     1      -5.769  -3.607   3.908  0.00  0.00    +0.162 A 
ATOM     27  C   UNL     1      -6.422  -3.304   2.717  0.00  0.00    +0.162 A 
ATOM     28  C   UNL     1      -5.838  -3.641   1.506  0.00  0.00    +0.054 A 
BRANCH  27  29
ATOM     29  O   UNL     1      -7.628  -2.676   2.741  0.00  0.00    -0.491 OA
ATOM     30  C   UNL     1      -8.239  -2.397   1.480  0.00  0.00    +0.277 C 
ENDBRANCH  27  29
BRANCH  26  31
ATOM     31  O   UNL     1      -6.336  -3.275   5.099  0.00  0.00    -0.491 OA
ATOM     32  C   UNL     1      -5.609  -3.616   6.281  0.00  0.00    +0.277 C 
ENDBRANCH  26  31
ENDBRANCH   3  23
BRANCH   1  33
ATOM     33  O   UNL     1      -1.403  -1.968   0.108  0.00  0.00    -0.461 OA
BRANCH  33  34
ATOM     34  C   UNL     1      -1.419  -0.540   0.157  0.00  0.00    +0.232 C 
BRANCH  34  36
ATOM     35  C   UNL     1       0.002   1.514   0.219  0.00  0.00    +0.007 C 
ATOM     36  C   UNL     1       0.018  -0.015   0.167  0.00  0.00    +0.038 C 
ENDBRANCH  34  36
ENDBRANCH  33  34
ENDBRANCH   1  33
TORSDOF 8
