REMARK  Name = ZINC64683516
REMARK  7 active torsions:
REMARK  status: ('A' for Active; 'I' for Inactive)
REMARK    1  A    between atoms: CG_7  and  CB_10
REMARK    2  A    between atoms: CB_10  and  CA_11
REMARK    3  A    between atoms: CA_11  and  C_13
REMARK    4  A    between atoms: CA_11  and  N_16
REMARK    5  A    between atoms: N_19  and  C_20
REMARK    6  A    between atoms: C_20  and  C_21
REMARK    7  A    between atoms: N_23  and  C_24
REMARK                            x       y       z     vdW  Elec       q    Type
REMARK                         _______ _______ _______ _____ _____    ______ ____
ROOT
ATOM      1  N   TRP A   1      -0.238  -2.603  -2.210  0.00  0.00    -0.286 N 
ATOM      2  C   UNK A   0      -0.118  -2.539  -3.551  0.00  0.00    +0.301 C 
ATOM      3  O   UNK A   0       0.568  -3.353  -4.139  0.00  0.00    -0.253 OA
ATOM      4  N   UNK A   0      -0.757  -1.572  -4.239  0.00  0.00    -0.291 N 
ATOM      5  H   TRP A   1      -0.785  -1.954  -1.741  0.00  0.00    +0.151 HD
ATOM      6  H   UNK A   0      -1.304  -0.923  -3.770  0.00  0.00    +0.151 HD
ENDROOT
BRANCH   1   7
ATOM      7  CA  TRP A   1       0.457  -3.653  -1.462  0.00  0.00    +0.191 C 
BRANCH   7   8
ATOM      8  C   TRP A   1      -0.385  -4.904  -1.452  0.00  0.00    +0.376 C 
ATOM      9  O   TRP A   1      -1.535  -4.868  -1.856  0.00  0.00    -0.244 OA
ATOM     10  OXT TRP A   1       0.085  -5.951  -1.042  0.00  0.00    -0.244 OA
ENDBRANCH   7   8
BRANCH   7  11
ATOM     11  CB  TRP A   1       0.691  -3.186  -0.024  0.00  0.00    +0.067 C 
BRANCH  11  18
ATOM     12  CZ3 TRP A   1      -0.016   1.348   0.009  0.00  0.00    +0.001 A 
ATOM     13  CH2 TRP A   1       1.166   2.101   0.002  0.00  0.00    +0.002 A 
ATOM     14  CZ2 TRP A   1       2.391   1.535  -0.013  0.00  0.00    +0.026 A 
ATOM     15  CE2 TRP A   1       2.529   0.120  -0.022  0.00  0.00    +0.043 A 
ATOM     16  NE1 TRP A   1       3.587  -0.654  -0.037  0.00  0.00    -0.380 N 
ATOM     17  CD1 TRP A   1       3.143  -2.053  -0.041  0.00  0.00    +0.144 C 
ATOM     18  CG  TRP A   1       1.631  -2.008  -0.025  0.00  0.00    -0.039 C 
ATOM     19  CD2 TRP A   1       1.295  -0.698  -0.014  0.00  0.00    -0.001 A 
ATOM     20  CE3 TRP A   1       0.002  -0.004   0.002  0.00  0.00    +0.010 A 
ATOM     21  HE1 TRP A   1       4.509  -0.353  -0.045  0.00  0.00    +0.160 HD
ENDBRANCH  11  18
ENDBRANCH   7  11
ENDBRANCH   1   7
BRANCH   4  22
ATOM     22  C   UNK A   0      -0.626  -1.502  -5.697  0.00  0.00    +0.201 C 
BRANCH  22  23
ATOM     23  C   UNK A   0      -1.432  -0.341  -6.219  0.00  0.00    +0.230 C 
ATOM     24  O   UNK A   0      -2.055   0.359  -5.449  0.00  0.00    -0.274 OA
ATOM     25  N   UNK A   0      -1.461  -0.081  -7.541  0.00  0.00    -0.311 N 
ATOM     26  H   UNK A   0      -0.963  -0.641  -8.156  0.00  0.00    +0.149 HD
BRANCH  25  27
ATOM     27  C   UNK A   0      -2.245   1.048  -8.048  0.00  0.00    +0.073 C 
ATOM     28  C   UNK A   0      -3.697   0.610  -8.251  0.00  0.00    +0.022 C 
ATOM     29  C   UNK A   0      -4.516   1.789  -8.781  0.00  0.00    +0.002 C 
ATOM     30  C   UNK A   0      -3.933   2.256 -10.116  0.00  0.00    +0.000 C 
ATOM     31  C   UNK A   0      -2.481   2.694  -9.913  0.00  0.00    +0.002 C 
ATOM     32  C   UNK A   0      -1.662   1.515  -9.383  0.00  0.00    +0.022 C 
ENDBRANCH  25  27
ENDBRANCH  22  23
ENDBRANCH   4  22
TORSDOF 7
