REMARK  Name = ZINC57173255
REMARK  11 active torsions:
REMARK  status: ('A' for Active; 'I' for Inactive)
REMARK    1  A    between atoms: C_1  and  C_2
REMARK    2  A    between atoms: C_2  and  C_3
REMARK    3  A    between atoms: C_2  and  C_4
REMARK    4  A    between atoms: C_4  and  C_6
REMARK    5  A    between atoms: C_4  and  N_15
REMARK    6  A    between atoms: N_8  and  C_9
REMARK    7  A    between atoms: C_9  and  C_10
REMARK    8  A    between atoms: C_10  and  S_11
REMARK    9  A    between atoms: S_11  and  N_14
REMARK   10  A    between atoms: C_16  and  C_18
REMARK   11  A    between atoms: C_18  and  C_19
REMARK                            x       y       z     vdW  Elec       q    Type
REMARK                         _______ _______ _______ _____ _____    ______ ____
ROOT
ATOM      1  C   UNL     1      -1.433  -0.534   0.013  0.00  0.00    +0.161 C 
ENDROOT
BRANCH   1   2
ATOM      2  C   UNL     1      -2.125  -0.137  -1.266  0.00  0.00    +0.234 C 
ATOM      3  O   UNL     1      -3.122   0.552  -1.228  0.00  0.00    -0.274 OA
ATOM      4  N   UNL     1      -1.635  -0.549  -2.452  0.00  0.00    -0.312 N 
ATOM      5  H   UNL     1      -0.837  -1.100  -2.483  0.00  0.00    +0.149 HD
BRANCH   4   6
ATOM      6  C   UNL     1      -2.307  -0.163  -3.696  0.00  0.00    +0.128 C 
BRANCH   6   7
ATOM      7  C   UNL     1      -1.553  -0.757  -4.888  0.00  0.00    +0.203 C 
BRANCH   7   8
ATOM      8  S   UNL     1      -2.386  -0.280  -6.428  0.00  0.00    +0.028 S 
ATOM      9  O   UNL     1      -3.655  -0.911  -6.514  0.00  0.00    -0.158 OA
ATOM     10  O   UNL     1      -2.257   1.119  -6.640  0.00  0.00    -0.158 OA
BRANCH   8  11
ATOM     11  N   UNL     1      -1.485  -0.975  -7.631  0.00  0.00    -0.208 NA
ATOM     12  H   UNL     1      -0.701  -1.501  -7.408  0.00  0.00    +0.144 HD
ATOM     13  H   UNL     1      -1.742  -0.856  -8.559  0.00  0.00    +0.144 HD
ENDBRANCH   8  11
ENDBRANCH   7   8
ENDBRANCH   6   7
ENDBRANCH   4   6
ENDBRANCH   1   2
BRANCH   1  14
ATOM     14  N   UNL     1      -2.155   0.035   1.154  0.00  0.00    -0.303 N 
ATOM     15  C   UNL     1      -2.067  -0.550   2.366  0.00  0.00    +0.218 C 
ATOM     16  O   UNL     1      -1.391  -1.546   2.511  0.00  0.00    -0.275 OA
ATOM     17  H   UNL     1      -2.696   0.831   1.038  0.00  0.00    +0.149 HD
BRANCH  15  18
ATOM     18  C   UNL     1      -2.809   0.034   3.540  0.00  0.00    +0.131 C 
BRANCH  18  19
ATOM     19  C   UNL     1      -2.546  -0.800   4.766  0.00  0.00    -0.038 A 
ATOM     20  C   UNL     1      -3.384  -1.875   5.058  0.00  0.00    +0.005 A 
ATOM     21  C   UNL     1      -3.175  -2.649   6.158  0.00  0.00    +0.009 A 
ATOM     22  C   UNL     1      -2.098  -2.363   7.014  0.00  0.00    -0.018 A 
ATOM     23  C   UNL     1      -1.849  -3.139   8.159  0.00  0.00    +0.008 A 
ATOM     24  C   UNL     1      -0.796  -2.833   8.965  0.00  0.00    +0.001 A 
ATOM     25  C   UNL     1       0.042  -1.758   8.673  0.00  0.00    +0.001 A 
ATOM     26  C   UNL     1      -0.168  -0.985   7.573  0.00  0.00    +0.008 A 
ATOM     27  C   UNL     1      -1.245  -1.270   6.717  0.00  0.00    -0.018 A 
ATOM     28  C   UNL     1      -1.490  -0.497   5.570  0.00  0.00    +0.012 A 
ENDBRANCH  18  19
ENDBRANCH  15  18
ENDBRANCH   1  14
BRANCH   1  30
ATOM     29  C   UNL     1      -0.019   1.526   0.010  0.00  0.00    +0.009 C 
ATOM     30  C   UNL     1       0.002  -0.004   0.002  0.00  0.00    +0.012 C 
ATOM     31  C   UNL     1       0.742  -0.511   1.242  0.00  0.00    +0.009 C 
ENDBRANCH   1  30
TORSDOF 9
