REMARK  Name = ZINC25605603
REMARK  7 active torsions:
REMARK  status: ('A' for Active; 'I' for Inactive)
REMARK    1  A    between atoms: C_1  and  C_2
REMARK    2  A    between atoms: C_5  and  C_8
REMARK    3  A    between atoms: C_11  and  S_14
REMARK    4  A    between atoms: N_12  and  N_13
REMARK    5  A    between atoms: S_14  and  C_15
REMARK    6  A    between atoms: C_15  and  C_16
REMARK    7  A    between atoms: C_22  and  C_25
REMARK                            x       y       z     vdW  Elec       q    Type
REMARK                         _______ _______ _______ _____ _____    ______ ____
ROOT
ATOM      1  C   UNL     1       1.565  -1.237  -9.320  0.00  0.00    +0.182 A 
ATOM      2  N   UNL     1       0.291  -1.260  -9.004  0.00  0.00    -0.127 NA
ATOM      3  N   UNL     1       0.156  -1.287  -7.726  0.00  0.00    -0.121 NA
ATOM      4  C   UNL     1       1.336  -1.283  -7.148  0.00  0.00    +0.209 A 
ATOM      5  N   UNL     1       2.273  -1.245  -8.140  0.00  0.00    -0.224 N 
ENDROOT
BRANCH   1  10
ATOM      6  C   UNL     1       3.770  -1.103 -14.633  0.00  0.00    +0.044 C 
ATOM      7  C   UNL     1       3.192  -1.139 -13.242  0.00  0.00    -0.050 A 
ATOM      8  C   UNL     1       1.854  -0.850 -13.044  0.00  0.00    +0.004 A 
ATOM      9  C   UNL     1       1.319  -0.881 -11.773  0.00  0.00    +0.012 A 
ATOM     10  C   UNL     1       2.131  -1.204 -10.685  0.00  0.00    +0.021 A 
ATOM     11  C   UNL     1       3.482  -1.488 -10.891  0.00  0.00    +0.012 A 
ATOM     12  C   UNL     1       4.003  -1.460 -12.168  0.00  0.00    +0.004 A 
ENDBRANCH   1  10
BRANCH   5  13
ATOM     13  N   UNL     1       3.631  -1.223  -7.993  0.00  0.00    -0.295 N 
ATOM     14  H   UNL     1       4.075  -1.233  -6.987  0.00  0.00    +0.163 HD
ATOM     15  H   UNL     1       4.280  -1.195  -8.881  0.00  0.00    +0.163 HD
ENDBRANCH   5  13
BRANCH   4  16
ATOM     16  S   UNL     1       1.651  -1.313  -5.414  0.00  0.00    -0.078 S 
BRANCH  16  17
ATOM     17  C   UNL     1      -0.047  -1.347  -4.788  0.00  0.00    +0.134 C 
BRANCH  17  18
ATOM     18  C   UNL     1      -0.026  -1.377  -3.281  0.00  0.00    +0.070 A 
ATOM     19  C   UNL     1       0.011  -2.489  -2.515  0.00  0.00    +0.116 A 
ATOM     20  N   UNL     1       0.018  -2.080  -1.209  0.00  0.00    -0.306 N 
ATOM     21  C   UNL     1       0.038  -2.763  -0.028  0.00  0.00    +0.093 A 
ATOM     22  C   UNL     1       0.041  -2.102   1.149  0.00  0.00    +0.018 A 
ATOM     23  C   UNL     1       0.023  -0.697   1.172  0.00  0.00    +0.008 A 
ATOM     24  C   UNL     1       0.002  -0.004   0.002  0.00  0.00    -0.008 A 
ATOM     25  C   UNL     1      -0.006  -0.709  -1.218  0.00  0.00    +0.141 A 
ATOM     26  N   UNL     1      -0.029  -0.308  -2.481  0.00  0.00    -0.232 NA
ATOM     27  C   UNL     1      -0.018   1.503   0.010  0.00  0.00    +0.047 C 
ENDBRANCH  17  18
ENDBRANCH  16  17
ENDBRANCH   4  16
TORSDOF 5
