REMARK  Name = ZINC43921684
REMARK  6 active torsions:
REMARK  status: ('A' for Active; 'I' for Inactive)
REMARK    1  A    between atoms: C_1  and  C_2
REMARK    2  A    between atoms: C_6  and  C_21
REMARK    3  A    between atoms: N_11  and  C_13
REMARK    4  A    between atoms: C_17  and  O_19
REMARK    5  A    between atoms: O_19  and  C_20
REMARK    6  A    between atoms: N_23  and  C_24
REMARK                            x       y       z     vdW  Elec       q    Type
REMARK                         _______ _______ _______ _____ _____    ______ ____
ROOT
ATOM      1  C   UNL     1      -1.964   0.392  -0.047  0.00  0.00    +0.068 C 
ATOM      2  C   UNL     1      -0.913  -0.689  -0.060  0.00  0.00    +0.073 A 
ATOM      3  C   UNL     1      -0.235  -1.168  -1.200  0.00  0.00    +0.087 A 
ATOM      4  C   UNL     1      -0.290  -0.835  -2.628  0.00  0.00    +0.205 A 
ATOM      5  O   UNL     1      -1.043   0.025  -3.052  0.00  0.00    -0.286 OA
ATOM      6  C   UNL     1       0.604  -1.583  -3.529  0.00  0.00    +0.100 A 
ATOM      7  C   UNL     1       1.434  -2.543  -2.988  0.00  0.00    +0.101 A 
ATOM      8  N   UNL     1       1.446  -2.811  -1.675  0.00  0.00    -0.345 N 
ATOM      9  H   UNL     1       2.049  -3.497  -1.348  0.00  0.00    +0.167 HD
ATOM     10  C   UNL     1       0.647  -2.161  -0.775  0.00  0.00    +0.146 A 
ATOM     11  N   UNL     1       0.496  -2.265   0.572  0.00  0.00    -0.215 N 
ATOM     12  N   UNL     1      -0.471  -1.339   0.980  0.00  0.00    -0.169 NA
ENDROOT
BRANCH  11  13
ATOM     13  C   UNL     1       1.192  -3.147   1.409  0.00  0.00    +0.071 A 
ATOM     14  C   UNL     1       1.540  -4.411   0.952  0.00  0.00    +0.028 A 
ATOM     15  C   UNL     1       2.227  -5.280   1.778  0.00  0.00    +0.006 A 
ATOM     16  C   UNL     1       2.570  -4.894   3.060  0.00  0.00    +0.046 A 
ATOM     17  C   UNL     1       2.225  -3.631   3.522  0.00  0.00    +0.122 A 
ATOM     18  C   UNL     1       1.540  -2.755   2.694  0.00  0.00    +0.073 A 
BRANCH  17  19
ATOM     19  O   UNL     1       2.562  -3.253   4.782  0.00  0.00    -0.495 OA
ATOM     20  C   UNL     1       3.271  -4.205   5.578  0.00  0.00    +0.277 C 
ENDBRANCH  17  19
ENDBRANCH  11  13
BRANCH   6  21
ATOM     21  C   UNL     1       0.612  -1.311  -4.974  0.00  0.00    +0.253 C 
ATOM     22  O   UNL     1       1.280  -2.003  -5.720  0.00  0.00    -0.270 OA
ATOM     23  N   UNL     1      -0.120  -0.295  -5.473  0.00  0.00    -0.281 N 
ATOM     24  H   UNL     1      -0.567   0.321  -4.873  0.00  0.00    +0.155 HD
BRANCH  23  25
ATOM     25  C   UNL     1      -0.234  -0.129  -6.859  0.00  0.00    +0.037 A 
ATOM     26  C   UNL     1      -0.333  -1.240  -7.686  0.00  0.00    +0.026 A 
ATOM     27  C   UNL     1      -0.446  -1.075  -9.053  0.00  0.00    +0.043 A 
ATOM     28  C   UNL     1      -0.460   0.196  -9.599  0.00  0.00    +0.159 A 
ATOM     29  C   UNL     1      -0.361   1.308  -8.776  0.00  0.00    +0.160 A 
ATOM     30  C   UNL     1      -0.254   1.146  -7.406  0.00  0.00    +0.064 A 
ATOM     31  F   UNL     1      -0.375   2.548  -9.310  0.00  0.00    -0.202 F 
ATOM     32  F   UNL     1      -0.570   0.355 -10.936  0.00  0.00    -0.202 F 
ENDBRANCH  23  25
ENDBRANCH   6  21
TORSDOF 4
