REMARK  Name = ZINC41849011
REMARK  4 active torsions:
REMARK  status: ('A' for Active; 'I' for Inactive)
REMARK    1  A    between atoms: C_8  and  C_11
REMARK    2  A    between atoms: C_11  and  N_12
REMARK    3  A    between atoms: C_13  and  C_15
REMARK    4  A    between atoms: N_17  and  C_18
REMARK                            x       y       z     vdW  Elec       q    Type
REMARK                         _______ _______ _______ _____ _____    ______ ____
ROOT
ATOM      1  C   UNL     1       7.529  -4.034  -0.076  0.00  0.00    +0.303 C 
ATOM      2  O   UNL     1       7.899  -3.199  -0.876  0.00  0.00    -0.265 OA
ATOM      3  N   UNL     1       8.410  -4.922   0.428  0.00  0.00    -0.278 N 
ATOM      4  H   UNL     1       8.130  -5.545   1.117  0.00  0.00    +0.155 HD
ENDROOT
BRANCH   3   5
ATOM      5  C   UNL     1       9.727  -4.944  -0.042  0.00  0.00    +0.038 A 
ATOM      6  C   UNL     1      10.404  -6.152  -0.152  0.00  0.00    +0.027 A 
ATOM      7  C   UNL     1      11.706  -6.176  -0.615  0.00  0.00    +0.051 A 
ATOM      8  C   UNL     1      12.338  -4.997  -0.971  0.00  0.00    +0.167 A 
ATOM      9  C   UNL     1      11.659  -3.783  -0.863  0.00  0.00    +0.169 A 
ATOM     10  C   UNL     1      10.355  -3.759  -0.404  0.00  0.00    +0.073 A 
ATOM     11  O   UNL     1      12.500  -2.783  -1.276  0.00  0.00    -0.447 OA
ATOM     12  C   UNL     1      13.808  -3.358  -1.146  0.00  0.00    +0.254 C 
ATOM     13  O   UNL     1      13.598  -4.745  -1.448  0.00  0.00    -0.448 OA
ATOM     14  C   UNL     1      14.357  -3.174   0.272  0.00  0.00    +0.093 C 
ATOM     15  C   UNL     1      15.881  -2.973   0.060  0.00  0.00    +0.008 C 
ATOM     16  C   UNL     1      15.941  -2.142  -1.247  0.00  0.00    +0.008 C 
ATOM     17  C   UNL     1      14.800  -2.717  -2.116  0.00  0.00    +0.093 C 
ENDBRANCH   3   5
BRANCH   1  19
ATOM     18  N   UNL     1       5.218  -3.189  -0.153  0.00  0.00    -0.304 N 
ATOM     19  C   UNL     1       6.099  -4.077   0.350  0.00  0.00    +0.299 C 
ATOM     20  O   UNL     1       5.729  -4.912   1.150  0.00  0.00    -0.265 OA
ATOM     21  H   UNL     1       5.514  -2.522  -0.793  0.00  0.00    +0.149 HD
BRANCH  18  22
ATOM     22  C   UNL     1       3.815  -3.232   0.265  0.00  0.00    +0.149 C 
BRANCH  22  30
ATOM     23  C   UNL     1      -0.007   1.393   0.009  0.00  0.00    +0.000 A 
ATOM     24  C   UNL     1       1.186   2.093  -0.009  0.00  0.00    +0.004 A 
ATOM     25  C   UNL     1       2.389   1.420  -0.021  0.00  0.00    +0.046 A 
ATOM     26  C   UNL     1       2.414   0.027  -0.017  0.00  0.00    +0.124 A 
ATOM     27  C   UNL     1       1.210  -0.665  -0.007  0.00  0.00    -0.002 A 
ATOM     28  C   UNL     1       0.009   0.009   0.009  0.00  0.00    +0.007 A 
ATOM     29  C   UNL     1       1.548  -2.143  -0.029  0.00  0.00    +0.085 C 
ATOM     30  C   UNL     1       3.037  -2.125  -0.450  0.00  0.00    +0.195 C 
ATOM     31  O   UNL     1       3.474  -0.827  -0.015  0.00  0.00    -0.487 OA
ENDBRANCH  22  30
ENDBRANCH  18  22
ENDBRANCH   1  19
TORSDOF 4
