REMARK  Name = ZINC02192774
REMARK  5 active torsions:
REMARK  status: ('A' for Active; 'I' for Inactive)
REMARK    1  A    between atoms: C_1  and  C_2
REMARK    2  A    between atoms: C_7  and  C_8
REMARK    3  A    between atoms: N_10  and  C_11
REMARK    4  A    between atoms: C_11  and  C_25
REMARK    5  A    between atoms: N_14  and  C_18
REMARK                            x       y       z     vdW  Elec       q    Type
REMARK                         _______ _______ _______ _____ _____    ______ ____
ROOT
ATOM      1  C   UNL     1       4.731   6.105   0.319  0.00  0.00    +0.278 C 
ATOM      2  C   UNL     1       3.265   5.845   0.601  0.00  0.00    +0.279 C 
ATOM      3  O   UNL     1       2.369   6.662   0.631  0.00  0.00    -0.270 OA
ATOM      4  N   UNL     1       3.164   4.518   0.812  0.00  0.00    -0.191 N 
ATOM      5  C   UNL     1       4.350   3.909   0.698  0.00  0.00    +0.315 C 
ATOM      6  O   UNL     1       4.511   2.713   0.841  0.00  0.00    -0.252 OA
ATOM      7  N   UNL     1       5.343   4.768   0.406  0.00  0.00    -0.263 N 
ATOM      8  H   UNL     1       6.279   4.550   0.278  0.00  0.00    +0.153 HD
ENDROOT
BRANCH   4   9
ATOM      9  C   UNL     1       1.964   3.857   1.110  0.00  0.00    +0.046 A 
ATOM     10  C   UNL     1       1.933   2.471   1.182  0.00  0.00    +0.025 A 
ATOM     11  C   UNL     1       0.750   1.821   1.475  0.00  0.00    +0.022 A 
ATOM     12  C   UNL     1      -0.406   2.551   1.692  0.00  0.00    +0.041 A 
ATOM     13  C   UNL     1      -0.376   3.933   1.627  0.00  0.00    +0.022 A 
ATOM     14  C   UNL     1       0.805   4.587   1.334  0.00  0.00    +0.025 A 
ATOM     15 CL   UNL     1      -1.893   1.732   2.053  0.00  0.00    -0.084 Cl
ENDBRANCH   4   9
BRANCH   1  18
ATOM     16  C   UNL     1       4.253   7.793  -1.372  0.00  0.00    +0.246 C 
ATOM     17  O   UNL     1       3.455   8.296  -0.606  0.00  0.00    -0.270 OA
ATOM     18  N   UNL     1       4.903   6.664  -1.024  0.00  0.00    -0.276 N 
ATOM     19  H   UNL     1       5.484   6.222  -1.663  0.00  0.00    +0.152 HD
BRANCH  16  26
ATOM     20  C   UNL     1       2.928  10.270  -2.062  0.00  0.00    +0.044 C 
ATOM     21  C   UNL     1       3.879   9.614  -3.030  0.00  0.00    -0.038 A 
ATOM     22  C   UNL     1       4.124  10.193  -4.258  0.00  0.00    +0.004 A 
ATOM     23  C   UNL     1       4.997   9.592  -5.148  0.00  0.00    +0.000 A 
ATOM     24  C   UNL     1       5.628   8.406  -4.813  0.00  0.00    +0.001 A 
ATOM     25  C   UNL     1       5.394   7.820  -3.587  0.00  0.00    +0.013 A 
ATOM     26  C   UNL     1       4.512   8.419  -2.687  0.00  0.00    +0.040 A 
ENDBRANCH  16  26
ENDBRANCH   1  18
BRANCH   1  27
ATOM     27  C   UNL     1       5.332   7.041   1.371  0.00  0.00    +0.436 C 
ATOM     28  F   UNL     1       6.690   7.237   1.099  0.00  0.00    -0.166 F 
ATOM     29  F   UNL     1       4.666   8.271   1.334  0.00  0.00    -0.166 F 
ATOM     30  F   UNL     1       5.187   6.470   2.640  0.00  0.00    -0.166 F 
ENDBRANCH   1  27
TORSDOF 4
