REMARK  Name = ZINC35960891
REMARK  9 active torsions:
REMARK  status: ('A' for Active; 'I' for Inactive)
REMARK    1  A    between atoms: C_1  and  C_2
REMARK    2  A    between atoms: C_2  and  C_3
REMARK    3  A    between atoms: C_2  and  C_4
REMARK    4  A    between atoms: C_5  and  C_17
REMARK    5  A    between atoms: C_6  and  O_16
REMARK    6  A    between atoms: N_7  and  C_9
REMARK    7  A    between atoms: C_18  and  N_31
REMARK    8  A    between atoms: N_21  and  C_24
REMARK    9  A    between atoms: N_34  and  C_37
REMARK                            x       y       z     vdW  Elec       q    Type
REMARK                         _______ _______ _______ _____ _____    ______ ____
ROOT
ATOM      1  C   UNL     1      -1.217  -1.790  -2.168  0.00  0.00    +0.078 C 
ATOM      2  C   UNL     1      -0.646  -3.024  -2.334  0.00  0.00    +0.106 C 
ATOM      3  C   UNL     1      -0.318  -3.142  -3.768  0.00  0.00    +0.272 C 
ATOM      4  O   UNL     1       0.204  -4.101  -4.300  0.00  0.00    -0.268 OA
ATOM      5  N   UNL     1      -0.692  -2.009  -4.388  0.00  0.00    -0.198 N 
ATOM      6  C   UNL     1      -1.241  -1.158  -3.504  0.00  0.00    +0.260 C 
ATOM      7  O   UNL     1      -1.680  -0.054  -3.760  0.00  0.00    -0.269 OA
ENDROOT
BRANCH   5   8
ATOM      8  C   UNL     1      -0.537  -1.754  -5.758  0.00  0.00    +0.080 A 
ATOM      9  C   UNL     1      -1.546  -2.096  -6.648  0.00  0.00    +0.027 A 
ATOM     10  C   UNL     1      -1.391  -1.844  -7.997  0.00  0.00    +0.002 A 
ATOM     11  C   UNL     1      -0.232  -1.253  -8.464  0.00  0.00    +0.003 A 
ATOM     12  C   UNL     1       0.777  -0.911  -7.582  0.00  0.00    +0.040 A 
ATOM     13  C   UNL     1       0.625  -1.154  -6.229  0.00  0.00    +0.145 A 
ATOM     14  F   UNL     1       1.608  -0.815  -5.366  0.00  0.00    -0.204 F 
ENDBRANCH   5   8
BRANCH   2  15
ATOM     15  N   UNL     1      -0.421  -3.975  -1.349  0.00  0.00    -0.323 N 
ATOM     16  C   UNL     1      -1.542  -4.579  -0.612  0.00  0.00    +0.120 C 
ATOM     17  C   UNL     1      -1.395  -6.103  -0.664  0.00  0.00    +0.103 C 
ATOM     18  N   UNL     1      -0.059  -6.480  -0.182  0.00  0.00    -0.302 NA
ATOM     19  C   UNL     1       0.994  -5.938  -1.051  0.00  0.00    +0.103 C 
ATOM     20  C   UNL     1       0.944  -4.412  -1.019  0.00  0.00    +0.120 C 
ATOM     21  C   UNL     1       0.062  -7.938  -0.054  0.00  0.00    +0.105 C 
ENDBRANCH   2  15
BRANCH   1  23
ATOM     22  C   UNL     1      -0.974  -0.427   0.008  0.00  0.00    +0.078 A 
ATOM     23  C   UNL     1      -1.715  -1.209  -0.905  0.00  0.00    +0.074 A 
ATOM     24  C   UNL     1      -3.000  -1.329  -0.393  0.00  0.00    +0.224 A 
ATOM     25  N   UNL     1      -3.027  -0.646   0.780  0.00  0.00    -0.200 N 
ATOM     26  N   UNL     1      -1.756  -0.104   1.002  0.00  0.00    -0.167 NA
BRANCH  25  27
ATOM     27  C   UNL     1      -4.136  -0.511   1.626  0.00  0.00    +0.069 A 
ATOM     28  C   UNL     1      -5.414  -0.420   1.089  0.00  0.00    +0.029 A 
ATOM     29  C   UNL     1      -6.505  -0.288   1.925  0.00  0.00    +0.022 A 
ATOM     30  C   UNL     1      -6.327  -0.245   3.296  0.00  0.00    +0.041 A 
ATOM     31  C   UNL     1      -5.055  -0.335   3.834  0.00  0.00    +0.022 A 
ATOM     32  C   UNL     1      -3.961  -0.473   3.003  0.00  0.00    +0.029 A 
ATOM     33 CL   UNL     1      -7.701  -0.077   4.344  0.00  0.00    -0.084 Cl
ENDBRANCH  25  27
BRANCH  22  35
ATOM     34  C   UNL     1       0.591   1.488  -0.166  0.00  0.00    +0.014 C 
ATOM     35  C   UNL     1       0.474  -0.037  -0.138  0.00  0.00    +0.034 C 
ATOM     36  C   UNL     1       1.272  -0.589   1.045  0.00  0.00    +0.014 C 
ENDBRANCH  22  35
BRANCH  24  37
ATOM     37  O   UNL     1      -4.032  -2.001  -0.958  0.00  0.00    -0.492 OA
ATOM     38  H   UNL     1      -4.091  -2.929  -0.691  0.00  0.00    +0.294 HD
ENDBRANCH  24  37
ENDBRANCH   1  23
TORSDOF 6
