REMARK  Name = ZINC36316028
REMARK  19 active torsions:
REMARK  status: ('A' for Active; 'I' for Inactive)
REMARK    1  A    between atoms: C_1  and  C_2
REMARK    2  A    between atoms: C_5  and  O_8
REMARK    3  A    between atoms: O_8  and  C_9
REMARK    4  A    between atoms: C_10  and  C_21
REMARK    5  A    between atoms: C_11  and  C_15
REMARK    6  A    between atoms: N_13  and  C_14
REMARK    7  A    between atoms: C_21  and  N_22
REMARK    8  A    between atoms: N_22  and  C_23
REMARK    9  A    between atoms: N_22  and  C_33
REMARK   10  A    between atoms: C_23  and  C_24
REMARK   11  A    between atoms: C_24  and  C_26
REMARK   12  A    between atoms: C_24  and  O_32
REMARK   13  A    between atoms: C_26  and  O_27
REMARK   14  A    between atoms: O_27  and  C_28
REMARK   15  A    between atoms: C_28  and  C_29
REMARK   16  A    between atoms: C_28  and  C_30
REMARK   17  A    between atoms: C_28  and  C_31
REMARK   18  A    between atoms: C_33  and  C_34
REMARK   19  A    between atoms: C_33  and  C_35
REMARK                            x       y       z     vdW  Elec       q    Type
REMARK                         _______ _______ _______ _____ _____    ______ ____
ROOT
ATOM      1  C   UNL     1       2.238  -4.846   0.448  0.00  0.00    +0.221 A 
ATOM      2  C   UNL     1       1.265  -5.748   0.736  0.00  0.00    +0.025 A 
ATOM      3  C   UNL     1       0.564  -5.280   1.864  0.00  0.00    +0.098 A 
ATOM      4  N   UNL     1       1.102  -4.137   2.234  0.00  0.00    -0.168 NA
ATOM      5  N   UNL     1       2.159  -3.846   1.363  0.00  0.00    -0.235 N 
ATOM      6  C   UNL     1       3.027  -2.667   1.426  0.00  0.00    +0.176 C 
ENDROOT
BRANCH   3   7
ATOM      7  C   UNL     1      -0.582  -5.956   2.520  0.00  0.00    +0.002 A 
ATOM      8  C   UNL     1      -1.593  -6.526   1.749  0.00  0.00    +0.010 A 
ATOM      9  C   UNL     1      -2.656  -7.154   2.364  0.00  0.00    +0.001 A 
ATOM     10  C   UNL     1      -2.720  -7.220   3.744  0.00  0.00    +0.000 A 
ATOM     11  C   UNL     1      -1.719  -6.656   4.515  0.00  0.00    +0.001 A 
ATOM     12  C   UNL     1      -0.648  -6.029   3.910  0.00  0.00    +0.010 A 
ENDBRANCH   3   7
BRANCH   1  13
ATOM     13  O   UNL     1       3.132  -4.932  -0.570  0.00  0.00    -0.438 OA
BRANCH  13  18
ATOM     14  C   UNL     1       1.813  -2.475  -5.463  0.00  0.00    +0.044 C 
ATOM     15  C   UNL     1       2.166  -3.132  -4.154  0.00  0.00    -0.050 A 
ATOM     16  C   UNL     1       3.412  -3.706  -3.984  0.00  0.00    +0.007 A 
ATOM     17  C   UNL     1       3.739  -4.309  -2.784  0.00  0.00    +0.046 A 
ATOM     18  C   UNL     1       2.814  -4.339  -1.750  0.00  0.00    +0.130 A 
ATOM     19  C   UNL     1       1.564  -3.762  -1.924  0.00  0.00    +0.046 A 
ATOM     20  C   UNL     1       1.245  -3.155  -3.123  0.00  0.00    +0.007 A 
ENDBRANCH  13  18
ENDBRANCH   1  13
BRANCH   2  21
ATOM     21  C   UNL     1       0.985  -7.024  -0.016  0.00  0.00    -0.035 C 
BRANCH  21  22
ATOM     22  N   UNL     1       2.164  -7.898   0.048  0.00  0.00    +0.386 N 
ATOM     23  H   UNL     1       2.987  -7.373  -0.209  0.00  0.00    -0.081 HD
BRANCH  22  24
ATOM     24  C   UNL     1       2.318  -8.413   1.415  0.00  0.00    -0.074 C 
ATOM     25  C   UNL     1       2.701  -7.266   2.352  0.00  0.00    -0.014 C 
ATOM     26  C   UNL     1       0.998  -9.031   1.879  0.00  0.00    -0.014 C 
ENDBRANCH  22  24
BRANCH  22  27
ATOM     27  C   UNL     1       1.990  -9.022  -0.882  0.00  0.00    -0.044 C 
BRANCH  27  28
ATOM     28  C   UNL     1       3.266  -9.868  -0.904  0.00  0.00    +0.124 C 
BRANCH  28  29
ATOM     29  O   UNL     1       4.345  -9.088  -1.422  0.00  0.00    -0.391 OA
ATOM     30  H   UNL     1       4.201  -8.766  -2.322  0.00  0.00    +0.210 HD
ENDBRANCH  28  29
BRANCH  28  31
ATOM     31  C   UNL     1       3.050 -11.094  -1.793  0.00  0.00    +0.189 C 
BRANCH  31  32
ATOM     32  O   UNL     1       4.197 -11.942  -1.722  0.00  0.00    -0.372 OA
BRANCH  32  33
ATOM     33  C   UNL     1       4.098 -13.123  -2.520  0.00  0.00    +0.061 C 
ATOM     34  C   UNL     1       3.916 -12.732  -3.988  0.00  0.00    +0.041 C 
ATOM     35  C   UNL     1       5.375 -13.951  -2.367  0.00  0.00    +0.041 C 
ATOM     36  C   UNL     1       2.895 -13.950  -2.060  0.00  0.00    +0.041 C 
ENDBRANCH  32  33
ENDBRANCH  31  32
ENDBRANCH  28  31
ENDBRANCH  27  28
ENDBRANCH  22  27
ENDBRANCH  21  22
ENDBRANCH   2  21
TORSDOF 12
