REMARK  Name = ZINC47435853
REMARK  7 active torsions:
REMARK  status: ('A' for Active; 'I' for Inactive)
REMARK    1  A    between atoms: C_1  and  C_2
REMARK    2  A    between atoms: C_5  and  C_7
REMARK    3  A    between atoms: C_9  and  C_12
REMARK    4  A    between atoms: C_12  and  C_13
REMARK    5  A    between atoms: N_15  and  C_16
REMARK    6  A    between atoms: C_19  and  C_22
REMARK    7  A    between atoms: C_22  and  N_23
REMARK                            x       y       z     vdW  Elec       q    Type
REMARK                         _______ _______ _______ _____ _____    ______ ____
ROOT
ATOM      1  C   UNL     1       7.710  -3.468  -0.268  0.00  0.00    +0.223 C 
ATOM      2  O   UNL     1       8.762  -2.872  -0.179  0.00  0.00    -0.275 OA
ATOM      3  N   UNL     1       6.981  -3.384  -1.398  0.00  0.00    -0.285 N 
ATOM      4  H   UNL     1       6.173  -3.913  -1.495  0.00  0.00    +0.155 HD
ENDROOT
BRANCH   3   5
ATOM      5  C   UNL     1       7.388  -2.533  -2.431  0.00  0.00    +0.033 A 
ATOM      6  C   UNL     1       6.441  -1.866  -3.197  0.00  0.00    +0.023 A 
ATOM      7  C   UNL     1       6.846  -1.027  -4.217  0.00  0.00    +0.003 A 
ATOM      8  C   UNL     1       8.193  -0.850  -4.475  0.00  0.00    -0.064 A 
ATOM      9  C   UNL     1       9.139  -1.513  -3.714  0.00  0.00    +0.003 A 
ATOM     10  C   UNL     1       8.740  -2.349  -2.689  0.00  0.00    +0.023 A 
BRANCH   8  11
ATOM     11  C   UNL     1       8.632   0.066  -5.588  0.00  0.00    -0.043 C 
BRANCH  11  12
ATOM     12  N   UNL     1       8.805   1.427  -5.062  0.00  0.00    +0.382 N 
ATOM     13  C   UNL     1       9.972   1.477  -4.144  0.00  0.00    -0.078 C 
ATOM     14  C   UNL     1      10.355   2.978  -4.139  0.00  0.00    -0.020 C 
ATOM     15  C   UNL     1      10.108   3.402  -5.605  0.00  0.00    -0.020 C 
ATOM     16  C   UNL     1       9.119   2.363  -6.164  0.00  0.00    -0.078 C 
ATOM     17  H   UNL     1       7.969   1.724  -4.581  0.00  0.00    -0.081 HD
ENDBRANCH  11  12
ENDBRANCH   8  11
ENDBRANCH   3   5
BRANCH   1  18
ATOM     18  C   UNL     1       7.218  -4.303   0.886  0.00  0.00    +0.152 C 
BRANCH  18  21
ATOM     19  C   UNL     1      10.360  -4.485   2.793  0.00  0.00    +0.144 A 
ATOM     20  N   UNL     1       9.467  -4.542   1.812  0.00  0.00    -0.240 NA
ATOM     21  C   UNL     1       8.209  -4.230   2.019  0.00  0.00    +0.058 A 
ATOM     22  C   UNL     1       7.802  -3.839   3.255  0.00  0.00    +0.071 A 
ATOM     23  S   UNL     1       9.342  -3.943   4.159  0.00  0.00    -0.072 S 
BRANCH  19  28
ATOM     24  C   UNL     1      14.888  -5.833   1.116  0.00  0.00    +0.086 C 
ATOM     25  C   UNL     1      13.784  -5.381   2.037  0.00  0.00    +0.103 A 
ATOM     26  C   UNL     1      13.923  -5.093   3.347  0.00  0.00    +0.045 A 
ATOM     27  C   UNL     1      12.654  -4.714   3.823  0.00  0.00    +0.052 A 
ATOM     28  C   UNL     1      11.799  -4.792   2.765  0.00  0.00    +0.160 A 
ATOM     29  O   UNL     1      12.502  -5.193   1.688  0.00  0.00    -0.458 OA
ENDBRANCH  19  28
ENDBRANCH  18  21
ENDBRANCH   1  18
TORSDOF 6
