REMARK  Name = ZINC56722353
REMARK  5 active torsions:
REMARK  status: ('A' for Active; 'I' for Inactive)
REMARK    1  A    between atoms: C_3  and  N_11
REMARK    2  A    between atoms: N_14  and  C_15
REMARK    3  A    between atoms: C_15  and  C_16
REMARK    4  A    between atoms: C_16  and  C_18
REMARK    5  A    between atoms: C_16  and  N_23
REMARK                            x       y       z     vdW  Elec       q    Type
REMARK                         _______ _______ _______ _____ _____    ______ ____
ROOT
ATOM      1  N   UNL     1       3.593   2.139   0.037  0.00  0.00    -0.266 N 
ATOM      2  C   UNL     1       3.568   3.482  -0.079  0.00  0.00    +0.304 C 
ATOM      3  O   UNL     1       2.506   4.073  -0.078  0.00  0.00    -0.253 OA
ATOM      4  N   UNL     1       4.722   4.169  -0.197  0.00  0.00    -0.300 N 
ATOM      5  H   UNL     1       4.440   1.675   0.124  0.00  0.00    +0.156 HD
ATOM      6  H   UNL     1       5.569   3.697  -0.197  0.00  0.00    +0.150 HD
ENDROOT
BRANCH   1   9
ATOM      7  C   UNL     1       0.083   1.225  -0.582  0.00  0.00    +0.006 A 
ATOM      8  C   UNL     1       1.265   1.940  -0.578  0.00  0.00    +0.027 A 
ATOM      9  C   UNL     1       2.394   1.413   0.034  0.00  0.00    +0.080 A 
ATOM     10  C   UNL     1       2.334   0.163   0.644  0.00  0.00    +0.183 A 
ATOM     11  C   UNL     1       1.144  -0.550   0.639  0.00  0.00    +0.164 A 
ATOM     12  C   UNL     1       0.020  -0.016   0.023  0.00  0.00    +0.049 A 
ATOM     13  O   UNL     1       1.061  -1.770   1.237  0.00  0.00    -0.485 OA
ATOM     14  C   UNL     1       2.297  -2.436   1.516  0.00  0.00    +0.270 C 
ATOM     15  C   UNL     1       3.253  -1.423   2.159  0.00  0.00    +0.270 C 
ATOM     16  O   UNL     1       3.449  -0.345   1.238  0.00  0.00    -0.483 OA
ENDBRANCH   1   9
BRANCH   4  17
ATOM     17  C   UNL     1       4.695   5.628  -0.323  0.00  0.00    +0.098 C 
BRANCH  17  18
ATOM     18  C   UNL     1       6.115   6.145  -0.566  0.00  0.00    +0.016 C 
BRANCH  18  19
ATOM     19  N   UNL     1       6.092   7.610  -0.668  0.00  0.00    +0.387 N 
ATOM     20  C   UNL     1       5.762   8.210   0.650  0.00  0.00    -0.078 C 
ATOM     21  C   UNL     1       6.317   9.652   0.533  0.00  0.00    -0.020 C 
ATOM     22  C   UNL     1       7.620   9.456  -0.276  0.00  0.00    -0.020 C 
ATOM     23  C   UNL     1       7.436   8.118  -1.017  0.00  0.00    -0.078 C 
ATOM     24  H   UNL     1       5.419   7.901  -1.361  0.00  0.00    -0.081 HD
ENDBRANCH  18  19
BRANCH  18  25
ATOM     25  C   UNL     1       6.650   5.561  -1.848  0.00  0.00    +0.093 A 
ATOM     26  C   UNL     1       7.485   4.511  -1.946  0.00  0.00    +0.043 A 
ATOM     27  C   UNL     1       7.725   4.306  -3.324  0.00  0.00    +0.041 A 
ATOM     28  C   UNL     1       7.023   5.243  -3.986  0.00  0.00    +0.195 A 
ATOM     29  O   UNL     1       6.369   5.996  -3.087  0.00  0.00    -0.469 OA
ENDBRANCH  18  25
ENDBRANCH  17  18
ENDBRANCH   4  17
TORSDOF 5
