REMARK  Name = ZINC06436942
REMARK  7 active torsions:
REMARK  status: ('A' for Active; 'I' for Inactive)
REMARK    1  A    between atoms: C_1  and  C_2
REMARK    2  A    between atoms: C_4  and  C_25
REMARK    3  A    between atoms: C_5  and  N_9
REMARK    4  A    between atoms: C_6  and  C_8
REMARK    5  A    between atoms: C_10  and  C_12
REMARK    6  A    between atoms: C_12  and  S_13
REMARK    7  A    between atoms: S_13  and  C_14
REMARK                            x       y       z     vdW  Elec       q    Type
REMARK                         _______ _______ _______ _____ _____    ______ ____
ROOT
ATOM      1  N   UNL     1       1.152   1.923   0.120  0.00  0.00    -0.284 N 
ATOM      2  C   UNL     1       0.145   1.483  -0.661  0.00  0.00    +0.227 C 
ATOM      3  O   UNL     1       0.315   0.526  -1.387  0.00  0.00    -0.275 OA
ATOM      4  H   UNL     1       1.033   2.719   0.661  0.00  0.00    +0.155 HD
ENDROOT
BRANCH   1   9
ATOM      5  C   UNL     1       6.081  -0.883   0.244  0.00  0.00    +0.044 C 
ATOM      6  C   UNL     1       4.771  -0.138   0.212  0.00  0.00    -0.050 A 
ATOM      7  C   UNL     1       4.758   1.224  -0.033  0.00  0.00    +0.008 A 
ATOM      8  C   UNL     1       3.560   1.909  -0.064  0.00  0.00    -0.029 A 
ATOM      9  C   UNL     1       2.367   1.231   0.151  0.00  0.00    +0.039 A 
ATOM     10  C   UNL     1       2.384  -0.135   0.402  0.00  0.00    -0.029 A 
ATOM     11  C   UNL     1       3.586  -0.816   0.426  0.00  0.00    +0.008 A 
ATOM     12  C   UNL     1       1.093  -0.874   0.642  0.00  0.00    +0.045 C 
ATOM     13  C   UNL     1       3.546   3.393  -0.330  0.00  0.00    +0.045 C 
ENDBRANCH   1   9
BRANCH   2  14
ATOM     14  C   UNL     1      -1.189   2.184  -0.637  0.00  0.00    +0.170 C 
BRANCH  14  15
ATOM     15  S   UNL     1      -2.322   1.367  -1.794  0.00  0.00    -0.116 S 
BRANCH  15  16
ATOM     16  C   UNL     1      -3.816   2.290  -1.651  0.00  0.00    +0.012 A 
ATOM     17  C   UNL     1      -3.885   3.367  -0.776  0.00  0.00    +0.018 A 
ATOM     18  C   UNL     1      -5.054   4.098  -0.666  0.00  0.00    +0.050 A 
ATOM     19  C   UNL     1      -6.160   3.746  -1.423  0.00  0.00    +0.162 A 
ATOM     20  C   UNL     1      -6.095   2.668  -2.294  0.00  0.00    +0.163 A 
ATOM     21  C   UNL     1      -4.925   1.938  -2.411  0.00  0.00    +0.064 A 
ATOM     22  O   UNL     1      -7.191   2.334  -3.035  0.00  0.00    -0.488 OA
ATOM     23  C   UNL     1      -8.303   1.811  -2.305  0.00  0.00    +0.232 C 
ATOM     24  C   UNL     1      -9.161   2.937  -1.750  0.00  0.00    +0.082 C 
ATOM     25  C   UNL     1      -8.422   3.774  -0.718  0.00  0.00    +0.232 C 
ATOM     26  O   UNL     1      -7.320   4.459  -1.317  0.00  0.00    -0.488 OA
ENDBRANCH  15  16
ENDBRANCH  14  15
ENDBRANCH   2  14
TORSDOF 4
