REMARK  Name = ZINC40687318
REMARK  3 active torsions:
REMARK  status: ('A' for Active; 'I' for Inactive)
REMARK    1  A    between atoms: C_11  and  N_27
REMARK    2  A    between atoms: C_12  and  O_16
REMARK    3  A    between atoms: O_16  and  C_17
REMARK                            x       y       z     vdW  Elec       q    Type
REMARK                         _______ _______ _______ _____ _____    ______ ____
ROOT
ATOM      1  C   UNL     1       0.875  -1.670  -3.140  0.00  0.00    +0.000 A 
ATOM      2  C   UNL     1       2.170  -1.309  -3.468  0.00  0.00    +0.002 A 
ATOM      3  C   UNL     1       3.082  -1.018  -2.477  0.00  0.00    +0.024 A 
ATOM      4  C   UNL     1       2.706  -1.084  -1.133  0.00  0.00    +0.038 A 
ATOM      5  C   UNL     1       1.407  -1.446  -0.815  0.00  0.00    -0.025 A 
ATOM      6  C   UNL     1       0.496  -1.737  -1.812  0.00  0.00    +0.005 A 
ATOM      7  C   UNL     1       1.261  -1.441   0.690  0.00  0.00    +0.056 C 
ATOM      8  C   UNL     1       2.648  -1.029   1.211  0.00  0.00    +0.117 C 
ATOM      9  N   UNL     1       3.466  -0.832   0.012  0.00  0.00    -0.283 N 
ATOM     10  C   UNL     1       4.802  -0.450   0.013  0.00  0.00    +0.153 A 
ATOM     11  C   UNL     1       5.156   0.896  -0.117  0.00  0.00    +0.128 A 
ATOM     12  C   UNL     1       6.511   1.224  -0.109  0.00  0.00    +0.246 A 
ATOM     13  N   UNL     1       7.409   0.251   0.019  0.00  0.00    -0.199 NA
ATOM     14  C   UNL     1       7.034  -1.006   0.138  0.00  0.00    +0.227 A 
ATOM     15  N   UNL     1       5.765  -1.359   0.142  0.00  0.00    -0.218 NA
ENDROOT
BRANCH  11  16
ATOM     16  N   UNL     1       4.175   1.889  -0.250  0.00  0.00    -0.351 N 
ATOM     17  H   UNL     1       3.236   1.656  -0.179  0.00  0.00    +0.143 HD
ATOM     18  H   UNL     1       4.435   2.809  -0.414  0.00  0.00    +0.143 HD
ENDBRANCH  11  16
BRANCH  12  19
ATOM     19  O   UNL     1       6.907   2.515  -0.232  0.00  0.00    -0.434 OA
BRANCH  19  20
ATOM     20  C   UNL     1       8.238   2.767  -0.334  0.00  0.00    +0.156 A 
ATOM     21  C   UNL     1       8.957   3.153   0.774  0.00  0.00    +0.048 A 
ATOM     22  C   UNL     1      10.321   3.414   0.685  0.00  0.00    +0.004 A 
ATOM     23  C   UNL     1      10.981   3.295  -0.501  0.00  0.00    +0.010 A 
ATOM     24  C   UNL     1      10.282   2.904  -1.654  0.00  0.00    +0.004 A 
ATOM     25  C   UNL     1       8.894   2.630  -1.575  0.00  0.00    +0.113 A 
ATOM     26  N   UNL     1       8.227   2.252  -2.669  0.00  0.00    -0.251 NA
ATOM     27  C   UNL     1       8.831   2.123  -3.825  0.00  0.00    +0.111 A 
ATOM     28  C   UNL     1      10.194   2.372  -3.971  0.00  0.00    +0.020 A 
ATOM     29  C   UNL     1      10.933   2.772  -2.895  0.00  0.00    +0.011 A 
ENDBRANCH  19  20
ENDBRANCH  12  19
TORSDOF 3
