REMARK  Name = ZINC20181480
REMARK  12 active torsions:
REMARK  status: ('A' for Active; 'I' for Inactive)
REMARK    1  A    between atoms: C_1  and  C_2
REMARK    2  A    between atoms: C_2  and  N_3
REMARK    3  A    between atoms: N_3  and  C_4
REMARK    4  A    between atoms: N_3  and  C_6
REMARK    5  A    between atoms: C_4  and  C_5
REMARK    6  A    between atoms: C_6  and  C_7
REMARK    7  A    between atoms: C_7  and  C_8
REMARK    8  A    between atoms: C_8  and  N_9
REMARK    9  A    between atoms: C_10  and  C_12
REMARK   10  A    between atoms: C_12  and  N_13
REMARK   11  A    between atoms: C_22  and  C_23
REMARK   12  A    between atoms: C_26  and  C_29
REMARK                            x       y       z     vdW  Elec       q    Type
REMARK                         _______ _______ _______ _____ _____    ______ ____
ROOT
ATOM      1  N   UNL     1       3.325   3.040   4.515  0.00  0.00    -0.257 N 
ATOM      2  C   UNL     1       3.839   4.330   4.514  0.00  0.00    +0.051 A 
ATOM      3  C   UNL     1       3.151   5.320   3.813  0.00  0.00    +0.024 A 
ATOM      4  C   UNL     1       3.624   6.615   3.787  0.00  0.00    +0.002 A 
ATOM      5  C   UNL     1       4.787   6.952   4.456  0.00  0.00    +0.001 A 
ATOM      6  C   UNL     1       5.482   5.983   5.155  0.00  0.00    +0.017 A 
ATOM      7  C   UNL     1       5.012   4.680   5.184  0.00  0.00    +0.034 A 
ATOM      8  S   UNL     1       5.904   3.440   6.074  0.00  0.00    -0.082 S 
ATOM      9  C   UNL     1       4.613   2.283   6.452  0.00  0.00    +0.076 C 
ATOM     10  C   UNL     1       4.559   1.630   7.638  0.00  0.00    +0.028 C 
ATOM     11  C   UNL     1       3.594   2.075   5.398  0.00  0.00    +0.258 C 
ATOM     12  O   UNL     1       2.999   1.015   5.333  0.00  0.00    -0.269 OA
ENDROOT
BRANCH  10  13
ATOM     13  C   UNL     1       3.378   0.825   7.981  0.00  0.00    -0.024 A 
ATOM     14  C   UNL     1       2.099   1.266   7.626  0.00  0.00    +0.008 A 
ATOM     15  C   UNL     1       0.997   0.502   7.946  0.00  0.00    +0.013 A 
ATOM     16  C   UNL     1       1.152  -0.693   8.627  0.00  0.00    +0.055 A 
ATOM     17  C   UNL     1       2.414  -1.134   8.986  0.00  0.00    +0.013 A 
ATOM     18  C   UNL     1       3.527  -0.385   8.668  0.00  0.00    +0.008 A 
BRANCH  16  19
ATOM     19  C   UNL     1      -0.058  -1.519   8.978  0.00  0.00    +0.417 C 
ATOM     20  F   UNL     1      -0.536  -1.134  10.235  0.00  0.00    -0.166 F 
ATOM     21  F   UNL     1      -1.056  -1.317   8.018  0.00  0.00    -0.166 F 
ATOM     22  F   UNL     1       0.293  -2.873   9.007  0.00  0.00    -0.166 F 
ENDBRANCH  16  19
ENDBRANCH  10  13
BRANCH   1  23
ATOM     23  C   UNL     1       2.387   2.705   3.440  0.00  0.00    +0.209 C 
BRANCH  23  25
ATOM     24  N   UNL     1      -0.060   2.717   3.080  0.00  0.00    -0.314 N 
ATOM     25  C   UNL     1       0.977   2.957   3.907  0.00  0.00    +0.231 C 
ATOM     26  O   UNL     1       0.774   3.375   5.028  0.00  0.00    -0.274 OA
ATOM     27  H   UNL     1       0.123   2.338   2.064  0.00  0.00    +0.149 HD
BRANCH  24  28
ATOM     28  C   UNL     1      -1.431   2.962   3.534  0.00  0.00    +0.102 C 
BRANCH  28  29
ATOM     29  C   UNL     1      -2.411   2.612   2.412  0.00  0.00    +0.000 C 
BRANCH  29  30
ATOM     30  C   UNL     1      -3.843   2.868   2.886  0.00  0.00    -0.077 C 
BRANCH  30  31
ATOM     31  N   UNL     1      -4.783   2.532   1.809  0.00  0.00    +0.379 N 
ATOM     32  H   UNL     1      -4.460   3.063   0.901  0.00  0.00    -0.082 HD
BRANCH  31  34
ATOM     33  C   UNL     1      -5.176   0.316   2.773  0.00  0.00    -0.017 C 
ATOM     34  C   UNL     1      -4.762   1.092   1.522  0.00  0.00    -0.082 C 
ENDBRANCH  31  34
BRANCH  31  35
ATOM     35  C   UNL     1      -6.142   2.984   2.136  0.00  0.00    -0.082 C 
ATOM     36  C   UNL     1      -7.000   2.980   0.869  0.00  0.00    -0.017 C 
ENDBRANCH  31  35
ENDBRANCH  30  31
ENDBRANCH  29  30
ENDBRANCH  28  29
ENDBRANCH  24  28
ENDBRANCH  23  25
ENDBRANCH   1  23
TORSDOF 10
