REMARK  Name = ZINC42432188
REMARK  6 active torsions:
REMARK  status: ('A' for Active; 'I' for Inactive)
REMARK    1  A    between atoms: C_1  and  C_2
REMARK    2  A    between atoms: C_3  and  N_17
REMARK    3  A    between atoms: C_4  and  N_8
REMARK    4  A    between atoms: N_5  and  C_7
REMARK    5  A    between atoms: C_13  and  C_15
REMARK    6  A    between atoms: C_15  and  O_16
REMARK                            x       y       z     vdW  Elec       q    Type
REMARK                         _______ _______ _______ _____ _____    ______ ____
ROOT
ATOM      1  C   UNL     1       1.905   0.515   1.220  0.00  0.00    +0.069 C 
ATOM      2  C   UNL     1       0.971  -0.432   0.512  0.00  0.00    +0.082 A 
ATOM      3  C   UNL     1       1.355  -1.528  -0.269  0.00  0.00    +0.088 A 
ATOM      4  C   UNL     1       0.221  -2.129  -0.731  0.00  0.00    +0.141 A 
ATOM      5  N   UNL     1      -0.839  -1.424  -0.250  0.00  0.00    -0.252 N 
ATOM      6  N   UNL     1      -0.337  -0.372   0.528  0.00  0.00    -0.173 NA
ATOM      7  C   UNL     1      -2.253  -1.716  -0.496  0.00  0.00    +0.174 C 
ENDROOT
BRANCH   4   8
ATOM      8  N   UNL     1       0.159  -3.260  -1.549  0.00  0.00    -0.309 N 
ATOM      9  C   UNL     1       0.287  -3.138  -3.007  0.00  0.00    +0.107 C 
ATOM     10  C   UNL     1       1.398  -4.079  -3.485  0.00  0.00    +0.019 C 
ATOM     11  C   UNL     1       1.103  -5.499  -2.997  0.00  0.00    +0.003 C 
ATOM     12  C   UNL     1       1.078  -5.519  -1.467  0.00  0.00    +0.025 C 
ATOM     13  C   UNL     1      -0.030  -4.596  -0.966  0.00  0.00    +0.100 C 
BRANCH  13  14
ATOM     14  C   UNL     1       0.033  -4.503   0.560  0.00  0.00    +0.178 C 
BRANCH  14  15
ATOM     15  O   UNL     1       1.349  -4.115   0.959  0.00  0.00    -0.393 OA
ATOM     16  H   UNL     1       1.485  -4.110   1.917  0.00  0.00    +0.209 HD
ENDBRANCH  14  15
ENDBRANCH  13  14
ENDBRANCH   4   8
BRANCH   3  17
ATOM     17  N   UNL     1       2.682  -1.940  -0.533  0.00  0.00    -0.354 N 
ATOM     18  H   UNL     1       3.427  -1.404  -0.218  0.00  0.00    +0.142 HD
ATOM     19  H   UNL     1       2.847  -2.757  -1.028  0.00  0.00    +0.142 HD
ENDBRANCH   3  17
TORSDOF 4
