REMARK  Name = ZINC61570935
REMARK  7 active torsions:
REMARK  status: ('A' for Active; 'I' for Inactive)
REMARK    1  A    between atoms: C_4  and  N_14
REMARK    2  A    between atoms: C_5  and  C_7
REMARK    3  A    between atoms: C_7  and  N_8
REMARK    4  A    between atoms: C_15  and  C_17
REMARK    5  A    between atoms: C_17  and  N_18
REMARK    6  A    between atoms: N_18  and  C_19
REMARK    7  A    between atoms: C_24  and  N_25
REMARK                            x       y       z     vdW  Elec       q    Type
REMARK                         _______ _______ _______ _____ _____    ______ ____
ROOT
ATOM      1  N   UNL     1       1.911  -0.853   1.416  0.00  0.00    -0.284 N 
ATOM      2  C   UNL     1       2.816   0.055   1.833  0.00  0.00    +0.234 C 
ATOM      3  O   UNL     1       2.476   1.201   2.036  0.00  0.00    -0.274 OA
ATOM      4  H   UNL     1       2.195  -1.753   1.192  0.00  0.00    +0.155 HD
ENDROOT
BRANCH   1   8
ATOM      5  C   UNL     1      -2.105   0.208   1.087  0.00  0.00    +0.000 A 
ATOM      6  C   UNL     1      -1.122   1.168   0.926  0.00  0.00    +0.002 A 
ATOM      7  C   UNL     1       0.210   0.819   1.035  0.00  0.00    +0.023 A 
ATOM      8  C   UNL     1       0.562  -0.497   1.306  0.00  0.00    +0.035 A 
ATOM      9  C   UNL     1      -0.427  -1.458   1.467  0.00  0.00    -0.043 A 
ATOM     10  C   UNL     1      -1.757  -1.103   1.357  0.00  0.00    +0.003 A 
BRANCH   9  11
ATOM     11  C   UNL     1      -0.049  -2.887   1.762  0.00  0.00    -0.041 C 
BRANCH  11  12
ATOM     12  N   UNL     1       0.404  -2.996   3.155  0.00  0.00    +0.383 N 
ATOM     13  C   UNL     1       0.947  -4.338   3.379  0.00  0.00    -0.068 C 
ATOM     14  C   UNL     1       1.754  -4.362   4.682  0.00  0.00    +0.050 C 
ATOM     15  S   UNL     1       0.627  -3.971   6.058  0.00  0.00    -0.164 S 
ATOM     16  C   UNL     1      -0.210  -2.465   5.470  0.00  0.00    +0.050 C 
ATOM     17  C   UNL     1      -0.724  -2.725   4.049  0.00  0.00    -0.068 C 
ATOM     18  H   UNL     1       1.129  -2.315   3.321  0.00  0.00    -0.081 HD
ENDBRANCH  11  12
ENDBRANCH   9  11
ENDBRANCH   1   8
BRANCH   2  19
ATOM     19  C   UNL     1       4.250  -0.355   2.048  0.00  0.00    +0.198 C 
BRANCH  19  20
ATOM     20  N   UNL     1       5.027   0.803   2.498  0.00  0.00    -0.334 N 
ATOM     21  H   UNL     1       4.593   1.663   2.611  0.00  0.00    +0.147 HD
BRANCH  20  22
ATOM     22  C   UNL     1       6.391   0.668   2.763  0.00  0.00    +0.058 A 
ATOM     23  C   UNL     1       7.029  -0.545   2.534  0.00  0.00    +0.025 A 
ATOM     24  C   UNL     1       8.378  -0.675   2.797  0.00  0.00    +0.002 A 
ATOM     25  C   UNL     1       9.095   0.401   3.289  0.00  0.00    +0.002 A 
ATOM     26  C   UNL     1       8.463   1.609   3.519  0.00  0.00    +0.034 A 
ATOM     27  C   UNL     1       7.115   1.748   3.252  0.00  0.00    +0.147 A 
BRANCH  27  28
ATOM     28  N   UNL     1       6.441   3.043   3.493  0.00  0.00    +0.058 N 
ATOM     29  O   UNL     1       5.590   3.433   2.728  0.00  0.00    -0.126 OA
ATOM     30  O   UNL     1       6.742   3.712   4.454  0.00  0.00    -0.126 OA
ENDBRANCH  27  28
ENDBRANCH  20  22
ENDBRANCH  19  20
ENDBRANCH   2  19
TORSDOF 7
