REMARK  Name = ZINC30140574
REMARK  9 active torsions:
REMARK  status: ('A' for Active; 'I' for Inactive)
REMARK    1  A    between atoms: C_1  and  C_2
REMARK    2  A    between atoms: C_2  and  C_3
REMARK    3  A    between atoms: C_2  and  C_4
REMARK    4  A    between atoms: N_13  and  C_14
REMARK    5  A    between atoms: C_14  and  C_15
REMARK    6  A    between atoms: C_15  and  C_17
REMARK    7  A    between atoms: C_18  and  N_27
REMARK    8  A    between atoms: N_19  and  C_26
REMARK    9  A    between atoms: N_22  and  C_25
REMARK                            x       y       z     vdW  Elec       q    Type
REMARK                         _______ _______ _______ _____ _____    ______ ____
ROOT
ATOM      1  C   UNL     1       2.927   0.349  -5.710  0.00  0.00    +0.189 C 
ATOM      2  O   UNL     1       1.714   0.326  -5.760  0.00  0.00    -0.290 OA
ENDROOT
BRANCH   1   3
ATOM      3  C   UNL     1       3.641   1.379  -6.358  0.00  0.00    +0.121 A 
ATOM      4  C   UNL     1       2.970   2.458  -6.960  0.00  0.00    +0.116 A 
ATOM      5  N   UNL     1       3.705   3.434  -7.571  0.00  0.00    -0.284 N 
ATOM      6  C   UNL     1       5.045   3.374  -7.615  0.00  0.00    +0.333 A 
ATOM      7  O   UNL     1       5.653   4.266  -8.175  0.00  0.00    -0.246 OA
ATOM      8  N   UNL     1       5.739   2.366  -7.063  0.00  0.00    -0.263 N 
ATOM      9  C   UNL     1       5.107   1.355  -6.431  0.00  0.00    +0.269 A 
ATOM     10  O   UNL     1       5.740   0.443  -5.933  0.00  0.00    -0.267 OA
ATOM     11  C   UNL     1       7.202   2.364  -7.148  0.00  0.00    +0.157 C 
ATOM     12  C   UNL     1       3.016   4.566  -8.197  0.00  0.00    +0.155 C 
BRANCH   4  13
ATOM     13  N   UNL     1       1.612   2.532  -6.930  0.00  0.00    -0.344 N 
ATOM     14  H   UNL     1       1.097   3.380  -7.403  0.00  0.00    +0.144 HD
ATOM     15  H   UNL     1       1.030   1.743  -6.431  0.00  0.00    +0.144 HD
ENDBRANCH   4  13
ENDBRANCH   1   3
BRANCH   1  16
ATOM     16  C   UNL     1       3.671  -0.724  -4.956  0.00  0.00    +0.185 C 
BRANCH  16  26
ATOM     17  C   UNL     1       0.090  -0.063  -1.732  0.00  0.00    -0.044 A 
ATOM     18  C   UNL     1       1.400   0.371  -1.817  0.00  0.00    +0.006 A 
ATOM     19  C   UNL     1       2.256  -0.197  -2.736  0.00  0.00    +0.023 A 
ATOM     20  C   UNL     1       1.805  -1.204  -3.593  0.00  0.00    +0.033 A 
ATOM     21  C   UNL     1       0.490  -1.626  -3.512  0.00  0.00    -0.026 A 
ATOM     22  C   UNL     1      -0.362  -1.056  -2.579  0.00  0.00    +0.009 A 
ATOM     23  C   UNL     1      -0.063  -2.695  -4.420  0.00  0.00    +0.038 C 
ATOM     24  C   UNL     1       1.088  -3.454  -5.084  0.00  0.00    +0.024 C 
ATOM     25  C   UNL     1       2.084  -2.420  -5.625  0.00  0.00    +0.106 C 
ATOM     26  N   UNL     1       2.721  -1.745  -4.493  0.00  0.00    -0.322 N 
BRANCH  17  28
ATOM     27  C   UNL     1      -0.965   2.053  -0.985  0.00  0.00    +0.012 C 
ATOM     28  C   UNL     1      -0.845   0.551  -0.722  0.00  0.00    +0.013 C 
ATOM     29  C   UNL     1      -0.295   0.322   0.687  0.00  0.00    +0.012 C 
ENDBRANCH  17  28
ENDBRANCH  16  26
ENDBRANCH   1  16
TORSDOF 5
