REMARK  Name = ZINC39359952
REMARK  11 active torsions:
REMARK  status: ('A' for Active; 'I' for Inactive)
REMARK    1  A    between atoms: C_1  and  C_2
REMARK    2  A    between atoms: C_4  and  C_9
REMARK    3  A    between atoms: C_5  and  C_8
REMARK    4  A    between atoms: C_9  and  C_11
REMARK    5  A    between atoms: C_9  and  N_12
REMARK    6  A    between atoms: C_13  and  C_15
REMARK    7  A    between atoms: C_18  and  C_21
REMARK    8  A    between atoms: C_21  and  N_22
REMARK    9  A    between atoms: N_22  and  C_23
REMARK   10  A    between atoms: N_22  and  C_24
REMARK   11  A    between atoms: C_24  and  C_25
REMARK                            x       y       z     vdW  Elec       q    Type
REMARK                         _______ _______ _______ _____ _____    ______ ____
ROOT
ATOM      1  C   UNL     1       0.182   2.994  -4.599  0.00  0.00    +0.204 C 
ATOM      2  C   UNL     1      -1.237   3.529  -4.572  0.00  0.00    +0.045 C 
ATOM      3  C   UNL     1      -1.646   3.656  -5.816  0.00  0.00    +0.107 C 
ATOM      4  O   UNL     1      -0.702   3.273  -6.709  0.00  0.00    -0.412 OA
ATOM      5  N   UNL     1       0.599   3.237  -6.005  0.00  0.00    -0.140 NA
ATOM      6  H   UNL     1       1.082   4.118  -6.092  0.00  0.00    +0.168 HD
ENDROOT
BRANCH   1   8
ATOM      7  N   UNL     1       0.178   1.107  -3.000  0.00  0.00    -0.307 N 
ATOM      8  C   UNL     1       0.204   1.521  -4.282  0.00  0.00    +0.238 C 
ATOM      9  O   UNL     1       0.246   0.708  -5.181  0.00  0.00    -0.274 OA
ATOM     10  H   UNL     1       0.145   1.758  -2.281  0.00  0.00    +0.149 HD
BRANCH   7  11
ATOM     11  C   UNL     1       0.200  -0.325  -2.692  0.00  0.00    +0.100 C 
ATOM     12  C   UNL     1      -1.225  -0.880  -2.748  0.00  0.00    +0.033 C 
BRANCH  11  15
ATOM     13  C   UNL     1       0.325   1.568  -0.013  0.00  0.00    +0.039 C 
ATOM     14  C   UNL     1       0.261   0.039   0.003  0.00  0.00    +0.154 C 
ATOM     15  C   UNL     1       0.765  -0.533  -1.310  0.00  0.00    -0.001 C 
ATOM     16  C   UNL     1       1.825  -1.263  -0.957  0.00  0.00    +0.063 C 
ATOM     17  N   UNL     1       2.023  -1.207   0.379  0.00  0.00    -0.159 NA
ATOM     18  N   UNL     1       1.204  -0.511   0.992  0.00  0.00    -0.180 NA
ATOM     19  C   UNL     1       2.684  -2.045  -1.917  0.00  0.00    +0.067 C 
ENDBRANCH  11  15
ENDBRANCH   7  11
ENDBRANCH   1   8
BRANCH   3  20
ATOM     20  C   UNL     1      -3.008   4.170  -6.204  0.00  0.00    -0.001 C 
BRANCH  20  21
ATOM     21  N   UNL     1      -2.865   5.444  -6.923  0.00  0.00    +0.385 N 
ATOM     22  C   UNL     1      -2.311   6.458  -6.016  0.00  0.00    -0.095 C 
ATOM     23  H   UNL     1      -2.244   5.319  -7.708  0.00  0.00    -0.081 HD
BRANCH  21  24
ATOM     24  C   UNL     1      -4.181   5.884  -7.404  0.00  0.00    -0.043 C 
BRANCH  24  25
ATOM     25  C   UNL     1      -4.019   7.124  -8.245  0.00  0.00    -0.064 A 
ATOM     26  C   UNL     1      -4.068   8.372  -7.654  0.00  0.00    +0.002 A 
ATOM     27  C   UNL     1      -3.919   9.510  -8.425  0.00  0.00    +0.000 A 
ATOM     28  C   UNL     1      -3.720   9.399  -9.788  0.00  0.00    +0.000 A 
ATOM     29  C   UNL     1      -3.669   8.151 -10.380  0.00  0.00    +0.000 A 
ATOM     30  C   UNL     1      -3.814   7.013  -9.608  0.00  0.00    +0.002 A 
ENDBRANCH  24  25
ENDBRANCH  21  24
ENDBRANCH  20  21
ENDBRANCH   3  20
TORSDOF 7
