REMARK  Name = ZINC12406431
REMARK  10 active torsions:
REMARK  status: ('A' for Active; 'I' for Inactive)
REMARK    1  A    between atoms: C_1  and  C_2
REMARK    2  A    between atoms: C_2  and  O_3
REMARK    3  A    between atoms: O_3  and  C_4
REMARK    4  A    between atoms: C_4  and  C_6
REMARK    5  A    between atoms: C_9  and  N_12
REMARK    6  A    between atoms: C_13  and  C_15
REMARK    7  A    between atoms: C_27  and  C_29
REMARK    8  A    between atoms: C_27  and  C_30
REMARK    9  A    between atoms: C_32  and  C_34
REMARK   10  A    between atoms: C_32  and  C_35
REMARK                            x       y       z     vdW  Elec       q    Type
REMARK                         _______ _______ _______ _____ _____    ______ ____
ROOT
ATOM      1  C   UNL     1      -0.985  -2.068   0.499  0.00  0.00    +0.238 C 
ATOM      2  C   UNL     1       0.378  -2.430   1.081  0.00  0.00    +0.191 C 
ATOM      3  C   UNL     1       1.506  -1.512   0.545  0.00  0.00    +0.187 C 
ATOM      4  C   UNL     1       1.055  -0.081   0.571  0.00  0.00    +0.209 C 
ATOM      5  C   UNL     1      -0.257   0.032  -0.254  0.00  0.00    +0.286 C 
ATOM      6  O   UNL     1      -1.253  -0.666   0.472  0.00  0.00    -0.333 OA
ATOM      7  O   UNL     1      -0.396   1.441  -0.390  0.00  0.00    -0.318 OA
ATOM      8  C   UNL     1       0.945   1.977  -0.349  0.00  0.00    +0.168 C 
ATOM      9  O   UNL     1       1.868   0.889  -0.092  0.00  0.00    -0.338 OA
ATOM     10  C   UNL     1       1.280   2.630  -1.692  0.00  0.00    +0.074 C 
ATOM     11  C   UNL     1       1.051   3.017   0.768  0.00  0.00    +0.074 C 
ATOM     12  O   UNL     1       1.696  -2.019  -0.788  0.00  0.00    -0.341 OA
ATOM     13  C   UNL     1       1.544  -3.445  -0.649  0.00  0.00    +0.166 C 
ATOM     14  O   UNL     1       0.751  -3.713   0.516  0.00  0.00    -0.340 OA
ATOM     15  C   UNL     1       2.920  -4.096  -0.496  0.00  0.00    +0.074 C 
ATOM     16  C   UNL     1       0.844  -4.007  -1.888  0.00  0.00    +0.074 C 
ENDROOT
BRANCH   1  18
ATOM     17  N   UNL     1      -2.137  -4.094   1.327  0.00  0.00    -0.283 N 
ATOM     18  C   UNL     1      -2.055  -2.748   1.313  0.00  0.00    +0.249 C 
ATOM     19  O   UNL     1      -2.842  -2.086   1.955  0.00  0.00    -0.273 OA
ATOM     20  H   UNL     1      -1.558  -4.621   0.754  0.00  0.00    +0.155 HD
BRANCH  17  24
ATOM     21  C   UNL     1      -4.877  -5.986   3.829  0.00  0.00    +0.059 A 
ATOM     22  C   UNL     1      -4.562  -6.544   2.587  0.00  0.00    +0.017 A 
ATOM     23  C   UNL     1      -3.656  -5.915   1.762  0.00  0.00    +0.024 A 
ATOM     24  C   UNL     1      -3.054  -4.727   2.164  0.00  0.00    +0.034 A 
ATOM     25  C   UNL     1      -3.362  -4.172   3.403  0.00  0.00    +0.024 A 
ATOM     26  C   UNL     1      -4.271  -4.792   4.230  0.00  0.00    +0.017 A 
BRANCH  21  27
ATOM     27  C   UNL     1      -5.847  -6.656   4.715  0.00  0.00    +0.339 C 
ATOM     28  O   UNL     1      -6.373  -7.694   4.365  0.00  0.00    -0.245 OA
BRANCH  27  29
ATOM     29  O   UNL     1      -6.150  -6.117   5.913  0.00  0.00    -0.461 OA
BRANCH  29  31
ATOM     30  C   UNL     1      -7.327  -6.073   8.044  0.00  0.00    +0.048 C 
ATOM     31  C   UNL     1      -7.113  -6.831   6.732  0.00  0.00    +0.229 C 
ENDBRANCH  29  31
ENDBRANCH  27  29
ENDBRANCH  21  27
ENDBRANCH  17  24
ENDBRANCH   1  18
TORSDOF 5
