REMARK  Name = ZINC19848806
REMARK  13 active torsions:
REMARK  status: ('A' for Active; 'I' for Inactive)
REMARK    1  A    between atoms: C_1  and  C_2
REMARK    2  A    between atoms: C_2  and  C_3
REMARK    3  A    between atoms: C_3  and  C_4
REMARK    4  A    between atoms: C_4  and  N_5
REMARK    5  A    between atoms: C_10  and  C_25
REMARK    6  A    between atoms: C_13  and  C_18
REMARK    7  A    between atoms: C_13  and  C_22
REMARK    8  A    between atoms: C_18  and  C_19
REMARK    9  A    between atoms: C_19  and  C_20
REMARK   10  A    between atoms: C_19  and  C_21
REMARK   11  A    between atoms: C_29  and  O_32
REMARK   12  A    between atoms: C_30  and  O_31
REMARK   13  A    between atoms: O_32  and  C_33
REMARK                            x       y       z     vdW  Elec       q    Type
REMARK                         _______ _______ _______ _____ _____    ______ ____
ROOT
ATOM      1  N   UNL     1       0.048   1.860  -3.142  0.00  0.00    -0.242 N 
ATOM      2  C   UNL     1      -0.380   0.762  -2.510  0.00  0.00    +0.224 C 
ATOM      3  O   UNL     1      -1.327   0.084  -2.848  0.00  0.00    -0.275 OA
ATOM      4  C   UNL     1       0.500   0.497  -1.310  0.00  0.00    +0.077 C 
ATOM      5  C   UNL     1      -0.312   0.744  -0.021  0.00  0.00    -0.023 C 
ATOM      6  N   UNL     1      -0.171   2.199   0.241  0.00  0.00    +0.396 N 
ATOM      7  C   UNL     1       1.245   2.494  -0.095  0.00  0.00    +0.048 C 
ATOM      8  C   UNL     1       1.531   1.657  -1.359  0.00  0.00    +0.086 C 
ATOM      9  C   UNL     1       1.115   2.443  -2.582  0.00  0.00    +0.225 C 
ATOM     10  O   UNL     1       1.662   3.445  -2.990  0.00  0.00    -0.275 OA
ATOM     11  H   UNL     1      -0.872   2.756  -0.398  0.00  0.00    -0.083 HD
ATOM     12  H   UNL     1      -0.396   2.404   1.298  0.00  0.00    -0.083 HD
ENDROOT
BRANCH   5  13
ATOM     13  C   UNL     1      -1.760   0.386  -0.233  0.00  0.00    -0.015 A 
ATOM     14  C   UNL     1      -2.666   1.362  -0.604  0.00  0.00    +0.006 A 
ATOM     15  C   UNL     1      -3.995   1.037  -0.800  0.00  0.00    +0.004 A 
ATOM     16  C   UNL     1      -4.425  -0.266  -0.627  0.00  0.00    +0.049 A 
ATOM     17  C   UNL     1      -3.522  -1.249  -0.255  0.00  0.00    +0.161 A 
ATOM     18  C   UNL     1      -2.182  -0.922  -0.063  0.00  0.00    +0.160 A 
BRANCH  18  19
ATOM     19  O   UNL     1      -1.291  -1.885   0.297  0.00  0.00    -0.503 OA
ATOM     20  H   UNL     1      -1.628  -2.923   0.432  0.00  0.00    +0.292 HD
ENDBRANCH  18  19
BRANCH  17  21
ATOM     21  O   UNL     1      -3.942  -2.531  -0.084  0.00  0.00    -0.491 OA
ATOM     22  C   UNL     1      -5.330  -2.793  -0.305  0.00  0.00    +0.277 C 
ENDBRANCH  17  21
ENDBRANCH   5  13
BRANCH   7  23
ATOM     23  C   UNL     1       2.151   2.071   1.032  0.00  0.00    +0.346 C 
ATOM     24  O   UNL     1       3.258   1.650   0.791  0.00  0.00    -0.248 OA
ATOM     25  O   UNL     1       1.730   2.162   2.303  0.00  0.00    -0.248 OA
ENDBRANCH   7  23
BRANCH   1  26
ATOM     26  C   UNL     1      -0.597   2.383  -4.349  0.00  0.00    +0.116 C 
BRANCH  26  27
ATOM     27  C   UNL     1      -1.692   3.375  -3.953  0.00  0.00    +0.019 C 
BRANCH  27  29
ATOM     28  C   UNL     1      -3.462   4.912  -4.818  0.00  0.00    +0.004 C 
ATOM     29  C   UNL     1      -2.366   3.921  -5.214  0.00  0.00    -0.002 C 
ENDBRANCH  27  29
ENDBRANCH  26  27
ENDBRANCH   1  26
BRANCH   7  30
ATOM     30  C   UNL     1       1.422   3.985  -0.392  0.00  0.00    +0.002 C 
BRANCH  30  31
ATOM     31  C   UNL     1       1.141   4.795   0.875  0.00  0.00    -0.018 C 
ATOM     32  C   UNL     1       1.469   6.267   0.622  0.00  0.00    +0.007 C 
ATOM     33  C   UNL     1      -0.336   4.658   1.250  0.00  0.00    +0.007 C 
ENDBRANCH  30  31
ENDBRANCH   7  30
TORSDOF 9
