REMARK  Name = ZINC37346335
REMARK  4 active torsions:
REMARK  status: ('A' for Active; 'I' for Inactive)
REMARK    1  A    between atoms: C_3  and  C_9
REMARK    2  A    between atoms: C_9  and  C_11
REMARK    3  A    between atoms: C_9  and  C_13
REMARK    4  A    between atoms: C_13  and  C_15
REMARK                            x       y       z     vdW  Elec       q    Type
REMARK                         _______ _______ _______ _____ _____    ______ ____
ROOT
ATOM      1  C   UNL     1       3.671   2.185  -0.023  0.00  0.00    +0.194 C 
ENDROOT
BRANCH   1   4
ATOM      2  C   UNL     1      -0.017   1.379   0.010  0.00  0.00    +0.020 A 
ATOM      3  C   UNL     1       1.171   2.087   0.002  0.00  0.00    +0.008 A 
ATOM      4  C   UNL     1       2.377   1.413  -0.013  0.00  0.00    -0.005 A 
ATOM      5  C   UNL     1       2.397   0.029  -0.021  0.00  0.00    +0.047 A 
ATOM      6  C   UNL     1       1.210  -0.679  -0.013  0.00  0.00    +0.040 A 
ATOM      7  C   UNL     1       0.002  -0.004   0.002  0.00  0.00    +0.042 A 
ATOM      8 CL   UNL     1      -1.489  -0.893   0.012  0.00  0.00    -0.083 Cl
ATOM      9 CL   UNL     1       3.913  -0.817  -0.041  0.00  0.00    -0.083 Cl
ENDBRANCH   1   4
BRANCH   1  10
ATOM     10  C   UNL     1       3.749   3.026   1.183  0.00  0.00    +0.079 C 
ATOM     11  N   UNL     1       3.810   3.676   2.113  0.00  0.00    -0.195 NA
ENDBRANCH   1  10
BRANCH   1  12
ATOM     12  C   UNL     1       3.726   3.059  -1.249  0.00  0.00    +0.191 C 
ATOM     13  O   UNL     1       2.700   3.492  -1.733  0.00  0.00    -0.290 OA
BRANCH  12  14
ATOM     14  C   UNL     1       4.971   3.374  -1.837  0.00  0.00    +0.057 A 
ATOM     15  C   UNL     1       5.240   4.154  -2.949  0.00  0.00    +0.023 A 
ATOM     16  C   UNL     1       6.580   4.295  -3.308  0.00  0.00    -0.036 A 
ATOM     17  C   UNL     1       7.491   3.651  -2.532  0.00  0.00    -0.006 A 
ATOM     18  S   UNL     1       6.608   2.877  -1.337  0.00  0.00    -0.090 S 
ATOM     19  C   UNL     1       8.898   3.873  -3.023  0.00  0.00    +0.043 C 
ATOM     20  C   UNL     1       8.731   4.389  -4.469  0.00  0.00    +0.010 C 
ATOM     21  C   UNL     1       7.332   5.035  -4.417  0.00  0.00    +0.036 C 
ENDBRANCH  12  14
ENDBRANCH   1  12
TORSDOF 4
