REMARK  Name = ZINC65238175
REMARK  5 active torsions:
REMARK  status: ('A' for Active; 'I' for Inactive)
REMARK    1  A    between atoms: C_1  and  C_2
REMARK    2  A    between atoms: C_16  and  C_17
REMARK    3  A    between atoms: N_19  and  C_20
REMARK    4  A    between atoms: C_20  and  C_21
REMARK    5  A    between atoms: C_21  and  C_22
REMARK                            x       y       z     vdW  Elec       q    Type
REMARK                         _______ _______ _______ _____ _____    ______ ____
ROOT
ATOM      1  C   UNL     1      -0.018   1.503   0.010  0.00  0.00    +0.044 C 
ATOM      2  C   UNL     1       0.002  -0.004   0.002  0.00  0.00    -0.049 A 
ATOM      3  C   UNL     1       0.006  -0.683  -1.202  0.00  0.00    +0.005 A 
ATOM      4  C   UNL     1       0.033  -2.068  -1.219  0.00  0.00    +0.027 A 
ATOM      5  C   UNL     1       0.053  -2.764  -0.030  0.00  0.00    +0.071 A 
ATOM      6  C   UNL     1       0.034  -2.080   1.196  0.00  0.00    +0.057 A 
ATOM      7  C   UNL     1       0.023  -0.697   1.199  0.00  0.00    +0.028 A 
ATOM      8  N   UNL     1       0.007  -2.814   2.387  0.00  0.00    -0.282 N 
ATOM      9  C   UNL     1       0.337  -4.121   2.437  0.00  0.00    +0.246 C 
ATOM     10  O   UNL     1       0.295  -4.715   3.494  0.00  0.00    -0.273 OA
ATOM     11  C   UNL     1       0.757  -4.847   1.184  0.00  0.00    +0.236 C 
ATOM     12  N   UNL     1       0.106  -4.152   0.047  0.00  0.00    -0.218 N 
ATOM     13  N   UNL     1      -0.426  -5.158  -0.748  0.00  0.00    -0.184 N 
ATOM     14  N   UNL     1      -0.478  -6.342  -0.002  0.00  0.00    -0.166 NA
ATOM     15  C   UNL     1       0.185  -6.242   1.135  0.00  0.00    +0.153 C 
ATOM     16  H   UNL     1      -0.257  -2.366   3.206  0.00  0.00    +0.155 HD
ATOM     17  H   UNL     1      -0.715  -5.057  -1.668  0.00  0.00    +0.193 HD
ENDROOT
BRANCH  15  18
ATOM     18  C   UNL     1       0.335  -7.273   2.163  0.00  0.00    +0.262 C 
ATOM     19  O   UNL     1       0.972  -7.037   3.173  0.00  0.00    -0.269 OA
ATOM     20  N   UNL     1      -0.231  -8.484   1.991  0.00  0.00    -0.310 N 
ATOM     21  H   UNL     1      -0.738  -8.672   1.186  0.00  0.00    +0.149 HD
BRANCH  20  22
ATOM     22  C   UNL     1      -0.080  -9.516   3.019  0.00  0.00    +0.109 C 
BRANCH  22  23
ATOM     23  C   UNL     1      -0.813 -10.785   2.580  0.00  0.00    +0.061 C 
BRANCH  23  24
ATOM     24  C   UNL     1      -0.658 -11.847   3.638  0.00  0.00    -0.009 A 
ATOM     25  C   UNL     1      -1.450 -12.109   4.707  0.00  0.00    +0.011 A 
ATOM     26  C   UNL     1      -1.110 -13.146   5.555  0.00  0.00    +0.008 A 
ATOM     27  C   UNL     1       0.006 -13.870   5.293  0.00  0.00    +0.045 A 
ATOM     28  S   UNL     1       0.611 -13.091   3.805  0.00  0.00    -0.102 S 
ENDBRANCH  23  24
ENDBRANCH  22  23
ENDBRANCH  20  22
ENDBRANCH  15  18
TORSDOF 4
