REMARK  Name = ZINC51829080
REMARK  8 active torsions:
REMARK  status: ('A' for Active; 'I' for Inactive)
REMARK    1  A    between atoms: C_1  and  C_2
REMARK    2  A    between atoms: C_5  and  C_31
REMARK    3  A    between atoms: N_8  and  S_10
REMARK    4  A    between atoms: S_10  and  C_13
REMARK    5  A    between atoms: C_17  and  C_19
REMARK    6  A    between atoms: C_19  and  O_21
REMARK    7  A    between atoms: O_21  and  C_22
REMARK    8  A    between atoms: C_26  and  C_28
REMARK                            x       y       z     vdW  Elec       q    Type
REMARK                         _______ _______ _______ _____ _____    ______ ____
ROOT
ATOM      1  C   UNL     1       2.482  -3.236  -0.254  0.00  0.00    +0.106 A 
ATOM      2  C   UNL     1       2.046  -4.381  -0.898  0.00  0.00    +0.028 A 
ATOM      3  C   UNL     1       2.504  -4.684  -2.168  0.00  0.00    +0.003 A 
ATOM      4  C   UNL     1       3.399  -3.847  -2.800  0.00  0.00    +0.015 A 
ATOM      5  C   UNL     1       3.843  -2.691  -2.156  0.00  0.00    +0.061 A 
ATOM      6  C   UNL     1       3.373  -2.387  -0.877  0.00  0.00    +0.043 A 
ENDROOT
BRANCH   1   7
ATOM      7  S   UNL     1       1.892  -2.859   1.363  0.00  0.00    +0.061 S 
ATOM      8  O   UNL     1       2.865  -2.014   1.963  0.00  0.00    -0.153 OA
ATOM      9  O   UNL     1       1.488  -4.090   1.946  0.00  0.00    -0.153 OA
BRANCH   7  15
ATOM     10  C   UNL     1      -0.165   1.518  -0.179  0.00  0.00    +0.009 C 
ATOM     11  C   UNL     1      -0.120  -0.011  -0.156  0.00  0.00    +0.002 C 
ATOM     12  C   UNL     1      -1.546  -0.565  -0.164  0.00  0.00    +0.009 C 
ATOM     13  C   UNL     1      -1.501  -2.095  -0.174  0.00  0.00    +0.002 C 
ATOM     14  C   UNL     1      -0.798  -2.589   1.093  0.00  0.00    +0.112 C 
ATOM     15  N   UNL     1       0.521  -1.948   1.183  0.00  0.00    -0.176 NA
ATOM     16  C   UNL     1       0.600  -0.482   1.111  0.00  0.00    +0.112 C 
ATOM     17  C   UNL     1      -2.928  -2.647  -0.216  0.00  0.00    +0.009 C 
ENDBRANCH   7  15
ENDBRANCH   1   7
BRANCH   5  18
ATOM     18  C   UNL     1       4.802  -1.789  -2.827  0.00  0.00    +0.344 C 
ATOM     19  O   UNL     1       5.187  -0.784  -2.264  0.00  0.00    -0.245 OA
BRANCH  18  20
ATOM     20  O   UNL     1       5.250  -2.082  -4.064  0.00  0.00    -0.422 OA
BRANCH  20  21
ATOM     21  C   UNL     1       6.050  -1.175  -4.684  0.00  0.00    +0.133 A 
ATOM     22  C   UNL     1       7.387  -1.069  -4.324  0.00  0.00    +0.046 A 
ATOM     23  C   UNL     1       8.206  -0.148  -4.951  0.00  0.00    +0.004 A 
ATOM     24  C   UNL     1       7.700   0.671  -5.940  0.00  0.00    +0.013 A 
ATOM     25  C   UNL     1       6.357   0.570  -6.309  0.00  0.00    +0.040 A 
ATOM     26  C   UNL     1       5.534  -0.363  -5.679  0.00  0.00    +0.059 A 
BRANCH  25  27
ATOM     27  C   UNL     1       5.812   1.446  -7.368  0.00  0.00    +0.242 C 
ATOM     28  O   UNL     1       4.643   1.357  -7.688  0.00  0.00    -0.270 OA
ATOM     29  N   UNL     1       6.611   2.344  -7.978  0.00  0.00    -0.325 N 
ATOM     30  H   UNL     1       7.544   2.415  -7.723  0.00  0.00    +0.145 HD
ATOM     31  H   UNL     1       6.253   2.919  -8.673  0.00  0.00    +0.145 HD
ENDBRANCH  25  27
ENDBRANCH  20  21
ENDBRANCH  18  20
ENDBRANCH   5  18
TORSDOF 6
