REMARK  Name = ZINC23564324
REMARK  10 active torsions:
REMARK  status: ('A' for Active; 'I' for Inactive)
REMARK    1  A    between atoms: C_1  and  C_2
REMARK    2  A    between atoms: C_6  and  C_33
REMARK    3  A    between atoms: C_7  and  N_8
REMARK    4  A    between atoms: C_9  and  C_11
REMARK    5  A    between atoms: C_11  and  N_12
REMARK    6  A    between atoms: C_13  and  C_15
REMARK    7  A    between atoms: C_15  and  C_17
REMARK    8  A    between atoms: C_15  and  S_18
REMARK    9  A    between atoms: S_18  and  C_19
REMARK   10  A    between atoms: C_30  and  C_32
REMARK                            x       y       z     vdW  Elec       q    Type
REMARK                         _______ _______ _______ _____ _____    ______ ____
ROOT
ATOM      1  N   UNL     1      -2.216  -2.835   0.261  0.00  0.00    -0.306 N 
ATOM      2  C   UNL     1      -2.339  -4.177   0.277  0.00  0.00    +0.227 C 
ATOM      3  O   UNL     1      -1.380  -4.877   0.028  0.00  0.00    -0.275 OA
ATOM      4  H   UNL     1      -3.086  -2.201   0.486  0.00  0.00    +0.149 HD
ENDROOT
BRANCH   2   5
ATOM      5  C   UNL     1      -3.668  -4.809   0.603  0.00  0.00    +0.137 C 
ATOM      6  C   UNL     1      -4.518  -4.893  -0.666  0.00  0.00    +0.029 C 
BRANCH   5   7
ATOM      7  S   UNL     1      -3.399  -6.473   1.261  0.00  0.00    -0.073 S 
BRANCH   7   8
ATOM      8  C   UNL     1      -5.054  -6.905   1.687  0.00  0.00    +0.197 A 
ATOM      9  N   UNL     1      -6.121  -6.153   1.530  0.00  0.00    -0.122 NA
ATOM     10  N   UNL     1      -7.167  -6.774   1.946  0.00  0.00    -0.129 NA
ATOM     11  C   UNL     1      -6.830  -7.968   2.396  0.00  0.00    +0.162 A 
ATOM     12  N   UNL     1      -5.467  -8.083   2.236  0.00  0.00    -0.270 N 
ATOM     13  C   UNL     1      -4.801  -9.232   2.626  0.00  0.00    +0.058 A 
ATOM     14  C   UNL     1      -3.426  -9.348   2.470  0.00  0.00    +0.027 A 
ATOM     15  C   UNL     1      -2.784 -10.505   2.861  0.00  0.00    +0.002 A 
ATOM     16  C   UNL     1      -3.499 -11.559   3.409  0.00  0.00    +0.001 A 
ATOM     17  C   UNL     1      -4.864 -11.466   3.571  0.00  0.00    +0.010 A 
ATOM     18  C   UNL     1      -5.529 -10.300   3.181  0.00  0.00    +0.002 A 
ATOM     19  C   UNL     1      -6.980 -10.170   3.341  0.00  0.00    -0.038 A 
ATOM     20  C   UNL     1      -7.587  -9.026   2.952  0.00  0.00    +0.052 A 
ATOM     21  C   UNL     1      -7.786 -11.298   3.933  0.00  0.00    +0.044 C 
ENDBRANCH   7   8
ENDBRANCH   5   7
ENDBRANCH   2   5
BRANCH   1  22
ATOM     22  C   UNL     1      -0.925  -2.221  -0.057  0.00  0.00    +0.200 C 
BRANCH  22  24
ATOM     23  N   UNL     1       0.013   0.058  -0.267  0.00  0.00    -0.284 N 
ATOM     24  C   UNL     1      -1.056  -0.721  -0.007  0.00  0.00    +0.234 C 
ATOM     25  O   UNL     1      -2.123  -0.214   0.267  0.00  0.00    -0.274 OA
ATOM     26  H   UNL     1       0.956  -0.397  -0.604  0.00  0.00    +0.155 HD
BRANCH  23  33
ATOM     27  C   UNL     1       1.852   1.331   1.493  0.00  0.00    +0.045 C 
ATOM     28  C   UNL     1       0.801   2.107   0.742  0.00  0.00    -0.029 A 
ATOM     29  C   UNL     1       0.714   3.477   0.892  0.00  0.00    +0.005 A 
ATOM     30  C   UNL     1      -0.255   4.189   0.208  0.00  0.00    +0.001 A 
ATOM     31  C   UNL     1      -1.134   3.532  -0.633  0.00  0.00    +0.005 A 
ATOM     32  C   UNL     1      -1.048   2.163  -0.793  0.00  0.00    -0.029 A 
ATOM     33  C   UNL     1      -0.077   1.445  -0.107  0.00  0.00    +0.039 A 
ATOM     34  C   UNL     1      -2.007   1.449  -1.711  0.00  0.00    +0.045 C 
ENDBRANCH  23  33
ENDBRANCH  22  24
ENDBRANCH   1  22
TORSDOF 6
