REMARK  Name = ZINC21726344
REMARK  6 active torsions:
REMARK  status: ('A' for Active; 'I' for Inactive)
REMARK    1  A    between atoms: C_1  and  C_2
REMARK    2  A    between atoms: C_13  and  C_16
REMARK    3  A    between atoms: C_21  and  C_23
REMARK    4  A    between atoms: C_28  and  O_29
REMARK    5  A    between atoms: O_29  and  C_30
REMARK    6  A    between atoms: C_30  and  C_31
REMARK                            x       y       z     vdW  Elec       q    Type
REMARK                         _______ _______ _______ _____ _____    ______ ____
ROOT
ATOM      1  C   UNL     1       5.996   3.334  -3.092  0.00  0.00    +0.068 C 
ATOM      2  C   UNL     1       5.495   3.565  -4.495  0.00  0.00    +0.066 A 
ATOM      3  C   UNL     1       4.485   4.441  -4.862  0.00  0.00    +0.023 A 
ATOM      4  C   UNL     1       4.339   4.372  -6.223  0.00  0.00    +0.134 A 
ATOM      5  N   UNL     1       5.219   3.457  -6.681  0.00  0.00    -0.198 N 
ATOM      6  N   UNL     1       5.941   2.972  -5.578  0.00  0.00    -0.168 NA
ATOM      7  C   UNL     1       5.383   3.063  -8.012  0.00  0.00    +0.176 A 
ATOM      8  C   UNL     1       6.620   2.542  -8.435  0.00  0.00    +0.054 A 
ATOM      9  C   UNL     1       6.790   2.151  -9.726  0.00  0.00    +0.054 A 
ATOM     10  C   UNL     1       5.719   2.286 -10.629  0.00  0.00    +0.178 A 
ATOM     11  N   UNL     1       5.565   2.012 -11.915  0.00  0.00    -0.128 NA
ATOM     12  N   UNL     1       4.369   2.326 -12.275  0.00  0.00    -0.132 NA
ATOM     13  C   UNL     1       3.703   2.811 -11.256  0.00  0.00    +0.152 A 
ATOM     14  N   UNL     1       4.526   2.803 -10.186  0.00  0.00    -0.195 N 
ATOM     15  N   UNL     1       4.384   3.189  -8.852  0.00  0.00    -0.144 NA
ATOM     16  C   UNL     1       2.274   3.290 -11.276  0.00  0.00    +0.090 C 
ATOM     17  N   UNL     1       3.398   5.144  -6.902  0.00  0.00    -0.270 N 
ATOM     18  C   UNL     1       2.783   6.138  -6.225  0.00  0.00    +0.219 C 
ATOM     19  O   UNL     1       1.845   6.707  -6.741  0.00  0.00    -0.275 OA
ATOM     20  C   UNL     1       3.226   6.560  -4.853  0.00  0.00    +0.109 C 
ATOM     21  C   UNL     1       3.640   5.351  -4.007  0.00  0.00    +0.066 C 
ATOM     22  H   UNL     1       3.175   4.936  -7.959  0.00  0.00    +0.156 HD
ENDROOT
BRANCH  21  23
ATOM     23  C   UNL     1       4.438   5.814  -2.816  0.00  0.00    +0.002 A 
ATOM     24  C   UNL     1       5.613   6.517  -3.002  0.00  0.00    +0.008 A 
ATOM     25  C   UNL     1       6.346   6.942  -1.909  0.00  0.00    +0.001 A 
ATOM     26  C   UNL     1       5.905   6.665  -0.628  0.00  0.00    +0.004 A 
ATOM     27  C   UNL     1       4.729   5.968  -0.437  0.00  0.00    +0.046 A 
ATOM     28  C   UNL     1       3.994   5.535  -1.532  0.00  0.00    +0.125 A 
BRANCH  28  29
ATOM     29  O   UNL     1       2.838   4.845  -1.346  0.00  0.00    -0.487 OA
BRANCH  29  30
ATOM     30  C   UNL     1       2.442   4.593   0.004  0.00  0.00    +0.264 C 
BRANCH  30  31
ATOM     31  C   UNL     1       1.148   3.822   0.012  0.00  0.00    -0.009 A 
ATOM     32  C   UNL     1      -0.059   4.497   0.027  0.00  0.00    +0.007 A 
ATOM     33  C   UNL     1      -1.247   3.789   0.035  0.00  0.00    +0.002 A 
ATOM     34  C   UNL     1      -1.229   2.407   0.021  0.00  0.00    +0.020 A 
ATOM     35  C   UNL     1      -0.021   1.732   0.012  0.00  0.00    +0.041 A 
ATOM     36  C   UNL     1       1.167   2.440   0.004  0.00  0.00    +0.027 A 
ATOM     37 CL   UNL     1       0.002  -0.004   0.002  0.00  0.00    -0.084 Cl
ENDBRANCH  30  31
ENDBRANCH  29  30
ENDBRANCH  28  29
ENDBRANCH  21  23
TORSDOF 4
