REMARK  Name = ZINC00989112
REMARK  7 active torsions:
REMARK  status: ('A' for Active; 'I' for Inactive)
REMARK    1  A    between atoms: C_1  and  C_2
REMARK    2  A    between atoms: C_9  and  C_17
REMARK    3  A    between atoms: C_11  and  C_15
REMARK    4  A    between atoms: C_12  and  N_14
REMARK    5  A    between atoms: C_20  and  O_23
REMARK    6  A    between atoms: O_23  and  C_24
REMARK    7  A    between atoms: C_24  and  C_25
REMARK                            x       y       z     vdW  Elec       q    Type
REMARK                         _______ _______ _______ _____ _____    ______ ____
ROOT
ATOM      1  C   UNL     1       2.342   5.508  -0.786  0.00  0.00    +0.086 C 
ATOM      2  C   UNL     1       2.334   4.057  -0.379  0.00  0.00    +0.110 A 
ATOM      3  C   UNL     1       1.166   3.389  -0.377  0.00  0.00    +0.088 A 
ATOM      4  C   UNL     1       1.143   2.028   0.002  0.00  0.00    +0.144 A 
ATOM      5  C   UNL     1       2.333   1.429   0.360  0.00  0.00    +0.092 A 
ATOM      6  C   UNL     1       3.508   2.189   0.334  0.00  0.00    +0.345 A 
ATOM      7  O   UNL     1       4.566   1.671   0.649  0.00  0.00    -0.245 OA
ATOM      8  O   UNL     1       3.488   3.478  -0.032  0.00  0.00    -0.427 OA
ATOM      9  C   UNL     1       2.372  -0.016   0.772  0.00  0.00    +0.105 C 
ATOM     10  C   UNL     1       1.104  -0.708   0.353  0.00  0.00    +0.098 C 
ATOM     11  C   UNL     1       0.002  -0.004   0.002  0.00  0.00    +0.199 C 
ATOM     12  O   UNL     1      -0.016   1.341   0.009  0.00  0.00    -0.441 OA
ENDROOT
BRANCH   9  13
ATOM     13  C   UNL     1       2.518  -0.105   2.270  0.00  0.00    -0.034 A 
ATOM     14  C   UNL     1       1.552   0.447   3.091  0.00  0.00    +0.008 A 
ATOM     15  C   UNL     1       1.680   0.362   4.464  0.00  0.00    +0.046 A 
ATOM     16  C   UNL     1       2.785  -0.267   5.018  0.00  0.00    +0.121 A 
ATOM     17  C   UNL     1       3.756  -0.815   4.192  0.00  0.00    +0.046 A 
ATOM     18  C   UNL     1       3.620  -0.733   2.820  0.00  0.00    +0.008 A 
BRANCH  16  19
ATOM     19  O   UNL     1       2.916  -0.348   6.369  0.00  0.00    -0.487 OA
BRANCH  19  20
ATOM     20  C   UNL     1       1.879   0.238   7.157  0.00  0.00    +0.264 C 
BRANCH  20  21
ATOM     21  C   UNL     1       2.193   0.053   8.619  0.00  0.00    -0.010 A 
ATOM     22  C   UNL     1       1.742  -1.070   9.287  0.00  0.00    +0.007 A 
ATOM     23  C   UNL     1       2.035  -1.242  10.627  0.00  0.00    +0.000 A 
ATOM     24  C   UNL     1       2.771  -0.286  11.302  0.00  0.00    +0.000 A 
ATOM     25  C   UNL     1       3.218   0.840  10.636  0.00  0.00    +0.000 A 
ATOM     26  C   UNL     1       2.929   1.009   9.294  0.00  0.00    +0.007 A 
ENDBRANCH  20  21
ENDBRANCH  19  20
ENDBRANCH  16  19
ENDBRANCH   9  13
BRANCH  11  27
ATOM     27  N   UNL     1      -1.130  -0.683  -0.372  0.00  0.00    -0.328 N 
ATOM     28  H   UNL     1      -1.928  -0.193  -0.626  0.00  0.00    +0.145 HD
ATOM     29  H   UNL     1      -1.133  -1.653  -0.383  0.00  0.00    +0.145 HD
ENDBRANCH  11  27
BRANCH  10  30
ATOM     30  C   UNL     1       1.062  -2.139   0.324  0.00  0.00    +0.101 C 
ATOM     31  N   UNL     1       1.028  -3.274   0.301  0.00  0.00    -0.191 NA
ENDBRANCH  10  30
TORSDOF 6
