REMARK  Name = ZINC40245642
REMARK  4 active torsions:
REMARK  status: ('A' for Active; 'I' for Inactive)
REMARK    1  A    between atoms: C_1  and  C_2
REMARK    2  A    between atoms: C_5  and  C_7
REMARK    3  A    between atoms: C_7  and  C_9
REMARK    4  A    between atoms: C_7  and  O_18
REMARK                            x       y       z     vdW  Elec       q    Type
REMARK                         _______ _______ _______ _____ _____    ______ ____
ROOT
ATOM      1  C   UNL     1       0.935  -2.562   2.796  0.00  0.00    -0.018 A 
ATOM      2  C   UNL     1       0.687  -2.136   4.088  0.00  0.00    +0.010 A 
ATOM      3  C   UNL     1       1.438  -2.622   5.138  0.00  0.00    +0.046 A 
ATOM      4  C   UNL     1       2.453  -3.547   4.906  0.00  0.00    +0.124 A 
ATOM      5  C   UNL     1       2.697  -3.962   3.603  0.00  0.00    -0.002 A 
ATOM      6  C   UNL     1       1.940  -3.482   2.557  0.00  0.00    +0.013 A 
ATOM      7  C   UNL     1       3.857  -4.937   3.657  0.00  0.00    +0.080 C 
ATOM      8  C   UNL     1       4.431  -4.673   5.069  0.00  0.00    +0.234 C 
ATOM      9  O   UNL     1       3.295  -4.158   5.784  0.00  0.00    -0.491 OA
ENDROOT
BRANCH   1  10
ATOM     10  C   UNL     1       0.109  -2.031   1.653  0.00  0.00    +0.148 C 
BRANCH  10  14
ATOM     11  C   UNL     1      -0.019   1.526   0.010  0.00  0.00    +0.008 C 
ATOM     12  C   UNL     1       0.002  -0.004   0.002  0.00  0.00    -0.008 C 
ATOM     13  C   UNL     1       1.351  -0.691  -0.221  0.00  0.00    +0.010 C 
ATOM     14  C   UNL     1       0.703  -0.708   1.166  0.00  0.00    +0.025 C 
ENDBRANCH  10  14
BRANCH  10  15
ATOM     15  O   UNL     1      -1.233  -1.817   2.094  0.00  0.00    -0.387 OA
ATOM     16  H   UNL     1      -1.312  -1.184   2.821  0.00  0.00    +0.210 HD
ENDBRANCH  10  15
ENDBRANCH   1  10
TORSDOF 3
