REMARK  Name = ZINC04375629
REMARK  8 active torsions:
REMARK  status: ('A' for Active; 'I' for Inactive)
REMARK    1  A    between atoms: C_1  and  C_2
REMARK    2  A    between atoms: C_5  and  N_8
REMARK    3  A    between atoms: C_9  and  C_11
REMARK    4  A    between atoms: N_13  and  C_14
REMARK    5  A    between atoms: C_14  and  C_15
REMARK    6  A    between atoms: C_15  and  C_16
REMARK    7  A    between atoms: C_22  and  C_24
REMARK    8  A    between atoms: C_29  and  C_30
REMARK                            x       y       z     vdW  Elec       q    Type
REMARK                         _______ _______ _______ _____ _____    ______ ____
ROOT
ATOM      1  C   UNL     1      -1.377  -1.292   1.936  0.00  0.00    +0.111 C 
ENDROOT
BRANCH   1   4
ATOM      2  C   UNL     1      -2.938  -2.489   3.375  0.00  0.00    +0.299 C 
ATOM      3  O   UNL     1      -2.230  -2.214   4.322  0.00  0.00    -0.265 OA
ATOM      4  N   UNL     1      -2.599  -2.075   2.138  0.00  0.00    -0.307 N 
ATOM      5  H   UNL     1      -3.165  -2.295   1.381  0.00  0.00    +0.149 HD
BRANCH   2   7
ATOM      6  N   UNL     1      -4.522  -3.701   4.818  0.00  0.00    -0.278 N 
ATOM      7  C   UNL     1      -4.184  -3.287   3.581  0.00  0.00    +0.303 C 
ATOM      8  O   UNL     1      -4.891  -3.562   2.634  0.00  0.00    -0.265 OA
ATOM      9  H   UNL     1      -3.922  -3.543   5.563  0.00  0.00    +0.155 HD
BRANCH   6  14
ATOM     10  C   UNL     1      -9.453  -6.371   5.665  0.00  0.00    +0.044 C 
ATOM     11  C   UNL     1      -8.143  -5.662   5.440  0.00  0.00    -0.050 A 
ATOM     12  C   UNL     1      -7.439  -5.869   4.267  0.00  0.00    +0.005 A 
ATOM     13  C   UNL     1      -6.238  -5.220   4.058  0.00  0.00    +0.023 A 
ATOM     14  C   UNL     1      -5.737  -4.359   5.026  0.00  0.00    +0.034 A 
ATOM     15  C   UNL     1      -6.444  -4.157   6.205  0.00  0.00    +0.023 A 
ATOM     16  C   UNL     1      -7.647  -4.805   6.406  0.00  0.00    +0.005 A 
ENDBRANCH   6  14
ENDBRANCH   2   7
ENDBRANCH   1   4
BRANCH   1  17
ATOM     17  C   UNL     1      -1.229  -0.953   0.452  0.00  0.00    +0.075 C 
BRANCH  17  18
ATOM     18  C   UNL     1       0.028  -0.148   0.244  0.00  0.00    +0.054 A 
ATOM     19  C   UNL     1       1.196  -0.775   0.089  0.00  0.00    +0.072 A 
ATOM     20  S   UNL     1       2.321   0.597  -0.115  0.00  0.00    -0.056 S 
ATOM     21  C   UNL     1       1.125   1.903   0.026  0.00  0.00    +0.196 A 
ATOM     22  N   UNL     1      -0.041   1.224   0.217  0.00  0.00    -0.210 N 
ATOM     23  N   UNL     1      -1.022   2.242   0.339  0.00  0.00    -0.144 NA
ATOM     24  C   UNL     1      -0.414   3.400   0.213  0.00  0.00    +0.183 A 
ATOM     25  N   UNL     1       0.894   3.186   0.025  0.00  0.00    -0.200 NA
BRANCH  24  26
ATOM     26  C   UNL     1      -1.070   4.729   0.273  0.00  0.00    +0.024 A 
ATOM     27  C   UNL     1      -0.517   5.747   1.049  0.00  0.00    +0.012 A 
ATOM     28  C   UNL     1      -1.129   6.983   1.098  0.00  0.00    +0.001 A 
ATOM     29  C   UNL     1      -2.294   7.210   0.387  0.00  0.00    +0.000 A 
ATOM     30  C   UNL     1      -2.849   6.202  -0.380  0.00  0.00    +0.004 A 
ATOM     31  C   UNL     1      -2.243   4.963  -0.441  0.00  0.00    -0.040 A 
ATOM     32  C   UNL     1      -2.849   3.866  -1.277  0.00  0.00    +0.044 C 
ENDBRANCH  24  26
ENDBRANCH  17  18
ENDBRANCH   1  17
TORSDOF 6
