REMARK  Name = ZINC03898007
REMARK  4 active torsions:
REMARK  status: ('A' for Active; 'I' for Inactive)
REMARK    1  A    between atoms: C_1  and  C_2
REMARK    2  A    between atoms: C_4  and  C_16
REMARK    3  A    between atoms: C_6  and  C_15
REMARK    4  A    between atoms: C_9  and  C_12
REMARK                            x       y       z     vdW  Elec       q    Type
REMARK                         _______ _______ _______ _____ _____    ______ ____
ROOT
ATOM      1  C   UNL     1      -0.019   1.526   0.010  0.00  0.00    +0.011 C 
ATOM      2  C   UNL     1       0.002  -0.004   0.002  0.00  0.00    -0.030 C 
ATOM      3  C   UNL     1      -1.433  -0.534   0.013  0.00  0.00    +0.013 C 
ATOM      4  C   UNL     1      -1.413  -2.063   0.004  0.00  0.00    -0.030 C 
ATOM      5  C   UNL     1      -0.673  -2.570   1.244  0.00  0.00    +0.013 C 
ATOM      6  C   UNL     1       0.763  -2.041   1.233  0.00  0.00    -0.030 C 
ATOM      7  C   UNL     1       0.742  -0.511   1.242  0.00  0.00    +0.013 C 
ATOM      8  C   UNL     1       1.479  -2.534  -0.026  0.00  0.00    +0.023 C 
ATOM      9  C   UNL     1       0.739  -2.027  -1.265  0.00  0.00    +0.048 C 
ATOM     10  C   UNL     1       0.718  -0.497  -1.257  0.00  0.00    +0.023 C 
ATOM     11  C   UNL     1      -0.696  -2.557  -1.254  0.00  0.00    +0.023 C 
ATOM     12  C   UNL     1       1.503  -2.548   2.473  0.00  0.00    +0.011 C 
ATOM     13  C   UNL     1      -2.848  -2.593   0.015  0.00  0.00    +0.011 C 
ENDROOT
BRANCH   9  14
ATOM     14  C   UNL     1       1.444  -2.513  -2.505  0.00  0.00    +0.217 C 
ATOM     15  O   UNL     1       2.441  -3.198  -2.407  0.00  0.00    -0.275 OA
ATOM     16  N   UNL     1       0.968  -2.188  -3.723  0.00  0.00    -0.329 N 
ATOM     17  H   UNL     1       0.171  -1.640  -3.801  0.00  0.00    +0.145 HD
ATOM     18  H   UNL     1       1.422  -2.500  -4.521  0.00  0.00    +0.145 HD
ENDBRANCH   9  14
TORSDOF 1
