REMARK  Name = ZINC16361157
REMARK  7 active torsions:
REMARK  status: ('A' for Active; 'I' for Inactive)
REMARK    1  A    between atoms: C_1  and  O_2
REMARK    2  A    between atoms: O_2  and  C_3
REMARK    3  A    between atoms: C_3  and  C_5
REMARK    4  A    between atoms: C_8  and  C_11
REMARK    5  A    between atoms: C_18  and  S_29
REMARK    6  A    between atoms: S_29  and  C_30
REMARK    7  A    between atoms: C_30  and  C_31
REMARK                            x       y       z     vdW  Elec       q    Type
REMARK                         _______ _______ _______ _____ _____    ______ ____
ROOT
ATOM      1  C   UNL     1      -4.941  -2.948   0.033  0.00  0.00    +0.092 C 
ATOM      2  C   UNL     1      -5.704  -2.615   1.280  0.00  0.00    +0.069 A 
ATOM      3  C   UNL     1      -5.329  -3.176   2.508  0.00  0.00    +0.258 A 
ATOM      4  O   UNL     1      -4.383  -3.944   2.579  0.00  0.00    -0.267 OA
ATOM      5  N   UNL     1      -6.035  -2.852   3.612  0.00  0.00    -0.302 N 
ATOM      6  H   UNL     1      -5.793  -3.232   4.471  0.00  0.00    +0.171 HD
ATOM      7  C   UNL     1      -7.088  -1.991   3.522  0.00  0.00    +0.171 A 
ATOM      8  N   UNL     1      -7.444  -1.462   2.369  0.00  0.00    -0.208 NA
ATOM      9  C   UNL     1      -6.783  -1.751   1.243  0.00  0.00    +0.135 A 
ATOM     10  N   UNL     1      -7.171  -1.194   0.040  0.00  0.00    -0.302 N 
ATOM     11  C   UNL     1      -6.785  -1.758  -1.145  0.00  0.00    +0.017 C 
ATOM     12  C   UNL     1      -5.731  -2.599  -1.203  0.00  0.00    +0.024 C 
ATOM     13  C   UNL     1      -5.332  -3.176  -2.422  0.00  0.00    +0.162 C 
ATOM     14  O   UNL     1      -4.390  -3.944  -2.437  0.00  0.00    -0.292 OA
ATOM     15  C   UNL     1      -6.046  -2.861  -3.707  0.00  0.00    +0.080 C 
ATOM     16  C   UNL     1      -6.653  -1.458  -3.608  0.00  0.00    +0.014 C 
ATOM     17  C   UNL     1      -7.573  -1.414  -2.386  0.00  0.00    +0.051 C 
ATOM     18  H   UNL     1      -7.721  -0.395   0.036  0.00  0.00    +0.153 HD
ENDROOT
BRANCH   1  22
ATOM     19  C   UNL     1      -1.267  -0.760   0.010  0.00  0.00    +0.059 A 
ATOM     20  C   UNL     1      -2.487  -0.082   0.031  0.00  0.00    +0.015 A 
ATOM     21  C   UNL     1      -3.669  -0.794   0.033  0.00  0.00    +0.005 A 
ATOM     22  C   UNL     1      -3.646  -2.177   0.025  0.00  0.00    -0.035 A 
ATOM     23  C   UNL     1      -2.441  -2.856   0.010  0.00  0.00    +0.005 A 
ATOM     24  C   UNL     1      -1.252  -2.156   0.002  0.00  0.00    +0.015 A 
BRANCH  19  25
ATOM     25  C   UNL     1       0.002  -0.004   0.002  0.00  0.00    +0.339 C 
ATOM     26  O   UNL     1       1.062  -0.597  -0.011  0.00  0.00    -0.245 OA
BRANCH  25  28
ATOM     27  C   UNL     1       1.268   2.020   0.001  0.00  0.00    +0.280 C 
ATOM     28  O   UNL     1      -0.016   1.343   0.009  0.00  0.00    -0.464 OA
ENDBRANCH  25  28
ENDBRANCH  19  25
ENDBRANCH   1  22
BRANCH   7  29
ATOM     29  S   UNL     1      -7.991  -1.578   4.977  0.00  0.00    -0.084 S 
BRANCH  29  30
ATOM     30  C   UNL     1      -9.218  -0.448   4.274  0.00  0.00    +0.104 C 
BRANCH  30  31
ATOM     31  C   UNL     1     -10.128   0.049   5.368  0.00  0.00    -0.023 C 
ATOM     32  C   UNL     1     -10.133   1.318   5.691  0.00  0.00    +0.005 C 
ENDBRANCH  30  31
ENDBRANCH  29  30
ENDBRANCH   7  29
TORSDOF 6
