REMARK  Name = ZINC40884947
REMARK  1 active torsions:
REMARK  status: ('A' for Active; 'I' for Inactive)
REMARK    1  A    between atoms: C_17  and  C_19
REMARK                            x       y       z     vdW  Elec       q    Type
REMARK                         _______ _______ _______ _____ _____    ______ ____
ROOT
ATOM      1  C   UNL     1       2.360   1.436   0.005  0.00  0.00    +0.005 A 
ATOM      2  C   UNL     1       1.117   2.056   0.004  0.00  0.00    +0.018 A 
ATOM      3  C   UNL     1      -0.025   1.281  -0.006  0.00  0.00    +0.084 A 
ATOM      4  N   UNL     1       0.051  -0.036  -0.014  0.00  0.00    -0.350 N 
ATOM      5  C   UNL     1       1.216  -0.664  -0.013  0.00  0.00    +0.099 A 
ATOM      6  C   UNL     1       2.408   0.054  -0.003  0.00  0.00    +0.042 A 
ATOM      7  N   UNL     1       1.250  -2.054  -0.021  0.00  0.00    -0.314 N 
ATOM      8  C   UNL     1       2.526  -2.771  -0.152  0.00  0.00    +0.125 C 
ATOM      9  C   UNL     1       2.670  -3.737   1.030  0.00  0.00    +0.125 C 
ATOM     10  N   UNL     1       1.430  -4.516   1.153  0.00  0.00    -0.312 N 
ATOM     11  C   UNL     1       0.153  -3.799   1.284  0.00  0.00    +0.125 C 
ATOM     12  C   UNL     1       0.010  -2.833   0.108  0.00  0.00    +0.125 C 
ATOM     13  C   UNL     1       1.463  -5.906   1.145  0.00  0.00    +0.122 A 
ATOM     14  C   UNL     1       2.684  -6.566   1.240  0.00  0.00    +0.045 A 
ATOM     15  C   UNL     1       2.704  -7.949   1.232  0.00  0.00    +0.025 A 
ATOM     16  C   UNL     1       1.496  -8.629   1.127  0.00  0.00    +0.064 A 
ATOM     17  C   UNL     1       0.321  -7.908   1.036  0.00  0.00    +0.076 A 
ATOM     18  N   UNL     1       0.333  -6.589   1.052  0.00  0.00    -0.234 NA
ATOM     19 CL   UNL     1       1.464 -10.364   1.111  0.00  0.00    -0.082 Cl
ATOM     20  H   UNL     1      -0.767  -0.557  -0.021  0.00  0.00    +0.166 HD
ENDROOT
BRANCH  17  21
ATOM     21  C   UNL     1      -0.993  -8.639   0.921  0.00  0.00    +0.165 C 
ATOM     22 CL   UNL     1      -1.656  -8.943   2.570  0.00  0.00    -0.119 Cl
ENDBRANCH  17  21
TORSDOF 1
