REMARK  Name = ZINC57036294
REMARK  9 active torsions:
REMARK  status: ('A' for Active; 'I' for Inactive)
REMARK    1  A    between atoms: C_1  and  C_2
REMARK    2  A    between atoms: C_4  and  C_8
REMARK    3  A    between atoms: C_5  and  C_7
REMARK    4  A    between atoms: N_10  and  C_11
REMARK    5  A    between atoms: C_11  and  C_12
REMARK    6  A    between atoms: N_14  and  C_15
REMARK    7  A    between atoms: C_15  and  C_17
REMARK    8  A    between atoms: C_15  and  C_18
REMARK    9  A    between atoms: C_19  and  C_27
REMARK                            x       y       z     vdW  Elec       q    Type
REMARK                         _______ _______ _______ _____ _____    ______ ____
ROOT
ATOM      1  C   UNL     1      -4.967  -4.253   0.001  0.00  0.00    +0.231 C 
ATOM      2  O   UNL     1      -5.320  -3.092   0.009  0.00  0.00    -0.274 OA
ATOM      3  N   UNL     1      -5.887  -5.237  -0.001  0.00  0.00    -0.304 N 
ATOM      4  H   UNL     1      -5.605  -6.165  -0.007  0.00  0.00    +0.149 HD
ENDROOT
BRANCH   3   5
ATOM      5  C   UNL     1      -7.314  -4.905   0.008  0.00  0.00    +0.136 C 
ATOM      6  C   UNL     1      -7.789  -4.660  -1.426  0.00  0.00    +0.036 C 
BRANCH   5   7
ATOM      7  C   UNL     1      -8.092  -6.050   0.605  0.00  0.00    +0.129 A 
ATOM      8  C   UNL     1      -9.075  -5.921   1.507  0.00  0.00    +0.000 A 
ATOM      9  C   UNL     1      -9.541  -7.281   1.801  0.00  0.00    +0.023 A 
ATOM     10  C   UNL     1     -10.519  -7.817   2.637  0.00  0.00    +0.012 A 
ATOM     11  C   UNL     1     -10.707  -9.171   2.680  0.00  0.00    +0.001 A 
ATOM     12  C   UNL     1      -9.929 -10.013   1.899  0.00  0.00    +0.004 A 
ATOM     13  C   UNL     1      -8.957  -9.501   1.066  0.00  0.00    +0.047 A 
ATOM     14  C   UNL     1      -8.751  -8.129   1.007  0.00  0.00    +0.136 A 
ATOM     15  O   UNL     1      -7.904  -7.347   0.306  0.00  0.00    -0.458 OA
ATOM     16  C   UNL     1      -9.597  -4.637   2.099  0.00  0.00    +0.048 C 
ENDBRANCH   5   7
ENDBRANCH   3   5
BRANCH   1  17
ATOM     17  C   UNL     1      -3.499  -4.593  -0.008  0.00  0.00    +0.200 C 
BRANCH  17  20
ATOM     18  C   UNL     1      -1.364  -3.418  -0.011  0.00  0.00    +0.248 C 
ATOM     19  O   UNL     1      -0.804  -4.497  -0.020  0.00  0.00    -0.270 OA
ATOM     20  N   UNL     1      -2.711  -3.358  -0.005  0.00  0.00    -0.303 N 
ATOM     21  H   UNL     1      -3.158  -2.498   0.002  0.00  0.00    +0.150 HD
BRANCH  18  25
ATOM     22  C   UNL     1      -0.018   1.503   0.010  0.00  0.00    +0.086 C 
ATOM     23  C   UNL     1       0.002  -0.004   0.002  0.00  0.00    +0.103 A 
ATOM     24  C   UNL     1      -1.081  -0.797   0.003  0.00  0.00    +0.057 A 
ATOM     25  C   UNL     1      -0.571  -2.176  -0.008  0.00  0.00    +0.077 A 
ATOM     26  C   UNL     1       0.788  -2.066  -0.014  0.00  0.00    +0.114 A 
ATOM     27  O   UNL     1       1.106  -0.767  -0.013  0.00  0.00    -0.464 OA
ATOM     28  C   UNL     1       1.766  -3.212  -0.026  0.00  0.00    +0.087 C 
ENDBRANCH  18  25
ENDBRANCH  17  20
ENDBRANCH   1  17
TORSDOF 5
