REMARK  Name = ZINC67654510
REMARK  7 active torsions:
REMARK  status: ('A' for Active; 'I' for Inactive)
REMARK    1  A    between atoms: C_1  and  C_2
REMARK    2  A    between atoms: N_8  and  C_9
REMARK    3  A    between atoms: C_9  and  C_10
REMARK    4  A    between atoms: C_10  and  C_11
REMARK    5  A    between atoms: C_11  and  N_12
REMARK    6  A    between atoms: N_19  and  C_20
REMARK    7  A    between atoms: N_19  and  C_21
REMARK                            x       y       z     vdW  Elec       q    Type
REMARK                         _______ _______ _______ _____ _____    ______ ____
ROOT
ATOM      1  N   UNL     1      -2.794   1.302   4.649  0.00  0.00    -0.329 N 
ATOM      2  C   UNL     1      -3.045   1.988   5.826  0.00  0.00    +0.127 A 
ATOM      3  C   UNL     1      -4.358   2.208   6.254  0.00  0.00    +0.010 A 
ATOM      4  C   UNL     1      -4.566   2.891   7.428  0.00  0.00    +0.034 A 
ATOM      5  N   UNL     1      -3.516   3.324   8.118  0.00  0.00    -0.221 NA
ATOM      6  C   UNL     1      -2.282   3.104   7.691  0.00  0.00    +0.219 A 
ATOM      7  N   UNL     1      -2.042   2.443   6.569  0.00  0.00    -0.199 NA
ATOM      8  N   UNL     1      -1.217   3.572   8.440  0.00  0.00    -0.306 N 
ATOM      9  C   UNL     1      -1.462   4.300   9.687  0.00  0.00    +0.132 C 
ATOM     10  C   UNL     1       0.156   3.339   7.986  0.00  0.00    +0.132 C 
ATOM     11  C   UNL     1      -5.950   3.157   7.955  0.00  0.00    -0.026 C 
ATOM     12  N   UNL     1      -6.944   3.008   6.888  0.00  0.00    +0.383 N 
ATOM     13  C   UNL     1      -6.784   1.687   6.261  0.00  0.00    -0.077 C 
ATOM     14  C   UNL     1      -5.504   1.696   5.423  0.00  0.00    +0.021 C 
ATOM     15  H   UNL     1      -3.533   0.973   4.113  0.00  0.00    +0.147 HD
ATOM     16  H   UNL     1      -7.872   3.086   7.277  0.00  0.00    -0.085 HD
ATOM     17  H   UNL     1      -6.806   3.729   6.195  0.00  0.00    -0.085 HD
ENDROOT
BRANCH   1  18
ATOM     18  C   UNL     1      -1.414   1.073   4.215  0.00  0.00    +0.104 C 
BRANCH  18  19
ATOM     19  C   UNL     1      -1.417   0.299   2.895  0.00  0.00    +0.040 C 
BRANCH  19  20
ATOM     20  C   UNL     1       0.025   0.060   2.442  0.00  0.00    +0.126 C 
BRANCH  20  28
ATOM     21  C   UNL     1      -0.018   1.503   0.010  0.00  0.00    +0.063 C 
ATOM     22  C   UNL     1       0.002  -0.004   0.002  0.00  0.00    +0.019 A 
ATOM     23  C   UNL     1       0.005  -0.667  -1.178  0.00  0.00    +0.021 A 
ATOM     24  C   UNL     1       0.025  -2.069  -1.193  0.00  0.00    +0.007 A 
ATOM     25  C   UNL     1       0.039  -2.748  -0.010  0.00  0.00    +0.070 A 
ATOM     26  C   UNL     1       0.035  -2.028   1.197  0.00  0.00    +0.251 A 
ATOM     27  O   UNL     1       0.049  -2.624   2.262  0.00  0.00    -0.268 OA
ATOM     28  N   UNL     1       0.022  -0.682   1.178  0.00  0.00    -0.313 N 
ENDBRANCH  20  28
ENDBRANCH  19  20
ENDBRANCH  18  19
ENDBRANCH   1  18
TORSDOF 4
