REMARK  Name = ZINC07482444
REMARK  8 active torsions:
REMARK  status: ('A' for Active; 'I' for Inactive)
REMARK    1  A    between atoms: C_1  and  C_2
REMARK    2  A    between atoms: C_3  and  C_27
REMARK    3  A    between atoms: C_4  and  C_26
REMARK    4  A    between atoms: C_7  and  C_8
REMARK    5  A    between atoms: C_8  and  O_10
REMARK    6  A    between atoms: O_10  and  C_11
REMARK    7  A    between atoms: C_11  and  C_12
REMARK    8  A    between atoms: C_27  and  C_29
REMARK                            x       y       z     vdW  Elec       q    Type
REMARK                         _______ _______ _______ _____ _____    ______ ____
ROOT
ATOM      1  O   UNL     1      -2.489   0.977  -0.645  0.00  0.00    -0.451 OA
ENDROOT
BRANCH   1   2
ATOM      2  C   UNL     1      -3.734   1.471  -0.483  0.00  0.00    +0.356 C 
ATOM      3  O   UNL     1      -3.930   2.667  -0.573  0.00  0.00    -0.243 OA
BRANCH   2  10
ATOM      4  C   UNL     1      -6.699   2.337  -0.053  0.00  0.00    +0.047 C 
ATOM      5  C   UNL     1      -6.150   0.934  -0.009  0.00  0.00    -0.008 A 
ATOM      6  C   UNL     1      -6.886  -0.251   0.232  0.00  0.00    +0.041 A 
ATOM      7  C   UNL     1      -5.984  -1.304   0.187  0.00  0.00    +0.024 A 
ATOM      8  N   UNL     1      -4.766  -0.806  -0.072  0.00  0.00    -0.352 N 
ATOM      9  H   UNL     1      -3.953  -1.328  -0.157  0.00  0.00    +0.166 HD
ATOM     10  C   UNL     1      -4.851   0.564  -0.199  0.00  0.00    +0.128 A 
ATOM     11  C   UNL     1      -6.317  -2.759   0.394  0.00  0.00    +0.064 C 
BRANCH   6  12
ATOM     12  C   UNL     1      -8.326  -0.346   0.488  0.00  0.00    +0.162 C 
ATOM     13  O   UNL     1      -9.103  -0.428  -0.440  0.00  0.00    -0.292 OA
ATOM     14  C   UNL     1      -8.842  -0.343   1.904  0.00  0.00    +0.091 C 
ENDBRANCH   6  12
ENDBRANCH   2  10
ENDBRANCH   1   2
BRANCH   1  15
ATOM     15  C   UNL     1      -1.432   1.932  -0.924  0.00  0.00    +0.328 C 
BRANCH  15  16
ATOM     16  C   UNL     1      -0.122   1.202  -1.073  0.00  0.00    +0.253 C 
ATOM     17  O   UNL     1      -0.083  -0.004  -0.955  0.00  0.00    -0.272 OA
ATOM     18  N   UNL     1       1.005   1.890  -1.342  0.00  0.00    -0.298 N 
ATOM     19  C   UNL     1       0.975   3.352  -1.487  0.00  0.00    +0.108 C 
ATOM     20  C   UNL     1       2.011   3.962  -0.538  0.00  0.00    +0.023 C 
ATOM     21  C   UNL     1       3.381   3.333  -0.809  0.00  0.00    -0.005 C 
ATOM     22  C   UNL     1       4.418   3.967   0.120  0.00  0.00    +0.004 C 
ATOM     23  C   UNL     1       5.790   3.342  -0.140  0.00  0.00    +0.000 C 
ATOM     24  C   UNL     1       5.721   1.837   0.127  0.00  0.00    +0.000 C 
ATOM     25  C   UNL     1       4.687   1.202  -0.805  0.00  0.00    +0.005 C 
ATOM     26  C   UNL     1       3.314   1.827  -0.548  0.00  0.00    +0.010 C 
ATOM     27  C   UNL     1       2.290   1.194  -1.490  0.00  0.00    +0.111 C 
ENDBRANCH  15  16
ENDBRANCH   1  15
TORSDOF 5
