REMARK  Name = ZINC08603495
REMARK  10 active torsions:
REMARK  status: ('A' for Active; 'I' for Inactive)
REMARK    1  A    between atoms: C_1  and  C_2
REMARK    2  A    between atoms: C_5  and  C_8
REMARK    3  A    between atoms: C_10  and  C_28
REMARK    4  A    between atoms: C_11  and  C_16
REMARK    5  A    between atoms: C_16  and  S_17
REMARK    6  A    between atoms: S_17  and  C_20
REMARK    7  A    between atoms: C_23  and  C_27
REMARK    8  A    between atoms: C_25  and  C_26
REMARK    9  A    between atoms: C_28  and  O_30
REMARK   10  A    between atoms: O_30  and  C_31
REMARK                            x       y       z     vdW  Elec       q    Type
REMARK                         _______ _______ _______ _____ _____    ______ ____
ROOT
ATOM      1  C   UNL     1       0.067  -4.289  -0.029  0.00  0.00    +0.144 C 
ATOM      2  C   UNL     1      -1.337  -4.848   0.083  0.00  0.00    +0.080 C 
ATOM      3  C   UNL     1      -1.620  -5.627   1.149  0.00  0.00    +0.045 C 
ATOM      4  N   UNL     1      -0.672  -5.901   2.093  0.00  0.00    -0.271 N 
ATOM      5  C   UNL     1       0.582  -5.434   2.044  0.00  0.00    +0.304 C 
ATOM      6  O   UNL     1       1.356  -5.733   2.933  0.00  0.00    -0.252 OA
ATOM      7  N   UNL     1       1.013  -4.644   1.042  0.00  0.00    -0.288 N 
ATOM      8  H   UNL     1      -0.921  -6.465   2.842  0.00  0.00    +0.156 HD
ATOM      9  H   UNL     1       1.927  -4.317   1.027  0.00  0.00    +0.151 HD
ENDROOT
BRANCH   1  14
ATOM     10  C   UNL     1      -0.323   1.473  -0.227  0.00  0.00    +0.044 C 
ATOM     11  C   UNL     1      -0.221  -0.030  -0.175  0.00  0.00    -0.050 A 
ATOM     12  C   UNL     1      -0.117  -0.756  -1.347  0.00  0.00    +0.004 A 
ATOM     13  C   UNL     1      -0.024  -2.134  -1.299  0.00  0.00    +0.006 A 
ATOM     14  C   UNL     1      -0.034  -2.786  -0.081  0.00  0.00    -0.022 A 
ATOM     15  C   UNL     1      -0.137  -2.060   1.091  0.00  0.00    +0.006 A 
ATOM     16  C   UNL     1      -0.226  -0.681   1.044  0.00  0.00    +0.004 A 
ENDBRANCH   1  14
BRANCH   2  17
ATOM     17  C   UNL     1      -2.317  -4.563  -0.896  0.00  0.00    +0.339 C 
ATOM     18  O   UNL     1      -2.315  -5.165  -1.953  0.00  0.00    -0.245 OA
BRANCH  17  19
ATOM     19  O   UNL     1      -3.256  -3.623  -0.657  0.00  0.00    -0.465 OA
ATOM     20  C   UNL     1      -4.215  -3.387  -1.689  0.00  0.00    +0.280 C 
ENDBRANCH  17  19
ENDBRANCH   2  17
BRANCH   3  21
ATOM     21  C   UNL     1      -3.004  -6.203   1.299  0.00  0.00    +0.223 C 
BRANCH  21  22
ATOM     22  S   UNL     1      -2.975  -7.966   0.873  0.00  0.00    +0.002 S 
ATOM     23  O   UNL     1      -2.717  -8.130  -0.515  0.00  0.00    -0.169 OA
ATOM     24  O   UNL     1      -2.227  -8.691   1.839  0.00  0.00    -0.169 OA
BRANCH  22  25
ATOM     25  C   UNL     1      -4.637  -8.511   1.088  0.00  0.00    +0.091 A 
ATOM     26  C   UNL     1      -5.367  -8.951  -0.001  0.00  0.00    +0.027 A 
ATOM     27  C   UNL     1      -6.670  -9.379   0.168  0.00  0.00    +0.005 A 
ATOM     28  C   UNL     1      -7.244  -9.368   1.425  0.00  0.00    -0.050 A 
ATOM     29  C   UNL     1      -6.514  -8.929   2.514  0.00  0.00    +0.008 A 
ATOM     30  C   UNL     1      -5.209  -8.505   2.346  0.00  0.00    -0.025 A 
ATOM     31  C   UNL     1      -4.411  -8.032   3.534  0.00  0.00    +0.046 C 
ATOM     32  C   UNL     1      -8.665  -9.833   1.609  0.00  0.00    +0.044 C 
ENDBRANCH  22  25
ENDBRANCH  21  22
ENDBRANCH   3  21
TORSDOF 6
