REMARK  Name = ZINC49658298
REMARK  6 active torsions:
REMARK  status: ('A' for Active; 'I' for Inactive)
REMARK    1  A    between atoms: C_1  and  C_2
REMARK    2  A    between atoms: C_5  and  C_25
REMARK    3  A    between atoms: C_6  and  N_8
REMARK    4  A    between atoms: C_9  and  C_11
REMARK    5  A    between atoms: N_14  and  C_17
REMARK    6  A    between atoms: C_15  and  C_16
REMARK                            x       y       z     vdW  Elec       q    Type
REMARK                         _______ _______ _______ _____ _____    ______ ____
ROOT
ATOM      1  C   UNL     1       0.275  -2.884   4.825  0.00  0.00    +0.077 A 
ATOM      2  C   UNL     1       0.313  -4.289   4.966  0.00  0.00    +0.147 A 
ATOM      3  N   UNL     1       0.431  -4.564   6.236  0.00  0.00    -0.178 NA
ATOM      4  N   UNL     1       0.473  -3.365   6.957  0.00  0.00    -0.263 N 
ATOM      5  C   UNL     1       0.384  -2.343   6.090  0.00  0.00    +0.049 A 
ATOM      6  C   UNL     1       0.397  -0.877   6.436  0.00  0.00    +0.066 C 
ENDROOT
BRANCH   4   7
ATOM      7  C   UNL     1       0.601  -3.245   8.412  0.00  0.00    +0.130 C 
ATOM      8  C   UNL     1       1.896  -3.930   8.878  0.00  0.00    +0.051 C 
ATOM      9  C   UNL     1       1.883  -4.092  10.417  0.00  0.00    +0.168 C 
ATOM     10  S   UNL     1       0.087  -4.198  10.797  0.00  0.00    -0.029 S 
ATOM     11  O   UNL     1      -0.280  -3.092  11.609  0.00  0.00    -0.174 OA
ATOM     12  O   UNL     1      -0.216  -5.516  11.233  0.00  0.00    -0.174 OA
ATOM     13  C   UNL     1      -0.598  -3.954   9.104  0.00  0.00    +0.192 C 
ENDBRANCH   4   7
BRANCH   1  15
ATOM     14  N   UNL     1       0.050  -2.797   2.392  0.00  0.00    -0.281 N 
ATOM     15  C   UNL     1       0.148  -2.135   3.562  0.00  0.00    +0.251 C 
ATOM     16  O   UNL     1       0.134  -0.919   3.574  0.00  0.00    -0.270 OA
ATOM     17  H   UNL     1      -0.019  -3.765   2.387  0.00  0.00    +0.155 HD
BRANCH  14  23
ATOM     18  C   UNL     1       1.265   1.227  -0.157  0.00  0.00    +0.044 C 
ATOM     19  C   UNL     1       0.628  -0.137  -0.079  0.00  0.00    -0.049 A 
ATOM     20  C   UNL     1       0.039  -0.690  -1.201  0.00  0.00    +0.004 A 
ATOM     21  C   UNL     1      -0.547  -1.940  -1.133  0.00  0.00    +0.005 A 
ATOM     22  C   UNL     1      -0.545  -2.642   0.057  0.00  0.00    -0.029 A 
ATOM     23  C   UNL     1       0.046  -2.090   1.185  0.00  0.00    +0.037 A 
ATOM     24  C   UNL     1       0.639  -0.836   1.112  0.00  0.00    +0.027 A 
ATOM     25  C   UNL     1      -1.184  -4.005   0.130  0.00  0.00    +0.045 C 
ENDBRANCH  14  23
ENDBRANCH   1  15
TORSDOF 3
