REMARK  Name = ZINC63339779
REMARK  4 active torsions:
REMARK  status: ('A' for Active; 'I' for Inactive)
REMARK    1  A    between atoms: C_1  and  C_2
REMARK    2  A    between atoms: C_2  and  C_3
REMARK    3  A    between atoms: C_3  and  C_4
REMARK    4  A    between atoms: C_8  and  C_25
REMARK                            x       y       z     vdW  Elec       q    Type
REMARK                         _______ _______ _______ _____ _____    ______ ____
ROOT
ATOM      1  C   UNL     1      -1.413  -2.063   0.004  0.00  0.00    +0.075 C 
ATOM      2  C   UNL     1      -2.846  -2.593  -0.112  0.00  0.00    +0.015 C 
ATOM      3  C   UNL     1      -3.555  -2.288   1.213  0.00  0.00    +0.029 C 
ATOM      4  C   UNL     1      -2.938  -3.144   2.317  0.00  0.00    +0.058 C 
ATOM      5  C   UNL     1      -3.487  -2.682   3.667  0.00  0.00    +0.129 C 
ATOM      6  C   UNL     1      -2.675  -1.505   4.166  0.00  0.00    -0.036 C 
ATOM      7  C   UNL     1      -3.523  -0.471   4.236  0.00  0.00    -0.001 A 
ATOM      8  C   UNL     1      -3.315   0.926   4.645  0.00  0.00    +0.010 A 
ATOM      9  C   UNL     1      -4.412   1.729   4.605  0.00  0.00    +0.001 A 
ATOM     10  C   UNL     1      -5.675   1.285   4.203  0.00  0.00    +0.002 A 
ATOM     11  C   UNL     1      -5.954   0.017   3.809  0.00  0.00    +0.026 A 
ATOM     12  C   UNL     1      -4.880  -0.921   3.809  0.00  0.00    +0.043 A 
ATOM     13  N   UNL     1      -4.866  -2.197   3.491  0.00  0.00    -0.375 N 
ATOM     14  C   UNL     1      -1.218  -1.531   4.519  0.00  0.00    +0.035 C 
ATOM     15  C   UNL     1      -0.729  -2.960   4.675  0.00  0.00    +0.023 C 
ATOM     16  C   UNL     1      -0.706  -3.724   3.381  0.00  0.00    +0.109 C 
ATOM     17  N   UNL     1      -1.488  -3.105   2.297  0.00  0.00    -0.293 N 
ATOM     18  C   UNL     1      -0.796  -2.561   1.275  0.00  0.00    +0.219 C 
ATOM     19  O   UNL     1       0.407  -2.468   1.393  0.00  0.00    -0.275 OA
ATOM     20  C   UNL     1      -3.383  -4.592   2.106  0.00  0.00    +0.034 C 
ATOM     21  H   UNL     1      -5.620  -2.729   3.191  0.00  0.00    +0.160 HD
ENDROOT
BRANCH   1  22
ATOM     22  C   UNL     1      -1.433  -0.534   0.013  0.00  0.00    +0.012 C 
BRANCH  22  24
ATOM     23  C   UNL     1      -0.019   1.526   0.010  0.00  0.00    +0.004 C 
ATOM     24  C   UNL     1       0.002  -0.004   0.002  0.00  0.00    -0.003 C 
ENDBRANCH  22  24
ENDBRANCH   1  22
TORSDOF 2
