REMARK  Name = ZINC09035505
REMARK  5 active torsions:
REMARK  status: ('A' for Active; 'I' for Inactive)
REMARK    1  A    between atoms: C_1  and  C_2
REMARK    2  A    between atoms: C_5  and  N_8
REMARK    3  A    between atoms: C_12  and  C_13
REMARK    4  A    between atoms: C_16  and  C_18
REMARK    5  A    between atoms: C_23  and  N_24
REMARK                            x       y       z     vdW  Elec       q    Type
REMARK                         _______ _______ _______ _____ _____    ______ ____
ROOT
ATOM      1  N   UNL     1       2.554   3.838  -0.861  0.00  0.00    -0.190 N 
ATOM      2  C   UNL     1       1.592   3.450   0.001  0.00  0.00    +0.264 C 
ATOM      3  O   UNL     1       0.798   4.253   0.455  0.00  0.00    -0.269 OA
ATOM      4  C   UNL     1       1.531   2.029   0.383  0.00  0.00    +0.103 C 
ATOM      5  C   UNL     1       0.569   1.557   1.272  0.00  0.00    +0.064 C 
ATOM      6  C   UNL     1       2.528   1.129  -0.220  0.00  0.00    +0.257 C 
ATOM      7  O   UNL     1       2.538  -0.059   0.045  0.00  0.00    -0.270 OA
ATOM      8  N   UNL     1       3.430   1.656  -1.073  0.00  0.00    -0.235 N 
ATOM      9  C   UNL     1       3.430   2.962  -1.373  0.00  0.00    +0.320 C 
ATOM     10  O   UNL     1       4.269   3.375  -2.150  0.00  0.00    -0.251 OA
ATOM     11  H   UNL     1       4.093   1.076  -1.479  0.00  0.00    +0.159 HD
ENDROOT
BRANCH   1  16
ATOM     12  C   UNL     1       2.879   9.297  -2.379  0.00  0.00    +0.044 C 
ATOM     13  C   UNL     1       2.793   7.847  -1.976  0.00  0.00    -0.050 A 
ATOM     14  C   UNL     1       2.046   6.964  -2.733  0.00  0.00    +0.005 A 
ATOM     15  C   UNL     1       1.964   5.635  -2.367  0.00  0.00    +0.024 A 
ATOM     16  C   UNL     1       2.634   5.186  -1.236  0.00  0.00    +0.046 A 
ATOM     17  C   UNL     1       3.378   6.077  -0.474  0.00  0.00    +0.024 A 
ATOM     18  C   UNL     1       3.461   7.403  -0.850  0.00  0.00    +0.005 A 
ENDBRANCH   1  16
BRANCH   5  19
ATOM     19  C   UNL     1      -0.245   2.460   1.969  0.00  0.00    +0.129 A 
ATOM     20  C   UNL     1      -1.583   2.270   2.292  0.00  0.00    +0.050 A 
ATOM     21  C   UNL     1      -1.996   3.408   2.980  0.00  0.00    +0.050 A 
ATOM     22  C   UNL     1      -0.906   4.253   3.057  0.00  0.00    +0.138 A 
ATOM     23  O   UNL     1       0.137   3.663   2.449  0.00  0.00    -0.455 OA
BRANCH  22  24
ATOM     24  C   UNL     1      -0.889   5.579   3.703  0.00  0.00    +0.047 A 
ATOM     25  C   UNL     1      -1.878   6.520   3.403  0.00  0.00    +0.014 A 
ATOM     26  C   UNL     1      -1.855   7.757   4.011  0.00  0.00    +0.001 A 
ATOM     27  C   UNL     1      -0.857   8.068   4.918  0.00  0.00    +0.002 A 
ATOM     28  C   UNL     1       0.125   7.141   5.221  0.00  0.00    +0.033 A 
ATOM     29  C   UNL     1       0.113   5.898   4.624  0.00  0.00    +0.137 A 
BRANCH  29  30
ATOM     30  N   UNL     1       1.161   4.906   4.954  0.00  0.00    +0.057 N 
ATOM     31  O   UNL     1       2.033   5.186   5.756  0.00  0.00    -0.126 OA
ATOM     32  O   UNL     1       1.151   3.810   4.422  0.00  0.00    -0.126 OA
ENDBRANCH  29  30
ENDBRANCH  22  24
ENDBRANCH   5  19
TORSDOF 4
