REMARK  Name = ZINC00726510
REMARK  13 active torsions:
REMARK  status: ('A' for Active; 'I' for Inactive)
REMARK    1  A    between atoms: C_1  and  C_2
REMARK    2  A    between atoms: C_2  and  O_3
REMARK    3  A    between atoms: O_3  and  C_4
REMARK    4  A    between atoms: C_6  and  C_11
REMARK    5  A    between atoms: C_9  and  O_10
REMARK    6  A    between atoms: C_16  and  C_20
REMARK    7  A    between atoms: C_16  and  C_21
REMARK    8  A    between atoms: C_23  and  C_31
REMARK    9  A    between atoms: C_24  and  C_25
REMARK   10  A    between atoms: C_25  and  O_27
REMARK   11  A    between atoms: O_27  and  C_28
REMARK   12  A    between atoms: C_28  and  C_29
REMARK   13  A    between atoms: C_28  and  C_30
REMARK                            x       y       z     vdW  Elec       q    Type
REMARK                         _______ _______ _______ _____ _____    ______ ____
ROOT
ATOM      1  C   UNL     1       1.137   3.587  -0.116  0.00  0.00    +0.092 C 
ATOM      2  C   UNL     1       0.557   4.037   1.201  0.00  0.00    +0.024 C 
ATOM      3  C   UNL     1      -0.708   4.499   1.276  0.00  0.00    +0.016 C 
ATOM      4  C   UNL     1      -1.292   4.956   2.590  0.00  0.00    +0.058 C 
ATOM      5  C   UNL     1      -0.665   4.163   3.735  0.00  0.00    -0.023 C 
ATOM      6  C   UNL     1       0.852   4.374   3.696  0.00  0.00    +0.086 C 
ATOM      7  C   UNL     1       1.369   3.961   2.346  0.00  0.00    +0.162 C 
ATOM      8  O   UNL     1       2.509   3.554   2.242  0.00  0.00    -0.292 OA
ATOM      9  C   UNL     1      -0.983   2.676   3.566  0.00  0.00    +0.011 C 
ATOM     10  C   UNL     1      -1.220   4.658   5.072  0.00  0.00    +0.011 C 
ATOM     11  N   UNL     1      -1.491   4.566   0.155  0.00  0.00    -0.321 N 
ATOM     12  C   UNL     1      -0.926   4.561  -1.090  0.00  0.00    +0.016 C 
ATOM     13  C   UNL     1       0.327   4.107  -1.267  0.00  0.00    +0.065 C 
ATOM     14  C   UNL     1      -1.713   5.068  -2.271  0.00  0.00    +0.061 C 
ATOM     15  H   UNL     1      -2.585   4.624   0.251  0.00  0.00    +0.152 HD
ENDROOT
BRANCH   1  18
ATOM     16  C   UNL     1       2.362   0.020  -0.337  0.00  0.00    +0.162 A 
ATOM     17  C   UNL     1       2.348   1.405  -0.295  0.00  0.00    +0.054 A 
ATOM     18  C   UNL     1       1.150   2.080  -0.162  0.00  0.00    -0.032 A 
ATOM     19  C   UNL     1      -0.037   1.377  -0.070  0.00  0.00    +0.008 A 
ATOM     20  C   UNL     1      -0.031  -0.004  -0.111  0.00  0.00    +0.049 A 
ATOM     21  C   UNL     1       1.167  -0.688  -0.244  0.00  0.00    +0.158 A 
BRANCH  21  22
ATOM     22  O   UNL     1       1.175  -2.047  -0.285  0.00  0.00    -0.503 OA
ATOM     23  H   UNL     1       0.230  -2.605  -0.212  0.00  0.00    +0.292 HD
ENDBRANCH  21  22
BRANCH  16  24
ATOM     24  O   UNL     1       3.540  -0.647  -0.468  0.00  0.00    -0.489 OA
BRANCH  24  26
ATOM     25  C   UNL     1       5.942  -0.773  -0.698  0.00  0.00    +0.048 C 
ATOM     26  C   UNL     1       4.726   0.145  -0.557  0.00  0.00    +0.226 C 
ENDBRANCH  24  26
ENDBRANCH  16  24
ENDBRANCH   1  18
BRANCH  13  27
ATOM     27  C   UNL     1       0.892   4.121  -2.563  0.00  0.00    +0.338 C 
ATOM     28  O   UNL     1       0.212   4.440  -3.521  0.00  0.00    -0.245 OA
BRANCH  27  29
ATOM     29  O   UNL     1       2.187   3.780  -2.739  0.00  0.00    -0.459 OA
BRANCH  29  30
ATOM     30  C   UNL     1       2.692   3.817  -4.075  0.00  0.00    +0.171 C 
ATOM     31  C   UNL     1       4.185   4.148  -4.047  0.00  0.00    +0.052 C 
ATOM     32  C   UNL     1       2.485   2.452  -4.736  0.00  0.00    +0.052 C 
ENDBRANCH  29  30
ENDBRANCH  27  29
ENDBRANCH  13  27
TORSDOF 7
