REMARK  Name = ZINC58836340
REMARK  11 active torsions:
REMARK  status: ('A' for Active; 'I' for Inactive)
REMARK    1  A    between atoms: C_1  and  C_2
REMARK    2  A    between atoms: C_4  and  O_9
REMARK    3  A    between atoms: O_9  and  C_10
REMARK    4  A    between atoms: C_10  and  C_11
REMARK    5  A    between atoms: C_10  and  C_12
REMARK    6  A    between atoms: N_14  and  N_15
REMARK    7  A    between atoms: C_16  and  O_18
REMARK    8  A    between atoms: O_18  and  C_19
REMARK    9  A    between atoms: C_19  and  C_20
REMARK   10  A    between atoms: C_19  and  C_21
REMARK   11  A    between atoms: C_19  and  C_22
REMARK                            x       y       z     vdW  Elec       q    Type
REMARK                         _______ _______ _______ _____ _____    ______ ____
ROOT
ATOM      1  C   UNL     1      -0.450  -4.788  -3.553  0.00  0.00    +0.270 C 
ATOM      2  O   UNL     1      -0.864  -4.079  -4.445  0.00  0.00    -0.270 OA
ATOM      3  N   UNL     1      -0.533  -6.129  -3.664  0.00  0.00    -0.229 N 
ATOM      4  H   UNL     1      -0.201  -6.696  -2.950  0.00  0.00    +0.173 HD
ENDROOT
BRANCH   3   5
ATOM      5  N   UNL     1      -1.098  -6.703  -4.810  0.00  0.00    -0.199 N 
ATOM      6  C   UNL     1      -1.181  -8.044  -4.921  0.00  0.00    +0.417 C 
ATOM      7  O   UNL     1      -1.672  -8.542  -5.915  0.00  0.00    -0.225 OA
ATOM      8  H   UNL     1      -1.430  -6.136  -5.524  0.00  0.00    +0.176 HD
BRANCH   6   9
ATOM      9  O   UNL     1      -0.721  -8.831  -3.931  0.00  0.00    -0.444 OA
BRANCH   9  10
ATOM     10  C   UNL     1      -0.841 -10.243  -4.115  0.00  0.00    +0.107 C 
ATOM     11  C   UNL     1      -0.067 -10.662  -5.367  0.00  0.00    +0.055 C 
ATOM     12  C   UNL     1      -0.269 -10.968  -2.895  0.00  0.00    +0.055 C 
ATOM     13  C   UNL     1      -2.317 -10.612  -4.282  0.00  0.00    +0.055 C 
ENDBRANCH   9  10
ENDBRANCH   6   9
ENDBRANCH   3   5
BRANCH   1  14
ATOM     14  C   UNL     1       0.158  -4.171  -2.320  0.00  0.00    +0.257 C 
ATOM     15  C   UNL     1       1.640  -4.543  -2.241  0.00  0.00    +0.062 C 
BRANCH  14  16
ATOM     16  O   UNL     1       0.028  -2.749  -2.386  0.00  0.00    -0.480 OA
BRANCH  16  20
ATOM     17  C   UNL     1      -0.469   1.461   0.033  0.00  0.00    +0.045 C 
ATOM     18  C   UNL     1      -0.213  -0.024   0.013  0.00  0.00    -0.029 A 
ATOM     19  C   UNL     1      -0.210  -0.708  -1.188  0.00  0.00    +0.050 A 
ATOM     20  C   UNL     1       0.025  -2.075  -1.206  0.00  0.00    +0.122 A 
ATOM     21  C   UNL     1       0.258  -2.752  -0.018  0.00  0.00    +0.047 A 
ATOM     22  C   UNL     1       0.255  -2.065   1.181  0.00  0.00    +0.024 A 
ATOM     23  C   UNL     1       0.025  -0.701   1.196  0.00  0.00    +0.044 A 
ATOM     24 CL   UNL     1       0.029   0.162   2.702  0.00  0.00    -0.083 Cl
ENDBRANCH  16  20
ENDBRANCH  14  16
ENDBRANCH   1  14
TORSDOF 6
