REMARK  Name = ZINC05017502
REMARK  9 active torsions:
REMARK  status: ('A' for Active; 'I' for Inactive)
REMARK    1  A    between atoms: C_1  and  C_2
REMARK    2  A    between atoms: C_2  and  O_3
REMARK    3  A    between atoms: O_3  and  C_4
REMARK    4  A    between atoms: C_4  and  C_6
REMARK    5  A    between atoms: C_7  and  C_22
REMARK    6  A    between atoms: C_12  and  C_14
REMARK    7  A    between atoms: C_19  and  O_20
REMARK    8  A    between atoms: O_20  and  C_21
REMARK    9  A    between atoms: C_22  and  N_51
REMARK                            x       y       z     vdW  Elec       q    Type
REMARK                         _______ _______ _______ _____ _____    ______ ____
ROOT
ATOM      1  C   UNL     1      -0.691  -0.849  -1.013  0.00  0.00    +0.076 C 
ATOM      2  C   UNL     1       0.165  -0.083  -0.302  0.00  0.00    +0.008 C 
ATOM      3  N   UNL     1       0.980  -0.631   0.647  0.00  0.00    -0.274 N 
ATOM      4  C   UNL     1       0.990  -1.935   0.953  0.00  0.00    +0.304 C 
ATOM      5  O   UNL     1       1.748  -2.329   1.818  0.00  0.00    -0.252 OA
ATOM      6  N   UNL     1       0.192  -2.824   0.330  0.00  0.00    -0.288 N 
ATOM      7  C   UNL     1      -0.721  -2.334  -0.716  0.00  0.00    +0.147 C 
ATOM      8  H   UNL     1       1.581  -0.043   1.129  0.00  0.00    +0.156 HD
ATOM      9  H   UNL     1       0.219  -3.765   0.565  0.00  0.00    +0.151 HD
ENDROOT
BRANCH   7  10
ATOM     10  C   UNL     1      -2.127  -2.699  -0.314  0.00  0.00    +0.019 A 
ATOM     11  C   UNL     1      -2.487  -2.696   1.020  0.00  0.00    +0.009 A 
ATOM     12  C   UNL     1      -3.776  -3.031   1.390  0.00  0.00    +0.001 A 
ATOM     13  C   UNL     1      -4.709  -3.369   0.427  0.00  0.00    +0.004 A 
ATOM     14  C   UNL     1      -4.354  -3.373  -0.908  0.00  0.00    +0.046 A 
ATOM     15  C   UNL     1      -3.062  -3.033  -1.282  0.00  0.00    +0.125 A 
BRANCH  15  16
ATOM     16  O   UNL     1      -2.711  -3.032  -2.595  0.00  0.00    -0.495 OA
ATOM     17  C   UNL     1      -3.749  -3.285  -3.544  0.00  0.00    +0.277 C 
ENDBRANCH  15  16
ENDBRANCH   7  10
BRANCH   1  18
ATOM     18  C   UNL     1      -1.531  -0.283  -2.001  0.00  0.00    +0.339 C 
ATOM     19  O   UNL     1      -1.239  -0.383  -3.178  0.00  0.00    -0.245 OA
BRANCH  18  20
ATOM     20  O   UNL     1      -2.656   0.368  -1.637  0.00  0.00    -0.462 OA
BRANCH  20  22
ATOM     21  C   UNL     1      -4.562   1.791  -2.063  0.00  0.00    +0.048 C 
ATOM     22  C   UNL     1      -3.396   1.012  -2.676  0.00  0.00    +0.229 C 
ENDBRANCH  20  22
ENDBRANCH  18  20
ENDBRANCH   1  18
BRANCH   2  23
ATOM     23  C   UNL     1       0.227   1.399  -0.566  0.00  0.00    -0.026 C 
BRANCH  23  28
ATOM     24  C   UNL     1       1.835   0.990  -2.348  0.00  0.00    -0.078 C 
ATOM     25  C   UNL     1       2.948   1.828  -3.025  0.00  0.00    -0.020 C 
ATOM     26  C   UNL     1       2.527   3.282  -2.709  0.00  0.00    -0.020 C 
ATOM     27  C   UNL     1       1.612   3.176  -1.475  0.00  0.00    -0.078 C 
ATOM     28  N   UNL     1       1.567   1.757  -1.121  0.00  0.00    +0.383 N 
ATOM     29  H   UNL     1       2.288   1.551  -0.420  0.00  0.00    -0.081 HD
ENDBRANCH  23  28
ENDBRANCH   2  23
TORSDOF 7
