REMARK  Name = ZINC38754445
REMARK  5 active torsions:
REMARK  status: ('A' for Active; 'I' for Inactive)
REMARK    1  A    between atoms: C_3  and  C_6
REMARK    2  A    between atoms: C_8  and  C_11
REMARK    3  A    between atoms: C_11  and  N_12
REMARK    4  A    between atoms: C_13  and  C_15
REMARK    5  A    between atoms: C_15  and  C_16
REMARK                            x       y       z     vdW  Elec       q    Type
REMARK                         _______ _______ _______ _____ _____    ______ ____
ROOT
ATOM      1  N   UNL     1       8.374   0.212  -3.580  0.00  0.00    -0.310 N 
ATOM      2  C   UNL     1       9.286  -0.779  -3.517  0.00  0.00    +0.215 C 
ATOM      3  O   UNL     1      10.451  -0.547  -3.758  0.00  0.00    -0.276 OA
ATOM      4  H   UNL     1       7.442   0.027  -3.387  0.00  0.00    +0.149 HD
ENDROOT
BRANCH   1   5
ATOM      5  C   UNL     1       8.792   1.569  -3.940  0.00  0.00    +0.163 C 
BRANCH   5   8
ATOM      6  C   UNL     1       6.056   3.960  -3.265  0.00  0.00    +0.202 A 
ATOM      7  C   UNL     1       7.177   3.288  -2.873  0.00  0.00    +0.081 A 
ATOM      8  C   UNL     1       7.593   2.481  -3.939  0.00  0.00    +0.101 A 
ATOM      9  N   UNL     1       6.764   2.654  -4.932  0.00  0.00    -0.081 NA
ATOM     10  O   UNL     1       5.775   3.584  -4.528  0.00  0.00    -0.351 OA
BRANCH   6  13
ATOM     11  C   UNL     1       3.768   6.385  -1.764  0.00  0.00    +0.042 A 
ATOM     12  C   UNL     1       4.166   5.581  -2.849  0.00  0.00    +0.053 A 
ATOM     13  C   UNL     1       5.289   4.917  -2.454  0.00  0.00    +0.172 A 
ATOM     14  O   UNL     1       5.572   5.289  -1.190  0.00  0.00    -0.460 OA
ATOM     15  C   UNL     1       4.656   6.176  -0.770  0.00  0.00    +0.196 A 
ENDBRANCH   6  13
ENDBRANCH   5   8
ENDBRANCH   1   5
BRANCH   2  16
ATOM     16  C   UNL     1       8.856  -2.175  -3.146  0.00  0.00    +0.119 C 
BRANCH  16  17
ATOM     17  C   UNL     1      10.044  -3.129  -3.287  0.00  0.00    +0.102 C 
ATOM     18  C   UNL     1      10.551  -3.093  -4.750  0.00  0.00    +0.100 C 
ATOM     19  S   UNL     1      11.118  -4.838  -4.922  0.00  0.00    -0.088 S 
ATOM     20  C   UNL     1      10.257  -5.533  -3.537  0.00  0.00    +0.159 C 
ATOM     21  N   UNL     1      10.199  -6.771  -3.160  0.00  0.00    -0.259 NA
ATOM     22  C   UNL     1       9.450  -7.089  -1.942  0.00  0.00    +0.120 C 
ATOM     23  C   UNL     1       9.032  -8.553  -1.925  0.00  0.00    +0.027 C 
ATOM     24  C   UNL     1       8.009  -8.822  -3.029  0.00  0.00    +0.002 C 
ATOM     25  C   UNL     1       6.785  -7.929  -2.803  0.00  0.00    +0.001 C 
ATOM     26  C   UNL     1       7.214  -6.464  -2.878  0.00  0.00    +0.015 C 
ATOM     27  C   UNL     1       8.237  -6.177  -1.798  0.00  0.00    +0.100 C 
ATOM     28  C   UNL     1       8.663  -4.732  -1.962  0.00  0.00    +0.227 C 
ATOM     29  O   UNL     1       8.172  -3.848  -1.293  0.00  0.00    -0.275 OA
ATOM     30  N   UNL     1       9.626  -4.470  -2.899  0.00  0.00    -0.246 N 
ENDBRANCH  16  17
ENDBRANCH   2  16
TORSDOF 5
