REMARK  Name = ZINC13479837
REMARK  8 active torsions:
REMARK  status: ('A' for Active; 'I' for Inactive)
REMARK    1  A    between atoms: C_1  and  C_2
REMARK    2  A    between atoms: C_4  and  O_27
REMARK    3  A    between atoms: C_6  and  O_26
REMARK    4  A    between atoms: C_8  and  O_25
REMARK    5  A    between atoms: C_10  and  N_13
REMARK    6  A    between atoms: N_13  and  C_14
REMARK    7  A    between atoms: C_17  and  O_20
REMARK    8  A    between atoms: O_20  and  C_21
REMARK                            x       y       z     vdW  Elec       q    Type
REMARK                         _______ _______ _______ _____ _____    ______ ____
ROOT
ATOM      1  C   UNL     1      -1.380   0.658   1.555  0.00  0.00    +0.041 C 
ATOM      2  C   UNL     1      -0.054   1.402   1.383  0.00  0.00    +0.149 C 
ATOM      3  C   UNL     1       0.564   1.039   0.031  0.00  0.00    +0.174 C 
ATOM      4  C   UNL     1       1.860   1.833  -0.159  0.00  0.00    +0.178 C 
ATOM      5  C   UNL     1       1.551   3.329  -0.044  0.00  0.00    +0.192 C 
ATOM      6  C   UNL     1       0.894   3.604   1.311  0.00  0.00    +0.235 C 
ATOM      7  O   UNL     1      -0.288   2.811   1.436  0.00  0.00    -0.351 OA
ENDROOT
BRANCH   6   8
ATOM      8  N   UNL     1       0.543   5.023   1.405  0.00  0.00    -0.317 N 
ATOM      9  H   UNL     1       0.275   5.510   0.610  0.00  0.00    +0.149 HD
BRANCH   8  10
ATOM     10  C   UNL     1       0.595   5.676   2.641  0.00  0.00    +0.029 A 
ATOM     11  C   UNL     1       0.825   4.950   3.802  0.00  0.00    +0.026 A 
ATOM     12  C   UNL     1       0.882   5.596   5.021  0.00  0.00    +0.048 A 
ATOM     13  C   UNL     1       0.698   6.970   5.087  0.00  0.00    +0.129 A 
ATOM     14  C   UNL     1       0.462   7.695   3.929  0.00  0.00    +0.048 A 
ATOM     15  C   UNL     1       0.410   7.051   2.709  0.00  0.00    +0.026 A 
BRANCH  13  16
ATOM     16  O   UNL     1       0.748   7.605   6.289  0.00  0.00    -0.420 OA
BRANCH  16  17
ATOM     17  C   UNL     1       0.995   6.795   7.441  0.00  0.00    +0.489 C 
ATOM     18  F   UNL     1      -0.018   5.838   7.564  0.00  0.00    -0.149 F 
ATOM     19  F   UNL     1       2.230   6.152   7.303  0.00  0.00    -0.149 F 
ATOM     20 CL   UNL     1       1.020   7.836   8.912  0.00  0.00    +0.000 Cl
ENDBRANCH  16  17
ENDBRANCH  13  16
ENDBRANCH   8  10
ENDBRANCH   6   8
BRANCH   5  21
ATOM     21  O   UNL     1       2.764   4.077  -0.148  0.00  0.00    -0.385 OA
ATOM     22  H   UNL     1       2.643   5.034  -0.083  0.00  0.00    +0.210 HD
ENDBRANCH   5  21
BRANCH   4  23
ATOM     23  O   UNL     1       2.801   1.461   0.850  0.00  0.00    -0.386 OA
ATOM     24  H   UNL     1       3.647   1.926   0.790  0.00  0.00    +0.210 HD
ENDBRANCH   4  23
BRANCH   3  25
ATOM     25  O   UNL     1      -0.352   1.362  -1.017  0.00  0.00    -0.387 OA
ATOM     26  H   UNL     1      -1.197   0.896  -0.958  0.00  0.00    +0.210 HD
ENDBRANCH   3  25
TORSDOF 7
