REMARK  Name = ZINC16927070
REMARK  12 active torsions:
REMARK  status: ('A' for Active; 'I' for Inactive)
REMARK    1  A    between atoms: C_1  and  C_2
REMARK    2  A    between atoms: C_2  and  N_65
REMARK    3  A    between atoms: C_3  and  C_4
REMARK    4  A    between atoms: C_3  and  N_65
REMARK    5  A    between atoms: C_5  and  C_6
REMARK    6  A    between atoms: C_5  and  N_65
REMARK    7  A    between atoms: C_6  and  C_7
REMARK    8  A    between atoms: C_7  and  C_8
REMARK    9  A    between atoms: C_8  and  C_10
REMARK   10  A    between atoms: C_8  and  N_11
REMARK   11  A    between atoms: C_19  and  C_29
REMARK   12  A    between atoms: C_20  and  C_22
REMARK                            x       y       z     vdW  Elec       q    Type
REMARK                         _______ _______ _______ _____ _____    ______ ____
ROOT
ATOM      1  N   UNL     1       2.906  -2.209   2.478  0.00  0.00    -0.325 N 
ATOM      2  C   UNL     1       3.725  -1.874   1.422  0.00  0.00    +0.150 A 
ATOM      3  C   UNL     1       3.492  -0.697   0.664  0.00  0.00    +0.148 A 
ATOM      4  C   UNL     1       4.371  -0.410  -0.410  0.00  0.00    +0.184 A 
ATOM      5  N   UNL     1       5.379  -1.258  -0.659  0.00  0.00    -0.214 NA
ATOM      6  C   UNL     1       5.547  -2.332   0.076  0.00  0.00    +0.225 A 
ATOM      7  N   UNL     1       4.753  -2.642   1.088  0.00  0.00    -0.219 NA
ATOM      8  N   UNL     1       4.183   0.688  -1.145  0.00  0.00    -0.224 NA
ATOM      9  C   UNL     1       3.174   1.497  -0.869  0.00  0.00    +0.099 A 
ATOM     10  C   UNL     1       2.300   1.209   0.208  0.00  0.00    +0.098 A 
ATOM     11  N   UNL     1       2.481   0.123   0.940  0.00  0.00    -0.238 NA
ATOM     12  H   UNL     1       2.158  -1.638   2.712  0.00  0.00    +0.148 HD
ENDROOT
BRANCH  10  13
ATOM     13  C   UNL     1       1.176   2.125   0.511  0.00  0.00    +0.003 A 
ATOM     14  C   UNL     1       1.386   3.504   0.541  0.00  0.00    +0.011 A 
ATOM     15  C   UNL     1       0.337   4.352   0.829  0.00  0.00    +0.020 A 
ATOM     16  C   UNL     1      -0.925   3.838   1.076  0.00  0.00    +0.041 A 
ATOM     17  C   UNL     1      -1.139   2.470   1.047  0.00  0.00    +0.020 A 
ATOM     18  C   UNL     1      -0.095   1.612   0.766  0.00  0.00    +0.011 A 
ATOM     19 CL   UNL     1      -2.242   4.911   1.431  0.00  0.00    -0.084 Cl
ENDBRANCH  10  13
BRANCH   9  20
ATOM     20  C   UNL     1       2.959   2.712  -1.687  0.00  0.00    +0.003 A 
ATOM     21  C   UNL     1       1.679   3.035  -2.138  0.00  0.00    +0.011 A 
ATOM     22  C   UNL     1       1.484   4.171  -2.896  0.00  0.00    +0.020 A 
ATOM     23  C   UNL     1       2.557   4.985  -3.218  0.00  0.00    +0.041 A 
ATOM     24  C   UNL     1       3.831   4.666  -2.777  0.00  0.00    +0.020 A 
ATOM     25  C   UNL     1       4.037   3.535  -2.014  0.00  0.00    +0.011 A 
ATOM     26 CL   UNL     1       2.306   6.409  -4.178  0.00  0.00    -0.084 Cl
ENDBRANCH   9  20
BRANCH   1  27
ATOM     27  C   UNL     1       3.165  -3.428   3.248  0.00  0.00    +0.069 C 
ATOM     28  C   UNL     1       2.508  -4.621   2.551  0.00  0.00    +0.028 C 
BRANCH  27  29
ATOM     29  C   UNL     1       2.583  -3.277   4.655  0.00  0.00    +0.020 C 
BRANCH  29  30
ATOM     30  C   UNL     1       3.326  -2.164   5.397  0.00  0.00    -0.017 C 
BRANCH  30  31
ATOM     31  C   UNL     1       2.743  -2.012   6.804  0.00  0.00    -0.079 C 
BRANCH  31  32
ATOM     32  N   UNL     1       3.485  -0.949   7.514  0.00  0.00    +0.379 N 
ATOM     33  H   UNL     1       4.491  -1.143   7.449  0.00  0.00    -0.082 HD
BRANCH  32  35
ATOM     34  C   UNL     1       1.723   0.711   7.014  0.00  0.00    -0.017 C 
ATOM     35  C   UNL     1       3.208   0.363   6.892  0.00  0.00    -0.082 C 
ENDBRANCH  32  35
BRANCH  32  36
ATOM     36  C   UNL     1       3.092  -0.925   8.939  0.00  0.00    -0.082 C 
ATOM     37  C   UNL     1       4.106  -0.081   9.715  0.00  0.00    -0.017 C 
ENDBRANCH  32  36
ENDBRANCH  31  32
ENDBRANCH  30  31
ENDBRANCH  29  30
ENDBRANCH  27  29
ENDBRANCH   1  27
TORSDOF 9
