REMARK  Name = ZINC39210929
REMARK  7 active torsions:
REMARK  status: ('A' for Active; 'I' for Inactive)
REMARK    1  A    between atoms: C_4  and  N_7
REMARK    2  A    between atoms: C_8  and  N_32
REMARK    3  A    between atoms: C_10  and  C_30
REMARK    4  A    between atoms: C_11  and  C_13
REMARK    5  A    between atoms: C_13  and  C_28
REMARK    6  A    between atoms: C_14  and  C_15
REMARK    7  A    between atoms: C_20  and  C_21
REMARK                            x       y       z     vdW  Elec       q    Type
REMARK                         _______ _______ _______ _____ _____    ______ ____
ROOT
ATOM      1  N   UNL     1       3.620  -0.649  -0.036  0.00  0.00    -0.231 N 
ATOM      2  C   UNL     1       3.814  -2.108  -0.052  0.00  0.00    +0.201 C 
ATOM      3  C   UNL     1       5.316  -2.292  -0.066  0.00  0.00    +0.089 C 
ATOM      4  C   UNL     1       5.867  -1.048  -0.058  0.00  0.00    +0.078 C 
ATOM      5  N   UNL     1       4.898  -0.077  -0.047  0.00  0.00    -0.260 N 
ATOM      6  H   UNL     1       5.074   0.876  -0.044  0.00  0.00    +0.170 HD
ENDROOT
BRANCH   1  10
ATOM      7  C   UNL     1      -0.017   1.379   0.010  0.00  0.00    +0.000 A 
ATOM      8  C   UNL     1       1.169   2.089   0.002  0.00  0.00    +0.002 A 
ATOM      9  C   UNL     1       2.377   1.420  -0.013  0.00  0.00    +0.025 A 
ATOM     10  C   UNL     1       2.400   0.031  -0.021  0.00  0.00    +0.050 A 
ATOM     11  C   UNL     1       1.206  -0.680  -0.013  0.00  0.00    +0.025 A 
ATOM     12  C   UNL     1       0.002  -0.004   0.002  0.00  0.00    +0.002 A 
ENDBRANCH   1  10
BRANCH   2  13
ATOM     13  N   UNL     1       3.232  -2.715   1.152  0.00  0.00    -0.307 NA
ATOM     14  H   UNL     1       3.361  -3.716   1.150  0.00  0.00    +0.120 HD
ATOM     15  H   UNL     1       3.618  -2.303   1.988  0.00  0.00    +0.120 HD
ENDBRANCH   2  13
BRANCH   4  16
ATOM     16  C   UNL     1       7.318  -0.779  -0.066  0.00  0.00    +0.072 C 
ATOM     17  C   UNL     1       7.767   0.491  -0.058  0.00  0.00    +0.009 C 
BRANCH  17  18
ATOM     18  C   UNL     1       9.248   0.767  -0.066  0.00  0.00    +0.107 C 
ATOM     19  C   UNL     1       9.639   1.625   1.120  0.00  0.00    +0.121 C 
ATOM     20  N   UNL     1      10.126   2.718   0.628  0.00  0.00    -0.161 NA
ATOM     21  N   UNL     1      10.121   2.724  -0.763  0.00  0.00    -0.153 NA
ATOM     22  C   UNL     1       9.627   1.620  -1.261  0.00  0.00    +0.083 C 
BRANCH  22  23
ATOM     23  C   UNL     1       9.468   1.276  -2.682  0.00  0.00    -0.001 A 
ATOM     24  C   UNL     1       8.911   0.046  -3.050  0.00  0.00    +0.012 A 
ATOM     25  C   UNL     1       8.765  -0.269  -4.383  0.00  0.00    +0.039 A 
ATOM     26  C   UNL     1       9.170   0.628  -5.360  0.00  0.00    +0.123 A 
ATOM     27  C   UNL     1       9.723   1.848  -5.002  0.00  0.00    +0.039 A 
ATOM     28  C   UNL     1       9.870   2.179  -3.672  0.00  0.00    +0.012 A 
ATOM     29  F   UNL     1       9.025   0.312  -6.665  0.00  0.00    -0.205 F 
ENDBRANCH  22  23
ENDBRANCH  17  18
BRANCH  16  30
ATOM     30  C   UNL     1       8.249  -1.867  -0.084  0.00  0.00    +0.101 C 
ATOM     31  N   UNL     1       8.987  -2.730  -0.098  0.00  0.00    -0.191 NA
ENDBRANCH  16  30
ENDBRANCH   4  16
BRANCH   3  32
ATOM     32  C   UNL     1       6.023  -3.538  -0.083  0.00  0.00    +0.100 C 
ATOM     33  N   UNL     1       6.583  -4.526  -0.097  0.00  0.00    -0.191 NA
ENDBRANCH   3  32
TORSDOF 7
