REMARK  Name = ZINC63696720
REMARK  7 active torsions:
REMARK  status: ('A' for Active; 'I' for Inactive)
REMARK    1  A    between atoms: C_1  and  C_2
REMARK    2  A    between atoms: C_2  and  C_3
REMARK    3  A    between atoms: C_3  and  C_4
REMARK    4  A    between atoms: C_4  and  C_5
REMARK    5  A    between atoms: C_4  and  N_22
REMARK    6  A    between atoms: N_7  and  C_8
REMARK    7  A    between atoms: C_10  and  N_15
REMARK                            x       y       z     vdW  Elec       q    Type
REMARK                         _______ _______ _______ _____ _____    ______ ____
ROOT
ATOM      1  C   UNL     1      -3.026  -2.018  -0.174  0.00  0.00    +0.238 C 
ATOM      2  O   UNL     1      -3.797  -1.886   0.753  0.00  0.00    -0.273 OA
ATOM      3  N   UNL     1      -3.433  -2.620  -1.310  0.00  0.00    -0.282 N 
ATOM      4  H   UNL     1      -2.844  -2.654  -2.079  0.00  0.00    +0.155 HD
ENDROOT
BRANCH   3   5
ATOM      5  C   UNL     1      -4.707  -3.196  -1.378  0.00  0.00    +0.071 A 
ATOM      6  C   UNL     1      -5.343  -3.616  -0.218  0.00  0.00    +0.051 A 
ATOM      7  C   UNL     1      -6.606  -4.187  -0.290  0.00  0.00    +0.053 A 
ATOM      8  C   UNL     1      -7.231  -4.336  -1.522  0.00  0.00    +0.027 A 
ATOM      9  C   UNL     1      -6.597  -3.917  -2.676  0.00  0.00    +0.042 A 
ATOM     10  C   UNL     1      -5.340  -3.343  -2.608  0.00  0.00    +0.145 A 
ATOM     11  F   UNL     1      -4.725  -2.929  -3.737  0.00  0.00    -0.204 F 
BRANCH   7  12
ATOM     12  N   UNL     1      -7.248  -4.612   0.877  0.00  0.00    -0.207 N 
ATOM     13  C   UNL     1      -6.613  -5.006   2.147  0.00  0.00    +0.133 C 
ATOM     14  C   UNL     1      -7.544  -4.713   3.339  0.00  0.00    +0.045 C 
ATOM     15  C   UNL     1      -8.943  -5.238   2.898  0.00  0.00    +0.190 C 
ATOM     16  S   UNL     1      -8.899  -4.771   1.120  0.00  0.00    +0.046 S 
ATOM     17  O   UNL     1      -9.438  -3.470   0.926  0.00  0.00    -0.155 OA
ATOM     18  O   UNL     1      -9.300  -5.863   0.304  0.00  0.00    -0.155 OA
ENDBRANCH   7  12
ENDBRANCH   3   5
BRANCH   1  19
ATOM     19  C   UNL     1      -1.613  -1.507  -0.057  0.00  0.00    +0.161 C 
BRANCH  19  20
ATOM     20  N   UNL     1      -1.268  -1.344   1.357  0.00  0.00    -0.288 N 
ATOM     21  C   UNL     1      -1.983  -0.505   2.132  0.00  0.00    +0.298 C 
ATOM     22  O   UNL     1      -2.913   0.117   1.658  0.00  0.00    -0.253 OA
ATOM     23  N   UNL     1      -1.666  -0.354   3.434  0.00  0.00    -0.313 N 
ATOM     24  H   UNL     1      -0.526  -1.841   1.736  0.00  0.00    +0.151 HD
ATOM     25  H   UNL     1      -0.924  -0.851   3.812  0.00  0.00    +0.146 HD
ATOM     26  H   UNL     1      -2.180   0.250   3.991  0.00  0.00    +0.146 HD
ENDBRANCH  19  20
BRANCH  19  27
ATOM     27  C   UNL     1      -1.497  -0.158  -0.769  0.00  0.00    +0.031 C 
BRANCH  27  29
ATOM     28  C   UNL     1       0.079   1.650  -1.471  0.00  0.00    +0.004 C 
ATOM     29  C   UNL     1      -0.037   0.300  -0.758  0.00  0.00    -0.001 C 
ENDBRANCH  27  29
ENDBRANCH  19  27
ENDBRANCH   1  19
TORSDOF 6
