REMARK  Name = ZINC20794503
REMARK  10 active torsions:
REMARK  status: ('A' for Active; 'I' for Inactive)
REMARK    1  A    between atoms: C_1  and  C_2
REMARK    2  A    between atoms: C_7  and  N_12
REMARK    3  A    between atoms: C_9  and  C_11
REMARK    4  A    between atoms: C_13  and  C_15
REMARK    5  A    between atoms: C_15  and  S_16
REMARK    6  A    between atoms: S_16  and  C_17
REMARK    7  A    between atoms: C_20  and  C_23
REMARK    8  A    between atoms: N_21  and  N_22
REMARK    9  A    between atoms: C_28  and  O_29
REMARK   10  A    between atoms: O_29  and  C_30
REMARK                            x       y       z     vdW  Elec       q    Type
REMARK                         _______ _______ _______ _____ _____    ______ ____
ROOT
ATOM      1  C   UNL     1      -5.742  -1.786  -2.514  0.00  0.00    +0.209 A 
ATOM      2  N   UNL     1      -6.204  -2.229  -1.366  0.00  0.00    -0.121 NA
ATOM      3  N   UNL     1      -7.391  -2.697  -1.519  0.00  0.00    -0.127 NA
ATOM      4  C   UNL     1      -7.761  -2.581  -2.773  0.00  0.00    +0.185 A 
ATOM      5  N   UNL     1      -6.719  -1.989  -3.448  0.00  0.00    -0.224 N 
ENDROOT
BRANCH   4   6
ATOM      6  C   UNL     1      -9.055  -3.002  -3.350  0.00  0.00    +0.062 A 
ATOM      7  C   UNL     1      -9.089  -3.724  -4.543  0.00  0.00    +0.015 A 
ATOM      8  C   UNL     1     -10.300  -4.115  -5.077  0.00  0.00    +0.001 A 
ATOM      9  C   UNL     1     -11.482  -3.793  -4.432  0.00  0.00    +0.004 A 
ATOM     10  C   UNL     1     -11.461  -3.079  -3.249  0.00  0.00    +0.046 A 
ATOM     11  C   UNL     1     -10.253  -2.684  -2.698  0.00  0.00    +0.131 A 
BRANCH  11  12
ATOM     12  O   UNL     1     -10.230  -1.986  -1.533  0.00  0.00    -0.494 OA
ATOM     13  C   UNL     1     -11.491  -1.698  -0.925  0.00  0.00    +0.277 C 
ENDBRANCH  11  12
ENDBRANCH   4   6
BRANCH   5  14
ATOM     14  N   UNL     1      -6.669  -1.673  -4.776  0.00  0.00    -0.295 N 
ATOM     15  H   UNL     1      -7.529  -1.891  -5.426  0.00  0.00    +0.163 HD
ATOM     16  H   UNL     1      -5.768  -1.201  -5.196  0.00  0.00    +0.163 HD
ENDBRANCH   5  14
BRANCH   1  17
ATOM     17  S   UNL     1      -4.162  -1.059  -2.795  0.00  0.00    -0.075 S 
BRANCH  17  18
ATOM     18  C   UNL     1      -3.480  -1.134  -1.120  0.00  0.00    +0.173 C 
BRANCH  18  20
ATOM     19  N   UNL     1      -1.383  -0.500   0.029  0.00  0.00    -0.312 N 
ATOM     20  C   UNL     1      -2.091  -0.550  -1.117  0.00  0.00    +0.224 C 
ATOM     21  O   UNL     1      -1.610  -0.124  -2.145  0.00  0.00    -0.275 OA
ATOM     22  H   UNL     1      -1.820  -0.886   0.962  0.00  0.00    +0.149 HD
BRANCH  19  28
ATOM     23  C   UNL     1       2.874  -0.263  -0.120  0.00  0.00    +0.008 C 
ATOM     24  C   UNL     1       2.176   0.073   1.200  0.00  0.00    -0.009 C 
ATOM     25  C   UNL     1       2.089   1.592   1.359  0.00  0.00    +0.003 C 
ATOM     26  C   UNL     1       1.290   2.182   0.195  0.00  0.00    +0.002 C 
ATOM     27  C   UNL     1      -0.120   1.588   0.192  0.00  0.00    +0.022 C 
ATOM     28  C   UNL     1      -0.033   0.069   0.033  0.00  0.00    +0.076 C 
ATOM     29  C   UNL     1       0.766  -0.521   1.196  0.00  0.00    +0.009 C 
ATOM     30  C   UNL     1       0.853  -2.040   1.037  0.00  0.00    +0.009 C 
ENDBRANCH  19  28
ENDBRANCH  18  20
ENDBRANCH  17  18
ENDBRANCH   1  17
TORSDOF 7
