REMARK  Name = ZINC00225920
REMARK  6 active torsions:
REMARK  status: ('A' for Active; 'I' for Inactive)
REMARK    1  A    between atoms: C_1  and  O_2
REMARK    2  A    between atoms: O_2  and  C_3
REMARK    3  A    between atoms: C_6  and  C_10
REMARK    4  A    between atoms: N_12  and  N_13
REMARK    5  A    between atoms: C_14  and  C_15
REMARK    6  A    between atoms: C_20  and  O_21
REMARK                            x       y       z     vdW  Elec       q    Type
REMARK                         _______ _______ _______ _____ _____    ______ ____
ROOT
ATOM      1  C   UNL     1      -2.519   3.867   0.045  0.00  0.00    +0.263 C 
ATOM      2  O   UNL     1      -2.534   5.083   0.052  0.00  0.00    -0.268 OA
ATOM      3  N   UNL     1      -3.679   3.180   0.053  0.00  0.00    -0.203 N 
ATOM      4  H   UNL     1      -3.667   2.210   0.048  0.00  0.00    +0.178 HD
ENDROOT
BRANCH   1   8
ATOM      5  C   UNL     1       1.182   1.786   0.000  0.00  0.00    +0.134 A 
ATOM      6  C   UNL     1      -0.013   1.076   0.008  0.00  0.00    +0.047 A 
ATOM      7  C   UNL     1      -1.215   1.747   0.017  0.00  0.00    +0.017 A 
ATOM      8  C   UNL     1      -1.233   3.144   0.030  0.00  0.00    +0.040 A 
ATOM      9  C   UNL     1      -0.030   3.855   0.022  0.00  0.00    +0.032 A 
ATOM     10  C   UNL     1       1.169   3.176   0.007  0.00  0.00    +0.060 A 
ATOM     11 BR   UNL     1       2.798   4.137  -0.002  0.00  0.00    -0.046 Br
BRANCH   5  13
ATOM     12  C   UNL     1       2.306  -0.307  -0.022  0.00  0.00    +0.277 C 
ATOM     13  O   UNL     1       2.365   1.121  -0.015  0.00  0.00    -0.494 OA
ENDBRANCH   5  13
ENDBRANCH   1   8
BRANCH   3  14
ATOM     14  N   UNL     1      -4.900   3.866   0.068  0.00  0.00    -0.187 NA
ATOM     15  C   UNL     1      -6.017   3.204   0.075  0.00  0.00    +0.142 C 
BRANCH  15  16
ATOM     16  C   UNL     1      -7.301   3.926   0.090  0.00  0.00    +0.036 A 
ATOM     17  C   UNL     1      -8.505   3.217   0.092  0.00  0.00    +0.013 A 
ATOM     18  C   UNL     1      -9.704   3.899   0.112  0.00  0.00    +0.001 A 
ATOM     19  C   UNL     1      -9.720   5.283   0.119  0.00  0.00    +0.004 A 
ATOM     20  C   UNL     1      -8.535   5.996   0.112  0.00  0.00    +0.046 A 
ATOM     21  C   UNL     1      -7.322   5.327   0.098  0.00  0.00    +0.125 A 
BRANCH  21  22
ATOM     22  O   UNL     1      -6.158   6.027   0.091  0.00  0.00    -0.506 OA
ATOM     23  H   UNL     1      -5.829   6.234  -0.794  0.00  0.00    +0.292 HD
ENDBRANCH  21  22
ENDBRANCH  15  16
ENDBRANCH   3  14
TORSDOF 5
