REMARK  Name = ZINC24730180
REMARK  8 active torsions:
REMARK  status: ('A' for Active; 'I' for Inactive)
REMARK    1  A    between atoms: C_1  and  C_2
REMARK    2  A    between atoms: C_5  and  N_8
REMARK    3  A    between atoms: C_12  and  C_14
REMARK    4  A    between atoms: C_14  and  C_16
REMARK    5  A    between atoms: C_14  and  N_17
REMARK    6  A    between atoms: N_17  and  C_18
REMARK    7  A    between atoms: N_17  and  C_19
REMARK    8  A    between atoms: C_19  and  C_20
REMARK                            x       y       z     vdW  Elec       q    Type
REMARK                         _______ _______ _______ _____ _____    ______ ____
ROOT
ATOM      1  N   UNL     1       1.237  -2.080  -0.020  0.00  0.00    -0.269 N 
ATOM      2  C   UNL     1       2.410  -2.734  -0.137  0.00  0.00    +0.310 C 
ATOM      3  O   UNL     1       3.454  -2.113  -0.144  0.00  0.00    -0.252 OA
ATOM      4  N   UNL     1       2.424  -4.077  -0.245  0.00  0.00    -0.241 N 
ATOM      5  C   UNL     1       3.596  -4.732  -0.362  0.00  0.00    +0.207 C 
ATOM      6  O   UNL     1       4.638  -4.113  -0.369  0.00  0.00    -0.277 OA
ATOM      7  H   UNL     1       0.298  -2.645   0.074  0.00  0.00    +0.156 HD
ATOM      8  H   UNL     1       1.478  -4.640  -0.239  0.00  0.00    +0.159 HD
ENDROOT
BRANCH   1  13
ATOM      9  C   UNL     1       1.143   3.593  -0.019  0.00  0.00    +0.044 C 
ATOM     10  C   UNL     1       1.168   2.086  -0.019  0.00  0.00    -0.050 A 
ATOM     11  C   UNL     1       2.111   1.412  -0.773  0.00  0.00    +0.005 A 
ATOM     12  C   UNL     1       2.137   0.031  -0.775  0.00  0.00    +0.023 A 
ATOM     13  C   UNL     1       1.214  -0.680  -0.020  0.00  0.00    +0.035 A 
ATOM     14  C   UNL     1       0.268  -0.001   0.736  0.00  0.00    +0.023 A 
ATOM     15  C   UNL     1       0.248   1.381   0.734  0.00  0.00    +0.005 A 
ENDBRANCH   1  13
BRANCH   5  16
ATOM     16  C   UNL     1       3.611  -6.234  -0.483  0.00  0.00    +0.017 C 
ATOM     17  C   UNL     1       2.964  -6.853   0.758  0.00  0.00    -0.004 C 
BRANCH  16  18
ATOM     18  N   UNL     1       4.999  -6.702  -0.596  0.00  0.00    +0.388 N 
ATOM     19  C   UNL     1       5.745  -6.444   0.643  0.00  0.00    -0.095 C 
ATOM     20  H   UNL     1       5.482  -6.135  -1.406  0.00  0.00    -0.081 HD
BRANCH  18  21
ATOM     21  C   UNL     1       5.047  -8.126  -0.952  0.00  0.00    -0.042 C 
BRANCH  21  22
ATOM     22  C   UNL     1       6.463  -8.510  -1.299  0.00  0.00    -0.060 A 
ATOM     23  C   UNL     1       6.904  -8.411  -2.605  0.00  0.00    +0.005 A 
ATOM     24  C   UNL     1       8.204  -8.757  -2.927  0.00  0.00    +0.050 A 
ATOM     25  C   UNL     1       9.063  -9.215  -1.942  0.00  0.00    +0.166 A 
ATOM     26  C   UNL     1       8.617  -9.319  -0.627  0.00  0.00    +0.166 A 
ATOM     27  C   UNL     1       7.316  -8.965  -0.310  0.00  0.00    +0.051 A 
ATOM     28  O   UNL     1       9.640  -9.789   0.145  0.00  0.00    -0.453 OA
ATOM     29  C   UNL     1      10.589 -10.356  -0.778  0.00  0.00    +0.466 C 
ATOM     30  O   UNL     1      10.366  -9.618  -1.994  0.00  0.00    -0.453 OA
ENDBRANCH  21  22
ENDBRANCH  18  21
ENDBRANCH  16  18
ENDBRANCH   5  16
TORSDOF 5
