REMARK  Name = ZINC02727222
REMARK  10 active torsions:
REMARK  status: ('A' for Active; 'I' for Inactive)
REMARK    1  A    between atoms: C_1  and  C_2
REMARK    2  A    between atoms: C_2  and  C_3
REMARK    3  A    between atoms: C_3  and  O_4
REMARK    4  A    between atoms: O_4  and  C_5
REMARK    5  A    between atoms: C_5  and  C_7
REMARK    6  A    between atoms: C_8  and  C_39
REMARK    7  A    between atoms: C_12  and  C_14
REMARK    8  A    between atoms: C_28  and  C_31
REMARK    9  A    between atoms: C_36  and  O_37
REMARK   10  A    between atoms: O_37  and  C_38
REMARK                            x       y       z     vdW  Elec       q    Type
REMARK                         _______ _______ _______ _____ _____    ______ ____
ROOT
ATOM      1  C   UNL     1      -2.681  -4.012  -0.139  0.00  0.00    +0.065 C 
ATOM      2  C   UNL     1      -3.854  -4.619   0.111  0.00  0.00    +0.016 C 
ATOM      3  N   UNL     1      -3.913  -5.976   0.261  0.00  0.00    -0.321 N 
ATOM      4  C   UNL     1      -2.787  -6.696   0.554  0.00  0.00    +0.016 C 
ATOM      5  C   UNL     1      -1.562  -6.175   0.327  0.00  0.00    +0.024 C 
ATOM      6  C   UNL     1      -1.410  -4.799  -0.274  0.00  0.00    +0.099 C 
ATOM      7  C   UNL     1      -0.397  -6.898   0.640  0.00  0.00    +0.162 C 
ATOM      8  O   UNL     1       0.690  -6.403   0.415  0.00  0.00    -0.292 OA
ATOM      9  C   UNL     1      -0.471  -8.272   1.247  0.00  0.00    +0.088 C 
ATOM     10  C   UNL     1      -1.767  -8.391   2.056  0.00  0.00    +0.035 C 
ATOM     11  C   UNL     1      -2.947  -8.081   1.132  0.00  0.00    +0.060 C 
ATOM     12  C   UNL     1      -5.112  -3.797   0.227  0.00  0.00    +0.061 C 
ATOM     13  H   UNL     1      -4.763  -6.434   0.158  0.00  0.00    +0.152 HD
ENDROOT
BRANCH   6  14
ATOM     14  C   UNL     1      -1.060  -4.927  -1.734  0.00  0.00    +0.047 A 
ATOM     15  C   UNL     1       0.107  -4.443  -2.196  0.00  0.00    +0.204 A 
ATOM     16  O   UNL     1       0.471  -4.527  -3.479  0.00  0.00    -0.462 OA
ATOM     17  C   UNL     1      -0.309  -5.107  -4.415  0.00  0.00    +0.138 A 
ATOM     18  C   UNL     1       0.099  -5.179  -5.742  0.00  0.00    +0.047 A 
ATOM     19  C   UNL     1      -0.715  -5.778  -6.679  0.00  0.00    +0.004 A 
ATOM     20  C   UNL     1      -1.942  -6.312  -6.314  0.00  0.00    +0.001 A 
ATOM     21  C   UNL     1      -2.365  -6.251  -5.004  0.00  0.00    +0.015 A 
ATOM     22  C   UNL     1      -1.551  -5.649  -4.047  0.00  0.00    +0.064 A 
ATOM     23  C   UNL     1      -1.958  -5.565  -2.631  0.00  0.00    +0.197 A 
ATOM     24  O   UNL     1      -3.022  -6.020  -2.248  0.00  0.00    -0.287 OA
ENDBRANCH   6  14
BRANCH  10  25
ATOM     25  C   UNL     1      -1.898  -9.791   2.599  0.00  0.00    -0.002 A 
ATOM     26  C   UNL     1      -1.943 -10.867   1.733  0.00  0.00    +0.007 A 
ATOM     27  C   UNL     1      -2.064 -12.151   2.230  0.00  0.00    +0.001 A 
ATOM     28  C   UNL     1      -2.140 -12.362   3.594  0.00  0.00    +0.004 A 
ATOM     29  C   UNL     1      -2.095 -11.290   4.464  0.00  0.00    +0.046 A 
ATOM     30  C   UNL     1      -1.968 -10.001   3.968  0.00  0.00    +0.124 A 
BRANCH  30  31
ATOM     31  O   UNL     1      -1.918  -8.945   4.822  0.00  0.00    -0.495 OA
ATOM     32  C   UNL     1      -1.996  -9.236   6.219  0.00  0.00    +0.277 C 
ENDBRANCH  30  31
ENDBRANCH  10  25
BRANCH   1  33
ATOM     33  C   UNL     1      -2.644  -2.605  -0.283  0.00  0.00    +0.338 C 
ATOM     34  O   UNL     1      -2.186  -1.914   0.607  0.00  0.00    -0.245 OA
BRANCH  33  35
ATOM     35  O   UNL     1      -3.118  -2.030  -1.408  0.00  0.00    -0.461 OA
BRANCH  35  36
ATOM     36  C   UNL     1      -3.050  -0.604  -1.486  0.00  0.00    +0.232 C 
BRANCH  36  38
ATOM     37  C   UNL     1      -3.556   1.388  -2.906  0.00  0.00    +0.007 C 
ATOM     38  C   UNL     1      -3.629  -0.138  -2.823  0.00  0.00    +0.038 C 
ENDBRANCH  36  38
ENDBRANCH  35  36
ENDBRANCH  33  35
ENDBRANCH   1  33
TORSDOF 7
