REMARK  Name = ZINC12482799
REMARK  5 active torsions:
REMARK  status: ('A' for Active; 'I' for Inactive)
REMARK    1  A    between atoms: C_4  and  N_28
REMARK    2  A    between atoms: C_5  and  C_7
REMARK    3  A    between atoms: C_7  and  O_9
REMARK    4  A    between atoms: O_9  and  C_10
REMARK    5  A    between atoms: C_10  and  C_11
REMARK                            x       y       z     vdW  Elec       q    Type
REMARK                         _______ _______ _______ _____ _____    ______ ____
ROOT
ATOM      1  C   UNL     1      -5.975  -0.459   0.588  0.00  0.00    +0.258 C 
ATOM      2  O   UNL     1      -5.839  -1.608   0.953  0.00  0.00    -0.271 OA
ATOM      3  N   UNL     1      -7.199   0.104   0.574  0.00  0.00    -0.252 N 
ATOM      4  C   UNL     1      -7.362   1.497   0.476  0.00  0.00    +0.059 A 
ATOM      5  C   UNL     1      -6.412   2.367   0.972  0.00  0.00    +0.025 A 
ATOM      6  C   UNL     1      -6.608   3.732   0.863  0.00  0.00    +0.002 A 
ATOM      7  C   UNL     1      -7.749   4.225   0.256  0.00  0.00    +0.002 A 
ATOM      8  C   UNL     1      -8.700   3.359  -0.252  0.00  0.00    +0.025 A 
ATOM      9  C   UNL     1      -8.510   1.990  -0.151  0.00  0.00    +0.055 A 
ATOM     10  N   UNL     1      -9.455   1.097  -0.669  0.00  0.00    -0.282 N 
ATOM     11  C   UNL     1      -9.450  -0.199  -0.295  0.00  0.00    +0.241 C 
ATOM     12  O   UNL     1     -10.287  -0.956  -0.739  0.00  0.00    -0.273 OA
ATOM     13  C   UNL     1      -8.415  -0.712   0.668  0.00  0.00    +0.118 C 
ATOM     14  C   UNL     1      -8.963  -0.667   2.105  0.00  0.00    +0.036 C 
ATOM     15  C   UNL     1      -9.492  -2.103   2.353  0.00  0.00    +0.003 C 
ATOM     16  C   UNL     1      -8.445  -2.984   1.626  0.00  0.00    +0.003 C 
ATOM     17  C   UNL     1      -8.085  -2.179   0.359  0.00  0.00    +0.036 C 
ATOM     18  H   UNL     1     -10.119   1.412  -1.301  0.00  0.00    +0.155 HD
ENDROOT
BRANCH   1  19
ATOM     19  C   UNL     1      -4.774   0.339   0.149  0.00  0.00    +0.328 C 
BRANCH  19  20
ATOM     20  O   UNL     1      -3.617  -0.535   0.063  0.00  0.00    -0.452 OA
BRANCH  20  21
ATOM     21  C   UNL     1      -2.454   0.026  -0.318  0.00  0.00    +0.342 C 
ATOM     22  O   UNL     1      -2.406   1.213  -0.572  0.00  0.00    -0.245 OA
BRANCH  21  27
ATOM     23  C   UNL     1       0.339  -2.326   0.555  0.00  0.00    +0.001 A 
ATOM     24  C   UNL     1       1.050  -2.353  -0.633  0.00  0.00    +0.002 A 
ATOM     25  C   UNL     1       0.621  -1.612  -1.719  0.00  0.00    +0.033 A 
ATOM     26  C   UNL     1      -0.514  -0.833  -1.623  0.00  0.00    +0.140 A 
ATOM     27  C   UNL     1      -1.235  -0.802  -0.428  0.00  0.00    +0.089 A 
ATOM     28  C   UNL     1      -0.799  -1.556   0.664  0.00  0.00    +0.017 A 
BRANCH  26  29
ATOM     29  N   UNL     1      -0.968  -0.037  -2.785  0.00  0.00    +0.057 N 
ATOM     30  O   UNL     1      -0.280   0.025  -3.787  0.00  0.00    -0.126 OA
ATOM     31  O   UNL     1      -2.034   0.552  -2.740  0.00  0.00    -0.126 OA
ENDBRANCH  26  29
ENDBRANCH  21  27
ENDBRANCH  20  21
ENDBRANCH  19  20
ENDBRANCH   1  19
TORSDOF 5
