REMARK  Name = ZINC24447031
REMARK  7 active torsions:
REMARK  status: ('A' for Active; 'I' for Inactive)
REMARK    1  A    between atoms: C_1  and  O_2
REMARK    2  A    between atoms: O_2  and  C_3
REMARK    3  A    between atoms: C_8  and  O_9
REMARK    4  A    between atoms: O_9  and  C_10
REMARK    5  A    between atoms: C_11  and  C_28
REMARK    6  A    between atoms: C_16  and  C_18
REMARK    7  A    between atoms: C_21  and  N_24
REMARK                            x       y       z     vdW  Elec       q    Type
REMARK                         _______ _______ _______ _____ _____    ______ ____
ROOT
ATOM      1  C   UNL     1       0.304   2.768   1.540  0.00  0.00    +0.162 A 
ATOM      2  C   UNL     1       0.634   3.675   0.550  0.00  0.00    +0.053 A 
ATOM      3  C   UNL     1       0.296   5.017   0.679  0.00  0.00    -0.037 A 
ATOM      4  C   UNL     1      -0.378   5.446   1.802  0.00  0.00    -0.015 A 
ATOM      5  C   UNL     1      -0.706   4.539   2.801  0.00  0.00    +0.055 A 
ATOM      6  C   UNL     1      -0.375   3.203   2.674  0.00  0.00    +0.162 A 
ATOM      7  C   UNL     1      -0.790   6.883   1.996  0.00  0.00    +0.144 C 
ATOM      8  N   UNL     1      -0.138   7.725   0.986  0.00  0.00    -0.286 N 
ATOM      9  C   UNL     1      -0.127   7.231  -0.401  0.00  0.00    +0.114 C 
ATOM     10  C   UNL     1       0.701   5.947  -0.435  0.00  0.00    +0.054 C 
ATOM     11  C   UNL     1       0.428   8.903   1.315  0.00  0.00    +0.247 C 
ATOM     12  O   UNL     1       1.021   9.549   0.473  0.00  0.00    -0.270 OA
ENDROOT
BRANCH  11  13
ATOM     13  C   UNL     1       0.329   9.409   2.698  0.00  0.00    +0.037 A 
ATOM     14  C   UNL     1      -0.841   9.207   3.435  0.00  0.00    +0.015 A 
ATOM     15  C   UNL     1      -0.928   9.676   4.727  0.00  0.00    +0.024 A 
ATOM     16  C   UNL     1       0.142  10.360   5.294  0.00  0.00    +0.035 A 
ATOM     17  C   UNL     1       1.307  10.566   4.561  0.00  0.00    +0.024 A 
ATOM     18  C   UNL     1       1.403  10.095   3.271  0.00  0.00    +0.015 A 
BRANCH  16  19
ATOM     19  N   UNL     1       0.049  10.838   6.600  0.00  0.00    -0.270 N 
ATOM     20  C   UNL     1       0.634  12.005   6.934  0.00  0.00    +0.301 C 
ATOM     21  O   UNL     1       1.315  12.598   6.120  0.00  0.00    -0.253 OA
ATOM     22  N   UNL     1       0.464  12.515   8.170  0.00  0.00    -0.313 N 
ATOM     23  H   UNL     1      -0.504  10.263   7.358  0.00  0.00    +0.156 HD
ATOM     24  H   UNL     1       0.942  13.468   8.443  0.00  0.00    +0.146 HD
ATOM     25  H   UNL     1      -0.152  11.979   8.906  0.00  0.00    +0.146 HD
ENDBRANCH  16  19
ENDBRANCH  11  13
BRANCH   7  26
ATOM     26  C   UNL     1      -2.286   7.000   1.855  0.00  0.00    +0.015 A 
ATOM     27  C   UNL     1      -3.231   7.067   2.824  0.00  0.00    +0.013 A 
ATOM     28  C   UNL     1      -4.560   7.175   2.458  0.00  0.00    +0.008 A 
ATOM     29  C   UNL     1      -4.878   7.200   1.141  0.00  0.00    +0.045 A 
ATOM     30  S   UNL     1      -3.273   7.076   0.370  0.00  0.00    -0.099 S 
ENDBRANCH   7  26
BRANCH   1  32
ATOM     31  C   UNL     1       1.327   1.083   0.208  0.00  0.00    +0.277 C 
ATOM     32  O   UNL     1       0.636   1.456   1.402  0.00  0.00    -0.491 OA
ENDBRANCH   1  32
BRANCH   6  33
ATOM     33  O   UNL     1      -0.707   2.319   3.653  0.00  0.00    -0.491 OA
ATOM     34  C   UNL     1      -1.404   2.840   4.787  0.00  0.00    +0.277 C 
ENDBRANCH   6  33
TORSDOF 5
