REMARK  Name = ZINC09129395
REMARK  8 active torsions:
REMARK  status: ('A' for Active; 'I' for Inactive)
REMARK    1  A    between atoms: C_1  and  C_2
REMARK    2  A    between atoms: C_5  and  S_8
REMARK    3  A    between atoms: S_8  and  N_11
REMARK    4  A    between atoms: N_11  and  C_12
REMARK    5  A    between atoms: N_11  and  C_13
REMARK    6  A    between atoms: C_13  and  C_14
REMARK    7  A    between atoms: N_16  and  N_17
REMARK    8  A    between atoms: C_18  and  C_20
REMARK                            x       y       z     vdW  Elec       q    Type
REMARK                         _______ _______ _______ _____ _____    ______ ____
ROOT
ATOM      1  C   UNL     1       7.237   0.101  -0.089  0.00  0.00    +0.245 C 
ATOM      2  O   UNL     1       7.207   1.313  -0.079  0.00  0.00    -0.273 OA
ATOM      3  N   UNL     1       6.088  -0.602  -0.081  0.00  0.00    -0.233 N 
ATOM      4  H   UNL     1       6.112  -1.572  -0.089  0.00  0.00    +0.173 HD
ENDROOT
BRANCH   3   5
ATOM      5  N   UNL     1       4.857   0.067  -0.059  0.00  0.00    -0.230 N 
ATOM      6  C   UNL     1       3.707  -0.636  -0.051  0.00  0.00    +0.260 C 
ATOM      7  O   UNL     1       3.738  -1.852  -0.061  0.00  0.00    -0.269 OA
ATOM      8  H   UNL     1       4.832   1.037  -0.051  0.00  0.00    +0.173 HD
BRANCH   6   9
ATOM      9  C   UNL     1       2.412   0.069  -0.028  0.00  0.00    +0.040 A 
ATOM     10  C   UNL     1       2.378   1.466  -0.016  0.00  0.00    +0.014 A 
ATOM     11  C   UNL     1       1.167   2.121   0.002  0.00  0.00    +0.017 A 
ATOM     12  C   UNL     1      -0.017   1.395   0.010  0.00  0.00    +0.030 A 
ATOM     13  C   UNL     1       0.002  -0.004   0.002  0.00  0.00    +0.048 A 
ATOM     14  C   UNL     1       1.222  -0.662  -0.019  0.00  0.00    +0.037 A 
ATOM     15  N   UNL     1      -1.175  -0.748   0.021  0.00  0.00    -0.284 N 
ATOM     16  C   UNL     1      -2.379  -0.325  -0.355  0.00  0.00    +0.227 C 
ATOM     17  O   UNL     1      -3.307  -1.105  -0.289  0.00  0.00    -0.275 OA
ATOM     18  C   UNL     1      -2.654   1.066  -0.857  0.00  0.00    +0.170 C 
ATOM     19  S   UNL     1      -1.572   2.231   0.022  0.00  0.00    -0.114 S 
ATOM     20  H   UNL     1      -1.111  -1.663   0.337  0.00  0.00    +0.155 HD
ENDBRANCH   6   9
ENDBRANCH   3   5
BRANCH   1  21
ATOM     21  C   UNL     1       8.561  -0.619  -0.112  0.00  0.00    +0.206 C 
BRANCH  21  22
ATOM     22  N   UNL     1       9.650   0.361  -0.118  0.00  0.00    -0.171 NA
ATOM     23  C   UNL     1      10.136   0.923   1.145  0.00  0.00    +0.132 C 
BRANCH  22  24
ATOM     24  S   UNL     1      10.331   0.834  -1.552  0.00  0.00    +0.061 S 
ATOM     25  O   UNL     1      11.639   1.298  -1.246  0.00  0.00    -0.153 OA
ATOM     26  O   UNL     1      10.092  -0.215  -2.480  0.00  0.00    -0.153 OA
BRANCH  24  31
ATOM     27  C   UNL     1       7.218   5.616  -3.514  0.00  0.00    +0.044 C 
ATOM     28  C   UNL     1       7.995   4.421  -3.024  0.00  0.00    -0.050 A 
ATOM     29  C   UNL     1       9.095   4.601  -2.205  0.00  0.00    +0.005 A 
ATOM     30  C   UNL     1       9.808   3.506  -1.756  0.00  0.00    +0.029 A 
ATOM     31  C   UNL     1       9.421   2.231  -2.124  0.00  0.00    +0.105 A 
ATOM     32  C   UNL     1       8.325   2.051  -2.947  0.00  0.00    +0.029 A 
ATOM     33  C   UNL     1       7.609   3.147  -3.393  0.00  0.00    +0.005 A 
ENDBRANCH  24  31
ENDBRANCH  22  24
ENDBRANCH  21  22
ENDBRANCH   1  21
TORSDOF 6
