REMARK  Name = ZINC34923777
REMARK  8 active torsions:
REMARK  status: ('A' for Active; 'I' for Inactive)
REMARK    1  A    between atoms: C_1  and  C_2
REMARK    2  A    between atoms: C_3  and  C_27
REMARK    3  A    between atoms: C_4  and  C_22
REMARK    4  A    between atoms: C_7  and  C_12
REMARK    5  A    between atoms: C_13  and  N_15
REMARK    6  A    between atoms: N_15  and  C_16
REMARK    7  A    between atoms: C_27  and  O_29
REMARK    8  A    between atoms: O_29  and  C_30
REMARK                            x       y       z     vdW  Elec       q    Type
REMARK                         _______ _______ _______ _____ _____    ______ ____
ROOT
ATOM      1  C   UNL     1      -0.340   1.699  -0.042  0.00  0.00    +0.066 C 
ATOM      2  C   UNL     1      -0.230   0.198   0.046  0.00  0.00    +0.053 C 
ATOM      3  C   UNL     1      -1.375  -0.575   0.035  0.00  0.00    +0.082 C 
ATOM      4  C   UNL     1      -1.213  -2.076   0.125  0.00  0.00    +0.150 C 
ATOM      5  N   UNL     1       0.175  -2.602   0.218  0.00  0.00    -0.267 N 
ATOM      6  C   UNL     1       0.557  -3.926   0.308  0.00  0.00    +0.048 C 
ATOM      7  C   UNL     1       1.880  -4.192   0.384  0.00  0.00    +0.072 C 
ATOM      8  S   UNL     1       2.589  -2.559   0.328  0.00  0.00    -0.060 S 
ATOM      9  C   UNL     1       1.172  -1.667   0.213  0.00  0.00    +0.166 C 
ATOM     10  N   UNL     1       0.962  -0.370   0.127  0.00  0.00    -0.230 NA
ENDROOT
BRANCH   4  11
ATOM     11  C   UNL     1      -1.859  -2.686  -1.093  0.00  0.00    -0.015 A 
ATOM     12  C   UNL     1      -3.068  -3.347  -0.988  0.00  0.00    +0.013 A 
ATOM     13  C   UNL     1      -3.622  -3.885  -2.102  0.00  0.00    +0.045 A 
ATOM     14  S   UNL     1      -2.421  -3.460  -3.353  0.00  0.00    -0.105 S 
ATOM     15  C   UNL     1      -1.265  -2.590  -2.307  0.00  0.00    +0.051 A 
ENDBRANCH   4  11
BRANCH   6  16
ATOM     16  C   UNL     1      -0.439  -5.007   0.322  0.00  0.00    +0.091 C 
ATOM     17  C   UNL     1      -0.053  -6.275   0.558  0.00  0.00    +0.239 C 
ATOM     18  O   UNL     1       1.228  -6.539   0.912  0.00  0.00    -0.271 OA
BRANCH  17  19
ATOM     19  N   UNL     1      -0.966  -7.310   0.439  0.00  0.00    -0.309 N 
ATOM     20  H   UNL     1      -1.899  -7.116   0.260  0.00  0.00    +0.149 HD
BRANCH  19  21
ATOM     21  C   UNL     1      -0.521  -8.699   0.583  0.00  0.00    +0.073 C 
ATOM     22  C   UNL     1       0.079  -9.182  -0.739  0.00  0.00    +0.022 C 
ATOM     23  C   UNL     1       0.543 -10.632  -0.588  0.00  0.00    +0.002 C 
ATOM     24  C   UNL     1      -0.651 -11.514  -0.218  0.00  0.00    +0.000 C 
ATOM     25  C   UNL     1      -1.251 -11.030   1.104  0.00  0.00    +0.002 C 
ATOM     26  C   UNL     1      -1.715  -9.580   0.954  0.00  0.00    +0.022 C 
ENDBRANCH  19  21
ENDBRANCH  17  19
ENDBRANCH   6  16
BRANCH   3  27
ATOM     27  C   UNL     1      -2.643   0.011  -0.056  0.00  0.00    +0.339 C 
ATOM     28  O   UNL     1      -2.751   1.223  -0.127  0.00  0.00    -0.245 OA
BRANCH  27  29
ATOM     29  O   UNL     1      -3.748  -0.766  -0.065  0.00  0.00    -0.465 OA
ATOM     30  C   UNL     1      -5.010  -0.101  -0.159  0.00  0.00    +0.280 C 
ENDBRANCH  27  29
ENDBRANCH   3  27
TORSDOF 6
