REMARK  Name = ZINC11063279
REMARK  11 active torsions:
REMARK  status: ('A' for Active; 'I' for Inactive)
REMARK    1  A    between atoms: C_1  and  C_2
REMARK    2  A    between atoms: C_16  and  C_17
REMARK    3  A    between atoms: C_17  and  O_19
REMARK    4  A    between atoms: O_19  and  C_20
REMARK    5  A    between atoms: C_20  and  C_22
REMARK    6  A    between atoms: C_20  and  C_23
REMARK    7  A    between atoms: N_25  and  C_26
REMARK    8  A    between atoms: C_28  and  O_34
REMARK    9  A    between atoms: C_31  and  O_32
REMARK   10  A    between atoms: O_32  and  C_33
REMARK   11  A    between atoms: O_34  and  C_35
REMARK                            x       y       z     vdW  Elec       q    Type
REMARK                         _______ _______ _______ _____ _____    ______ ____
ROOT
ATOM      1  C   UNL     1      -2.098  -2.839   0.946  0.00  0.00    +0.347 C 
ATOM      2  O   UNL     1      -3.039  -2.271   1.467  0.00  0.00    -0.244 OA
ENDROOT
BRANCH   1  18
ATOM      3  C   UNL     1      -3.979  -4.671   2.476  0.00  0.00    +0.046 C 
ATOM      4  C   UNL     1      -2.751  -5.167   1.757  0.00  0.00    -0.015 A 
ATOM      5  C   UNL     1      -2.432  -6.526   1.773  0.00  0.00    +0.076 A 
ATOM      6  C   UNL     1      -1.262  -6.893   1.068  0.00  0.00    +0.116 A 
ATOM      7  N   UNL     1      -0.848  -8.152   1.004  0.00  0.00    -0.226 NA
ATOM      8  C   UNL     1      -1.498  -9.118   1.589  0.00  0.00    +0.114 A 
ATOM      9  N   UNL     1      -2.639  -8.887   2.299  0.00  0.00    -0.296 N 
ATOM     10  C   UNL     1      -3.145  -7.648   2.426  0.00  0.00    +0.263 A 
ATOM     11  O   UNL     1      -4.164  -7.452   3.064  0.00  0.00    -0.267 OA
ATOM     12  C   UNL     1      -3.312 -10.033   2.926  0.00  0.00    +0.126 C 
ATOM     13  C   UNL     1      -2.508 -10.483   4.143  0.00  0.00    +0.022 C 
ATOM     14  C   UNL     1      -1.466 -11.520   3.760  0.00  0.00    +0.002 C 
ATOM     15  C   UNL     1      -0.400 -10.950   2.841  0.00  0.00    +0.008 C 
ATOM     16  C   UNL     1      -0.996 -10.541   1.495  0.00  0.00    +0.074 C 
ATOM     17  S   UNL     1      -0.675  -5.347   0.421  0.00  0.00    -0.062 S 
ATOM     18  C   UNL     1      -1.948  -4.289   1.087  0.00  0.00    +0.102 A 
ENDBRANCH   1  18
BRANCH   1  19
ATOM     19  O   UNL     1      -1.192  -2.133   0.238  0.00  0.00    -0.448 OA
BRANCH  19  20
ATOM     20  C   UNL     1      -1.404  -0.700   0.141  0.00  0.00    +0.259 C 
ATOM     21  C   UNL     1      -2.260  -0.394  -1.090  0.00  0.00    +0.062 C 
BRANCH  20  22
ATOM     22  C   UNL     1      -0.074  -0.003   0.013  0.00  0.00    +0.258 C 
ATOM     23  O   UNL     1       0.945  -0.654  -0.085  0.00  0.00    -0.271 OA
ATOM     24  N   UNL     1      -0.016   1.344   0.009  0.00  0.00    -0.279 N 
ATOM     25  H   UNL     1      -0.835   1.864   0.003  0.00  0.00    +0.155 HD
BRANCH  24  26
ATOM     26  C   UNL     1       1.226   1.992   0.008  0.00  0.00    +0.079 A 
ATOM     27  C   UNL     1       2.346   1.348   0.515  0.00  0.00    +0.072 A 
ATOM     28  C   UNL     1       3.575   1.990   0.507  0.00  0.00    +0.122 A 
ATOM     29  C   UNL     1       3.683   3.278   0.004  0.00  0.00    +0.049 A 
ATOM     30  C   UNL     1       2.567   3.923  -0.496  0.00  0.00    +0.051 A 
ATOM     31  C   UNL     1       1.338   3.285  -0.496  0.00  0.00    +0.141 A 
BRANCH  31  32
ATOM     32  O   UNL     1       0.240   3.921  -0.988  0.00  0.00    -0.493 OA
ATOM     33  C   UNL     1       0.429   5.246  -1.489  0.00  0.00    +0.277 C 
ENDBRANCH  31  32
BRANCH  28  34
ATOM     34  O   UNL     1       4.674   1.358   0.999  0.00  0.00    -0.495 OA
ATOM     35  C   UNL     1       5.906   2.080   0.966  0.00  0.00    +0.277 C 
ENDBRANCH  28  34
ENDBRANCH  24  26
ENDBRANCH  20  22
ENDBRANCH  19  20
ENDBRANCH   1  19
TORSDOF 7
