REMARK  Name = ZINC59385099
REMARK  9 active torsions:
REMARK  status: ('A' for Active; 'I' for Inactive)
REMARK    1  A    between atoms: C_1  and  C_2
REMARK    2  A    between atoms: C_3  and  C_17
REMARK    3  A    between atoms: C_4  and  C_10
REMARK    4  A    between atoms: C_13  and  O_16
REMARK    5  A    between atoms: N_19  and  N_20
REMARK    6  A    between atoms: C_21  and  C_22
REMARK    7  A    between atoms: C_25  and  N_28
REMARK    8  A    between atoms: N_28  and  C_29
REMARK    9  A    between atoms: N_28  and  C_30
REMARK                            x       y       z     vdW  Elec       q    Type
REMARK                         _______ _______ _______ _____ _____    ______ ____
ROOT
ATOM      1  C   UNL     1      -0.949  -1.480  -2.571  0.00  0.00    +0.061 C 
ATOM      2  C   UNL     1      -0.334  -1.609  -1.200  0.00  0.00    +0.017 C 
ATOM      3  C   UNL     1      -0.874  -0.932  -0.165  0.00  0.00    +0.057 C 
ATOM      4  C   UNL     1      -0.226  -1.089   1.196  0.00  0.00    +0.139 C 
ATOM      5  N   UNL     1       0.949  -1.974   1.277  0.00  0.00    -0.315 N 
ATOM      6  C   UNL     1       1.371  -2.583   0.151  0.00  0.00    +0.135 C 
ATOM      7  S   UNL     1       2.735  -3.615   0.231  0.00  0.00    -0.019 S 
ATOM      8  N   UNL     1       0.756  -2.412  -1.026  0.00  0.00    -0.300 N 
ATOM      9  H   UNL     1       1.407  -2.115   2.120  0.00  0.00    +0.149 HD
ATOM     10  H   UNL     1       1.107  -2.882  -1.798  0.00  0.00    +0.154 HD
ENDROOT
BRANCH   4  11
ATOM     11  C   UNL     1      -1.268  -1.613   2.149  0.00  0.00    -0.022 A 
ATOM     12  C   UNL     1      -1.516  -2.972   2.223  0.00  0.00    +0.009 A 
ATOM     13  C   UNL     1      -2.471  -3.455   3.096  0.00  0.00    +0.046 A 
ATOM     14  C   UNL     1      -3.182  -2.576   3.900  0.00  0.00    +0.117 A 
ATOM     15  C   UNL     1      -2.931  -1.214   3.825  0.00  0.00    +0.046 A 
ATOM     16  C   UNL     1      -1.971  -0.736   2.954  0.00  0.00    +0.009 A 
BRANCH  14  17
ATOM     17  O   UNL     1      -4.123  -3.049   4.759  0.00  0.00    -0.507 OA
ATOM     18  H   UNL     1      -3.780  -3.264   5.637  0.00  0.00    +0.292 HD
ENDBRANCH  14  17
ENDBRANCH   4  11
BRANCH   3  19
ATOM     19  C   UNL     1      -2.008  -0.102  -0.344  0.00  0.00    +0.263 C 
ATOM     20  O   UNL     1      -1.880   1.109  -0.357  0.00  0.00    -0.269 OA
ATOM     21  N   UNL     1      -3.228  -0.653  -0.499  0.00  0.00    -0.203 N 
ATOM     22  H   UNL     1      -3.341  -1.613  -0.416  0.00  0.00    +0.178 HD
BRANCH  21  23
ATOM     23  N   UNL     1      -4.333   0.161  -0.781  0.00  0.00    -0.187 NA
ATOM     24  C   UNL     1      -5.509  -0.370  -0.931  0.00  0.00    +0.138 C 
BRANCH  24  25
ATOM     25  C   UNL     1      -6.671   0.486  -1.228  0.00  0.00    -0.005 A 
ATOM     26  C   UNL     1      -6.509   1.869  -1.354  0.00  0.00    +0.011 A 
ATOM     27  C   UNL     1      -7.598   2.666  -1.632  0.00  0.00    +0.024 A 
ATOM     28  C   UNL     1      -8.857   2.096  -1.786  0.00  0.00    +0.029 A 
ATOM     29  C   UNL     1      -9.023   0.721  -1.661  0.00  0.00    +0.024 A 
ATOM     30  C   UNL     1      -7.938  -0.083  -1.389  0.00  0.00    +0.011 A 
BRANCH  28  31
ATOM     31  N   UNL     1      -9.958   2.906  -2.066  0.00  0.00    -0.336 N 
ATOM     32  C   UNL     1      -9.812   4.364  -2.069  0.00  0.00    +0.129 C 
ATOM     33  C   UNL     1     -11.259   2.299  -2.359  0.00  0.00    +0.129 C 
ENDBRANCH  28  31
ENDBRANCH  24  25
ENDBRANCH  21  23
ENDBRANCH   3  19
TORSDOF 6
