REMARK  Name = ZINC59125020
REMARK  9 active torsions:
REMARK  status: ('A' for Active; 'I' for Inactive)
REMARK    1  A    between atoms: C_1  and  C_2
REMARK    2  A    between atoms: C_2  and  C_3
REMARK    3  A    between atoms: C_6  and  C_9
REMARK    4  A    between atoms: C_9  and  C_11
REMARK    5  A    between atoms: C_9  and  N_12
REMARK    6  A    between atoms: C_13  and  C_15
REMARK    7  A    between atoms: C_15  and  N_16
REMARK    8  A    between atoms: C_19  and  C_23
REMARK    9  A    between atoms: C_19  and  C_24
REMARK                            x       y       z     vdW  Elec       q    Type
REMARK                         _______ _______ _______ _____ _____    ______ ____
ROOT
ATOM      1  N   UNL     1       5.414  -5.691  -6.033  0.00  0.00    -0.215 N 
ATOM      2  C   UNL     1       4.739  -6.834  -6.271  0.00  0.00    +0.251 C 
ATOM      3  O   UNL     1       3.839  -7.304  -5.609  0.00  0.00    -0.272 OA
ATOM      4  C   UNL     1       5.339  -7.406  -7.540  0.00  0.00    +0.135 C 
ATOM      5  N   UNL     1       6.380  -6.429  -7.903  0.00  0.00    -0.281 N 
ATOM      6  C   UNL     1       6.344  -5.463  -6.968  0.00  0.00    +0.310 C 
ATOM      7  O   UNL     1       7.076  -4.493  -6.969  0.00  0.00    -0.252 OA
ATOM      8  C   UNL     1       5.960  -8.778  -7.270  0.00  0.00    +0.047 C 
ATOM      9  H   UNL     1       6.973  -6.472  -8.669  0.00  0.00    +0.152 HD
ENDROOT
BRANCH   4  10
ATOM     10  C   UNL     1       4.297  -7.499  -8.625  0.00  0.00    -0.014 A 
ATOM     11  C   UNL     1       2.969  -7.693  -8.293  0.00  0.00    +0.006 A 
ATOM     12  C   UNL     1       2.013  -7.778  -9.287  0.00  0.00    +0.002 A 
ATOM     13  C   UNL     1       2.383  -7.669 -10.614  0.00  0.00    +0.020 A 
ATOM     14  C   UNL     1       3.712  -7.475 -10.947  0.00  0.00    +0.041 A 
ATOM     15  C   UNL     1       4.668  -7.384  -9.951  0.00  0.00    +0.026 A 
ATOM     16 CL   UNL     1       4.178  -7.338 -12.614  0.00  0.00    -0.084 Cl
ENDBRANCH   4  10
BRANCH   1  17
ATOM     17  C   UNL     1       5.157  -4.806  -4.894  0.00  0.00    +0.213 C 
BRANCH  17  19
ATOM     18  N   UNL     1       3.718  -2.861  -4.381  0.00  0.00    -0.307 N 
ATOM     19  C   UNL     1       4.116  -3.785  -5.277  0.00  0.00    +0.231 C 
ATOM     20  O   UNL     1       3.636  -3.796  -6.391  0.00  0.00    -0.274 OA
ATOM     21  H   UNL     1       4.102  -2.852  -3.490  0.00  0.00    +0.149 HD
BRANCH  18  22
ATOM     22  C   UNL     1       2.707  -1.868  -4.752  0.00  0.00    +0.100 C 
ATOM     23  C   UNL     1       3.383  -0.687  -5.451  0.00  0.00    +0.033 C 
BRANCH  22  27
ATOM     24  C   UNL     1       0.707  -0.490  -1.238  0.00  0.00    -0.048 A 
ATOM     25  C   UNL     1      -0.011  -0.719  -2.397  0.00  0.00    +0.004 A 
ATOM     26  C   UNL     1       0.636  -1.164  -3.534  0.00  0.00    +0.006 A 
ATOM     27  C   UNL     1       2.002  -1.381  -3.513  0.00  0.00    -0.027 A 
ATOM     28  C   UNL     1       2.720  -1.152  -2.354  0.00  0.00    +0.006 A 
ATOM     29  C   UNL     1       2.073  -0.702  -1.218  0.00  0.00    +0.004 A 
BRANCH  24  31
ATOM     30  C   UNL     1      -0.019   1.526   0.010  0.00  0.00    +0.009 C 
ATOM     31  C   UNL     1       0.002  -0.004   0.002  0.00  0.00    +0.032 C 
ENDBRANCH  24  31
ENDBRANCH  22  27
ENDBRANCH  18  22
ENDBRANCH  17  19
ENDBRANCH   1  17
TORSDOF 6
