REMARK  Name = ZINC22874288
REMARK  11 active torsions:
REMARK  status: ('A' for Active; 'I' for Inactive)
REMARK    1  A    between atoms: C_1  and  C_2
REMARK    2  A    between atoms: C_2  and  C_3
REMARK    3  A    between atoms: C_5  and  C_19
REMARK    4  A    between atoms: C_6  and  O_18
REMARK    5  A    between atoms: C_7  and  C_10
REMARK    6  A    between atoms: C_8  and  O_9
REMARK    7  A    between atoms: C_10  and  N_11
REMARK    8  A    between atoms: N_14  and  C_17
REMARK    9  A    between atoms: C_20  and  C_26
REMARK   10  A    between atoms: C_21  and  C_25
REMARK   11  A    between atoms: N_34  and  C_35
REMARK                            x       y       z     vdW  Elec       q    Type
REMARK                         _______ _______ _______ _____ _____    ______ ____
ROOT
ATOM      1  C   UNL     1       0.956   0.957   1.416  0.00  0.00    -0.005 A 
ATOM      2  C   UNL     1       2.261   0.509   1.430  0.00  0.00    +0.021 A 
ATOM      3  C   UNL     1       2.662  -0.436   2.371  0.00  0.00    +0.045 A 
ATOM      4  C   UNL     1       1.739  -0.928   3.300  0.00  0.00    +0.134 A 
ATOM      5  C   UNL     1       0.432  -0.473   3.279  0.00  0.00    +0.050 A 
ATOM      6  C   UNL     1       0.042   0.473   2.342  0.00  0.00    +0.128 A 
ENDROOT
BRANCH   3   7
ATOM      7  C   UNL     1       4.063  -0.920   2.388  0.00  0.00    +0.107 A 
ATOM      8  C   UNL     1       4.901  -1.203   1.220  0.00  0.00    +0.065 A 
ATOM      9  C   UNL     1       6.111  -1.623   1.700  0.00  0.00    +0.044 A 
ATOM     10  N   UNL     1       6.054  -1.610   3.043  0.00  0.00    -0.281 N 
ATOM     11  H   UNL     1       6.779  -1.863   3.636  0.00  0.00    +0.189 HD
ATOM     12  N   UNL     1       4.792  -1.171   3.454  0.00  0.00    -0.173 NA
ATOM     13  C   UNL     1       7.300  -2.029   0.868  0.00  0.00    +0.066 C 
BRANCH   8  14
ATOM     14  C   UNL     1       4.515  -1.063  -0.198  0.00  0.00    +0.145 A 
ATOM     15  N   UNL     1       3.365  -1.437  -0.707  0.00  0.00    -0.227 NA
ATOM     16  C   UNL     1       3.344  -1.162  -2.035  0.00  0.00    +0.090 A 
ATOM     17  C   UNL     1       2.389  -1.348  -3.039  0.00  0.00    +0.030 A 
ATOM     18  C   UNL     1       2.663  -0.960  -4.320  0.00  0.00    +0.002 A 
ATOM     19  C   UNL     1       3.884  -0.382  -4.638  0.00  0.00    +0.002 A 
ATOM     20  C   UNL     1       4.841  -0.189  -3.664  0.00  0.00    +0.028 A 
ATOM     21  C   UNL     1       4.580  -0.576  -2.357  0.00  0.00    +0.069 A 
ATOM     22  N   UNL     1       5.301  -0.520  -1.178  0.00  0.00    -0.327 N 
ATOM     23  C   UNL     1       6.653   0.018  -1.010  0.00  0.00    +0.151 C 
ENDBRANCH   8  14
ENDBRANCH   3   7
BRANCH   1  25
ATOM     24  C   UNL     1       0.620   3.380   1.007  0.00  0.00    +0.009 C 
ATOM     25  C   UNL     1       0.523   1.980   0.397  0.00  0.00    +0.035 C 
ENDBRANCH   1  25
BRANCH   6  26
ATOM     26  O   UNL     1      -1.240   0.922   2.328  0.00  0.00    -0.506 OA
ATOM     27  H   UNL     1      -1.832   0.404   1.766  0.00  0.00    +0.292 HD
ENDBRANCH   6  26
BRANCH   4  28
ATOM     28  O   UNL     1       2.124  -1.851   4.221  0.00  0.00    -0.506 OA
ATOM     29  H   UNL     1       2.453  -1.469   5.046  0.00  0.00    +0.292 HD
ENDBRANCH   4  28
BRANCH   5  30
ATOM     30  C   UNL     1      -0.565  -1.000   4.278  0.00  0.00    +0.126 C 
BRANCH  30  31
ATOM     31  N   UNL     1      -0.549  -0.154   5.479  0.00  0.00    -0.301 NA
ATOM     32  C   UNL     1       0.736  -0.265   6.184  0.00  0.00    +0.066 C 
ATOM     33  C   UNL     1       0.733   0.674   7.393  0.00  0.00    -0.064 C 
ATOM     34  N   UNL     1      -0.371   0.313   8.292  0.00  0.00    +0.379 N 
ATOM     35  C   UNL     1      -1.649   0.452   7.581  0.00  0.00    -0.064 C 
ATOM     36  C   UNL     1      -1.666  -0.489   6.374  0.00  0.00    +0.066 C 
ATOM     37  C   UNL     1      -0.361   1.203   9.460  0.00  0.00    -0.096 C 
ATOM     38  H   UNL     1      -0.258  -0.643   8.596  0.00  0.00    -0.082 HD
ENDBRANCH  30  31
ENDBRANCH   5  30
TORSDOF 7
