REMARK  Name = ZINC53141996
REMARK  7 active torsions:
REMARK  status: ('A' for Active; 'I' for Inactive)
REMARK    1  A    between atoms: C_1  and  C_2
REMARK    2  A    between atoms: C_5  and  N_8
REMARK    3  A    between atoms: C_11  and  C_15
REMARK    4  A    between atoms: N_17  and  C_18
REMARK    5  A    between atoms: C_18  and  C_19
REMARK    6  A    between atoms: C_19  and  C_21
REMARK    7  A    between atoms: C_19  and  N_26
REMARK                            x       y       z     vdW  Elec       q    Type
REMARK                         _______ _______ _______ _____ _____    ______ ____
ROOT
ATOM      1  C   UNL     1      -0.966  -7.341  -1.492  0.00  0.00    +0.225 C 
ATOM      2  O   UNL     1      -1.909  -7.828  -0.905  0.00  0.00    -0.275 OA
ATOM      3  N   UNL     1      -0.912  -7.390  -2.838  0.00  0.00    -0.316 N 
ATOM      4  H   UNL     1      -0.158  -7.001  -3.308  0.00  0.00    +0.149 HD
ENDROOT
BRANCH   1   8
ATOM      5  N   UNL     1       0.340  -4.500   0.120  0.00  0.00    -0.271 N 
ATOM      6  C   UNL     1       0.410  -5.388   1.286  0.00  0.00    +0.115 C 
ATOM      7  C   UNL     1      -0.140  -6.748   0.801  0.00  0.00    +0.041 C 
ATOM      8  C   UNL     1       0.145  -6.680  -0.717  0.00  0.00    +0.162 C 
ATOM      9  C   UNL     1       0.191  -5.199  -1.018  0.00  0.00    +0.232 C 
ATOM     10  O   UNL     1       0.108  -4.712  -2.126  0.00  0.00    -0.274 OA
BRANCH   5  15
ATOM     11  C   UNL     1       0.637   1.159   0.386  0.00  0.00    +0.044 C 
ATOM     12  C   UNL     1       0.558  -0.344   0.316  0.00  0.00    -0.050 A 
ATOM     13  C   UNL     1       0.515  -1.088   1.480  0.00  0.00    +0.005 A 
ATOM     14  C   UNL     1       0.442  -2.466   1.419  0.00  0.00    +0.024 A 
ATOM     15  C   UNL     1       0.413  -3.104   0.186  0.00  0.00    +0.036 A 
ATOM     16  C   UNL     1       0.456  -2.353  -0.982  0.00  0.00    +0.024 A 
ATOM     17  C   UNL     1       0.524  -0.976  -0.914  0.00  0.00    +0.005 A 
ENDBRANCH   5  15
ENDBRANCH   1   8
BRANCH   3  18
ATOM     18  C   UNL     1      -1.992  -8.033  -3.591  0.00  0.00    +0.094 C 
BRANCH  18  19
ATOM     19  C   UNL     1      -1.627  -8.066  -5.077  0.00  0.00    -0.013 C 
BRANCH  19  20
ATOM     20  N   UNL     1      -2.761  -8.594  -5.847  0.00  0.00    +0.386 N 
ATOM     21  C   UNL     1      -3.954  -7.730  -5.661  0.00  0.00    -0.078 C 
ATOM     22  C   UNL     1      -4.822  -8.051  -6.903  0.00  0.00    -0.020 C 
ATOM     23  C   UNL     1      -3.772  -8.225  -8.024  0.00  0.00    -0.020 C 
ATOM     24  C   UNL     1      -2.457  -8.555  -7.294  0.00  0.00    -0.078 C 
ATOM     25  H   UNL     1      -2.967  -9.540  -5.561  0.00  0.00    -0.081 HD
ENDBRANCH  19  20
BRANCH  19  26
ATOM     26  C   UNL     1      -0.426  -8.953  -5.279  0.00  0.00    -0.022 A 
ATOM     27  C   UNL     1       0.875  -8.606  -5.433  0.00  0.00    +0.009 A 
ATOM     28  C   UNL     1       1.819  -9.601  -5.606  0.00  0.00    +0.008 A 
ATOM     29  C   UNL     1       1.415 -10.895  -5.617  0.00  0.00    +0.045 A 
ATOM     30  S   UNL     1      -0.346 -10.734  -5.371  0.00  0.00    -0.103 S 
ENDBRANCH  19  26
ENDBRANCH  18  19
ENDBRANCH   3  18
TORSDOF 6
