REMARK  Name = ZINC22059751
REMARK  8 active torsions:
REMARK  status: ('A' for Active; 'I' for Inactive)
REMARK    1  A    between atoms: C_1  and  C_2
REMARK    2  A    between atoms: N_11  and  C_15
REMARK    3  A    between atoms: C_15  and  C_16
REMARK    4  A    between atoms: N_18  and  C_19
REMARK    5  A    between atoms: N_18  and  C_24
REMARK    6  A    between atoms: C_19  and  C_20
REMARK    7  A    between atoms: C_20  and  C_21
REMARK    8  A    between atoms: C_24  and  C_25
REMARK                            x       y       z     vdW  Elec       q    Type
REMARK                         _______ _______ _______ _____ _____    ______ ____
ROOT
ATOM      1  C   UNL     1       3.743  -2.063  -2.063  0.00  0.00    +0.234 C 
ATOM      2  O   UNL     1       3.060  -2.884  -1.489  0.00  0.00    -0.274 OA
ATOM      3  N   UNL     1       4.124  -0.938  -1.425  0.00  0.00    -0.295 N 
ENDROOT
BRANCH   1   4
ATOM      4  C   UNL     1       4.168  -2.301  -3.489  0.00  0.00    +0.213 C 
BRANCH   4  14
ATOM      5  C   UNL     1       1.280  -5.579  -2.603  0.00  0.00    +0.010 C 
ATOM      6  C   UNL     1       1.110  -5.799  -4.108  0.00  0.00    +0.018 C 
ATOM      7  C   UNL     1       1.018  -7.299  -4.397  0.00  0.00    +0.006 C 
ATOM      8  C   UNL     1       0.869  -7.519  -5.904  0.00  0.00    +0.000 C 
ATOM      9  C   UNL     1       2.088  -6.944  -6.627  0.00  0.00    +0.003 C 
ATOM     10  C   UNL     1       2.185  -5.442  -6.347  0.00  0.00    +0.035 C 
ATOM     11  C   UNL     1       2.307  -5.208  -4.846  0.00  0.00    +0.115 C 
ATOM     12  C   UNL     1       2.431  -3.731  -4.551  0.00  0.00    +0.247 C 
ATOM     13  O   UNL     1       1.623  -2.862  -4.800  0.00  0.00    -0.273 OA
ATOM     14  N   UNL     1       3.631  -3.583  -3.951  0.00  0.00    -0.215 N 
ATOM     15  C   UNL     1       4.272  -4.752  -3.837  0.00  0.00    +0.310 C 
ATOM     16  O   UNL     1       5.373  -4.873  -3.335  0.00  0.00    -0.252 OA
ATOM     17  N   UNL     1       3.560  -5.780  -4.336  0.00  0.00    -0.285 N 
ATOM     18  H   UNL     1       3.743  -6.862  -4.415  0.00  0.00    +0.151 HD
ENDBRANCH   4  14
ENDBRANCH   1   4
BRANCH   3  19
ATOM     19  C   UNL     1       4.949   0.054  -2.119  0.00  0.00    +0.117 C 
BRANCH  19  20
ATOM     20  C   UNL     1       6.428  -0.268  -1.895  0.00  0.00    +0.114 C 
BRANCH  20  21
ATOM     21  C   UNL     1       7.277   0.753  -2.608  0.00  0.00    +0.212 C 
ATOM     22  O   UNL     1       6.752   1.649  -3.234  0.00  0.00    -0.276 OA
ATOM     23  N   UNL     1       8.621   0.670  -2.551  0.00  0.00    -0.329 N 
ATOM     24  H   UNL     1       9.241   1.414  -3.072  0.00  0.00    +0.145 HD
ATOM     25  H   UNL     1       9.098  -0.143  -1.983  0.00  0.00    +0.145 HD
ENDBRANCH  20  21
ENDBRANCH  19  20
ENDBRANCH   3  19
BRANCH   3  26
ATOM     26  C   UNL     1       3.711  -0.707  -0.039  0.00  0.00    +0.143 C 
BRANCH  26  27
ATOM     27  C   UNL     1       2.396   0.029  -0.022  0.00  0.00    -0.030 A 
ATOM     28  C   UNL     1       1.208  -0.679  -0.014  0.00  0.00    +0.005 A 
ATOM     29  C   UNL     1       0.002  -0.004   0.002  0.00  0.00    +0.000 A 
ATOM     30  C   UNL     1      -0.017   1.378   0.010  0.00  0.00    +0.000 A 
ATOM     31  C   UNL     1       1.171   2.086   0.002  0.00  0.00    +0.000 A 
ATOM     32  C   UNL     1       2.377   1.411  -0.014  0.00  0.00    +0.005 A 
ENDBRANCH  26  27
ENDBRANCH   3  26
TORSDOF 7
