REMARK  Name = ZINC65829434
REMARK  7 active torsions:
REMARK  status: ('A' for Active; 'I' for Inactive)
REMARK    1  A    between atoms: C_1  and  C_2
REMARK    2  A    between atoms: C_2  and  C_3
REMARK    3  A    between atoms: C_2  and  N_15
REMARK    4  A    between atoms: C_6  and  N_9
REMARK    5  A    between atoms: N_18  and  C_19
REMARK    6  A    between atoms: C_22  and  C_25
REMARK    7  A    between atoms: C_25  and  C_27
REMARK                            x       y       z     vdW  Elec       q    Type
REMARK                         _______ _______ _______ _____ _____    ______ ____
ROOT
ATOM      1  N   UNL     1       0.528  -0.474  -0.939  0.00  0.00    -0.293 N 
ATOM      2  C   UNL     1       1.859  -0.613  -1.099  0.00  0.00    +0.304 C 
ATOM      3  O   UNL     1       2.616  -0.291  -0.203  0.00  0.00    -0.252 OA
ATOM      4  N   UNL     1       2.351  -1.109  -2.251  0.00  0.00    -0.269 N 
ATOM      5  H   UNL     1      -0.076  -0.731  -1.653  0.00  0.00    +0.151 HD
ATOM      6  H   UNL     1       1.755  -1.291  -2.994  0.00  0.00    +0.156 HD
ENDROOT
BRANCH   4   7
ATOM      7  C   UNL     1       3.716  -1.359  -2.375  0.00  0.00    +0.035 A 
ATOM      8  C   UNL     1       4.350  -1.157  -3.598  0.00  0.00    +0.024 A 
ATOM      9  C   UNL     1       5.688  -1.401  -3.724  0.00  0.00    +0.013 A 
ATOM     10  C   UNL     1       6.422  -1.855  -2.621  0.00  0.00    +0.017 A 
ATOM     11  C   UNL     1       5.780  -2.057  -1.393  0.00  0.00    +0.013 A 
ATOM     12  C   UNL     1       4.442  -1.806  -1.274  0.00  0.00    +0.024 A 
BRANCH  10  13
ATOM     13  C   UNL     1       7.861  -2.119  -2.751  0.00  0.00    +0.160 C 
ATOM     14  O   UNL     1       8.415  -1.944  -3.816  0.00  0.00    -0.292 OA
ATOM     15  C   UNL     1       8.648  -2.608  -1.563  0.00  0.00    +0.091 C 
ENDBRANCH  10  13
ENDBRANCH   4   7
BRANCH   1  17
ATOM     16  C   UNL     1      -0.003   1.594   0.254  0.00  0.00    +0.033 C 
ATOM     17  C   UNL     1      -0.007   0.065   0.314  0.00  0.00    +0.102 C 
BRANCH  17  18
ATOM     18  C   UNL     1      -1.418  -0.426   0.510  0.00  0.00    -0.027 A 
ATOM     19  C   UNL     1      -2.278  -0.504  -0.570  0.00  0.00    +0.007 A 
ATOM     20  C   UNL     1      -3.572  -0.954  -0.394  0.00  0.00    +0.024 A 
ATOM     21  C   UNL     1      -4.009  -1.327   0.870  0.00  0.00    +0.036 A 
ATOM     22  C   UNL     1      -3.143  -1.248   1.953  0.00  0.00    +0.024 A 
ATOM     23  C   UNL     1      -1.849  -0.802   1.769  0.00  0.00    +0.007 A 
BRANCH  21  24
ATOM     24  N   UNL     1      -5.320  -1.783   1.052  0.00  0.00    -0.271 N 
ATOM     25  C   UNL     1      -5.848  -2.301   2.320  0.00  0.00    +0.114 C 
ATOM     26  C   UNL     1      -7.385  -2.262   2.172  0.00  0.00    +0.029 C 
ATOM     27  C   UNL     1      -7.557  -2.347   0.638  0.00  0.00    +0.098 C 
ATOM     28  C   UNL     1      -6.258  -1.797   0.090  0.00  0.00    +0.220 C 
ATOM     29  O   UNL     1      -6.088  -1.426  -1.052  0.00  0.00    -0.275 OA
ENDBRANCH  21  24
ENDBRANCH  17  18
ENDBRANCH   1  17
TORSDOF 5
