REMARK  Name = ZINC54666675
REMARK  9 active torsions:
REMARK  status: ('A' for Active; 'I' for Inactive)
REMARK    1  A    between atoms: C_1  and  C_2
REMARK    2  A    between atoms: C_2  and  C_3
REMARK    3  A    between atoms: C_2  and  C_4
REMARK    4  A    between atoms: C_4  and  C_6
REMARK    5  A    between atoms: C_4  and  N_13
REMARK    6  A    between atoms: N_13  and  C_14
REMARK    7  A    between atoms: C_14  and  C_15
REMARK    8  A    between atoms: C_24  and  N_26
REMARK    9  A    between atoms: C_27  and  C_29
REMARK                            x       y       z     vdW  Elec       q    Type
REMARK                         _______ _______ _______ _____ _____    ______ ____
ROOT
ATOM      1  C   UNL     1      -0.074  -3.733   1.473  0.00  0.00    -0.047 A 
ATOM      2  C   UNL     1       1.168  -4.261   1.323  0.00  0.00    +0.094 A 
ATOM      3  C   UNL     1       1.400  -5.612   1.654  0.00  0.00    +0.337 A 
ATOM      4  O   UNL     1       2.519  -6.073   1.515  0.00  0.00    -0.245 OA
ATOM      5  O   UNL     1       0.420  -6.403   2.118  0.00  0.00    -0.422 OA
ATOM      6  C   UNL     1      -0.837  -5.940   2.290  0.00  0.00    +0.141 A 
ATOM      7  C   UNL     1      -1.138  -4.600   1.984  0.00  0.00    +0.019 A 
ATOM      8  C   UNL     1      -2.438  -4.114   2.166  0.00  0.00    +0.013 A 
ATOM      9  C   UNL     1      -3.411  -4.943   2.645  0.00  0.00    +0.024 A 
ATOM     10  C   UNL     1      -3.118  -6.271   2.954  0.00  0.00    +0.037 A 
ATOM     11  C   UNL     1      -1.837  -6.771   2.771  0.00  0.00    +0.070 A 
ENDROOT
BRANCH  10  12
ATOM     12  N   UNL     1      -4.124  -7.105   3.443  0.00  0.00    -0.286 N 
ATOM     13  C   UNL     1      -4.149  -8.407   3.092  0.00  0.00    +0.214 C 
ATOM     14  O   UNL     1      -3.250  -8.872   2.424  0.00  0.00    -0.276 OA
ATOM     15  C   UNL     1      -5.293  -9.283   3.531  0.00  0.00    +0.109 C 
ATOM     16  H   UNL     1      -4.804  -6.749   4.035  0.00  0.00    +0.155 HD
ENDBRANCH  10  12
BRANCH   1  17
ATOM     17  C   UNL     1      -0.349  -2.292   1.127  0.00  0.00    -0.045 C 
BRANCH  17  18
ATOM     18  N   UNL     1      -0.873  -2.208  -0.243  0.00  0.00    +0.386 N 
ATOM     19  H   UNL     1      -1.761  -2.685  -0.293  0.00  0.00    -0.085 HD
ATOM     20  H   UNL     1      -0.222  -2.643  -0.879  0.00  0.00    -0.085 HD
BRANCH  18  21
ATOM     21  C   UNL     1      -1.053  -0.798  -0.613  0.00  0.00    -0.038 C 
BRANCH  21  22
ATOM     22  C   UNL     1      -2.120  -0.183   0.255  0.00  0.00    -0.061 A 
ATOM     23  C   UNL     1      -3.253  -0.908   0.575  0.00  0.00    +0.003 A 
ATOM     24  C   UNL     1      -4.233  -0.344   1.371  0.00  0.00    +0.020 A 
ATOM     25  C   UNL     1      -4.079   0.946   1.847  0.00  0.00    +0.041 A 
ATOM     26  C   UNL     1      -2.945   1.671   1.526  0.00  0.00    +0.020 A 
ATOM     27  C   UNL     1      -1.964   1.104   0.735  0.00  0.00    +0.003 A 
ATOM     28 CL   UNL     1      -5.309   1.655   2.846  0.00  0.00    -0.084 Cl
ENDBRANCH  21  22
BRANCH  21  30
ATOM     29  C   UNL     1      -1.706   0.759  -2.454  0.00  0.00    +0.006 C 
ATOM     30  C   UNL     1      -1.473  -0.706  -2.081  0.00  0.00    -0.027 C 
ATOM     31  C   UNL     1      -0.368  -1.288  -2.966  0.00  0.00    +0.006 C 
ENDBRANCH  21  30
ENDBRANCH  18  21
ENDBRANCH  17  18
ENDBRANCH   1  17
TORSDOF 6
