REMARK  Name = ZINC12414565
REMARK  5 active torsions:
REMARK  status: ('A' for Active; 'I' for Inactive)
REMARK    1  A    between atoms: C_1  and  C_2
REMARK    2  A    between atoms: C_9  and  C_15
REMARK    3  A    between atoms: N_17  and  C_18
REMARK    4  A    between atoms: C_21  and  O_24
REMARK    5  A    between atoms: O_24  and  C_25
REMARK                            x       y       z     vdW  Elec       q    Type
REMARK                         _______ _______ _______ _____ _____    ______ ____
ROOT
ATOM      1  C   UNL     1      -4.522   4.720   2.982  0.00  0.00    +0.254 C 
ATOM      2  O   UNL     1      -3.548   4.992   2.312  0.00  0.00    -0.272 OA
ATOM      3  N   UNL     1      -5.297   5.706   3.477  0.00  0.00    -0.283 N 
ATOM      4  H   UNL     1      -6.110   5.489   3.958  0.00  0.00    +0.155 HD
ENDROOT
BRANCH   1  13
ATOM      5  C   UNL     1       0.029   1.069   0.129  0.00  0.00    +0.044 C 
ATOM      6  C   UNL     1      -0.700   1.558   1.354  0.00  0.00    -0.049 A 
ATOM      7  C   UNL     1      -0.002   1.787   2.526  0.00  0.00    +0.005 A 
ATOM      8  C   UNL     1      -0.670   2.242   3.648  0.00  0.00    +0.030 A 
ATOM      9  C   UNL     1      -2.030   2.465   3.598  0.00  0.00    +0.126 A 
ATOM     10  C   UNL     1      -2.743   2.226   2.432  0.00  0.00    +0.056 A 
ATOM     11  C   UNL     1      -2.060   1.780   1.301  0.00  0.00    +0.028 A 
ATOM     12  N   UNL     1      -4.121   2.412   2.354  0.00  0.00    -0.319 N 
ATOM     13  C   UNL     1      -4.866   3.280   3.263  0.00  0.00    +0.247 C 
ATOM     14  N   UNL     1      -4.494   2.943   4.652  0.00  0.00    -0.161 NA
ATOM     15  S   UNL     1      -2.874   3.079   5.025  0.00  0.00    +0.062 S 
ATOM     16  O   UNL     1      -2.614   2.170   6.085  0.00  0.00    -0.153 OA
ATOM     17  O   UNL     1      -2.584   4.468   5.113  0.00  0.00    -0.153 OA
ATOM     18  H   UNL     1      -4.610   1.942   1.661  0.00  0.00    +0.148 HD
ATOM     19  H   UNL     1      -5.151   2.659   5.306  0.00  0.00    +0.151 HD
ENDBRANCH   1  13
BRANCH   3  20
ATOM     20  C   UNL     1      -4.928   7.045   3.294  0.00  0.00    +0.034 A 
ATOM     21  C   UNL     1      -5.195   7.981   4.284  0.00  0.00    +0.027 A 
ATOM     22  C   UNL     1      -4.825   9.299   4.106  0.00  0.00    +0.048 A 
ATOM     23  C   UNL     1      -4.197   9.691   2.933  0.00  0.00    +0.129 A 
ATOM     24  C   UNL     1      -3.935   8.758   1.940  0.00  0.00    +0.048 A 
ATOM     25  C   UNL     1      -4.299   7.438   2.120  0.00  0.00    +0.027 A 
BRANCH  23  26
ATOM     26  O   UNL     1      -3.839  10.991   2.756  0.00  0.00    -0.456 OA
BRANCH  26  27
ATOM     27  C   UNL     1      -2.747  11.448   3.423  0.00  0.00    +0.128 A 
ATOM     28  C   UNL     1      -2.097  10.629   4.335  0.00  0.00    +0.046 A 
ATOM     29  C   UNL     1      -0.984  11.095   5.009  0.00  0.00    +0.004 A 
ATOM     30  C   UNL     1      -0.525  12.379   4.782  0.00  0.00    +0.000 A 
ATOM     31  C   UNL     1      -1.175  13.199   3.878  0.00  0.00    +0.004 A 
ATOM     32  C   UNL     1      -2.284  12.737   3.198  0.00  0.00    +0.046 A 
ENDBRANCH  26  27
ENDBRANCH  23  26
ENDBRANCH   3  20
TORSDOF 4
