REMARK  Name = ZINC67163765
REMARK  10 active torsions:
REMARK  status: ('A' for Active; 'I' for Inactive)
REMARK    1  A    between atoms: C_1  and  C_2
REMARK    2  A    between atoms: C_2  and  C_3
REMARK    3  A    between atoms: C_2  and  C_4
REMARK    4  A    between atoms: C_2  and  O_5
REMARK    5  A    between atoms: O_5  and  C_6
REMARK    6  A    between atoms: N_8  and  C_9
REMARK    7  A    between atoms: C_9  and  C_10
REMARK    8  A    between atoms: N_12  and  C_13
REMARK    9  A    between atoms: C_13  and  C_14
REMARK   10  A    between atoms: C_14  and  N_19
REMARK                            x       y       z     vdW  Elec       q    Type
REMARK                         _______ _______ _______ _____ _____    ______ ____
ROOT
ATOM      1  C   UNL     1       4.545  -0.981  -3.987  0.00  0.00    +0.230 C 
ATOM      2  O   UNL     1       3.905  -1.686  -4.737  0.00  0.00    -0.274 OA
ATOM      3  N   UNL     1       5.803  -0.618  -4.311  0.00  0.00    -0.315 N 
ATOM      4  H   UNL     1       6.315  -0.054  -3.711  0.00  0.00    +0.149 HD
ENDROOT
BRANCH   1   5
ATOM      5  C   UNL     1       3.936  -0.509  -2.692  0.00  0.00    +0.203 C 
BRANCH   5   8
ATOM      6  C   UNL     1       1.830  -0.741  -1.489  0.00  0.00    +0.401 C 
ATOM      7  O   UNL     1       2.289  -0.041  -0.609  0.00  0.00    -0.226 OA
ATOM      8  N   UNL     1       2.573  -1.035  -2.574  0.00  0.00    -0.273 N 
ATOM      9  H   UNL     1       2.207  -1.594  -3.276  0.00  0.00    +0.153 HD
BRANCH   6  10
ATOM     10  O   UNL     1       0.578  -1.224  -1.380  0.00  0.00    -0.445 OA
BRANCH  10  12
ATOM     11  C   UNL     1      -0.291   0.649  -0.124  0.00  0.00    +0.055 C 
ATOM     12  C   UNL     1      -0.153  -0.873  -0.204  0.00  0.00    +0.107 C 
ATOM     13  C   UNL     1       0.592  -1.383   1.031  0.00  0.00    +0.055 C 
ATOM     14  C   UNL     1      -1.544  -1.509  -0.258  0.00  0.00    +0.055 C 
ENDBRANCH  10  12
ENDBRANCH   6  10
ENDBRANCH   5   8
ENDBRANCH   1   5
BRANCH   3  15
ATOM     15  C   UNL     1       6.395  -1.076  -5.570  0.00  0.00    +0.092 C 
BRANCH  15  16
ATOM     16  C   UNL     1       7.818  -0.527  -5.694  0.00  0.00    -0.050 C 
ATOM     17  C   UNL     1       8.478  -1.057  -6.983  0.00  0.00    -0.010 C 
ATOM     18  C   UNL     1       8.244   0.070  -8.020  0.00  0.00    -0.001 C 
ATOM     19  C   UNL     1       8.423   1.355  -7.174  0.00  0.00    -0.001 C 
ATOM     20  C   UNL     1       7.783   1.006  -5.815  0.00  0.00    -0.010 C 
BRANCH  16  21
ATOM     21  N   UNL     1       8.612  -0.921  -4.522  0.00  0.00    +0.386 N 
ATOM     22  C   UNL     1       9.959  -0.361  -4.646  0.00  0.00    -0.067 C 
ATOM     23  C   UNL     1      10.680  -0.435  -3.294  0.00  0.00    +0.050 C 
ATOM     24  S   UNL     1      10.836  -2.187  -2.826  0.00  0.00    -0.164 S 
ATOM     25  C   UNL     1       9.142  -2.812  -3.051  0.00  0.00    +0.050 C 
ATOM     26  C   UNL     1       8.652  -2.383  -4.439  0.00  0.00    -0.067 C 
ATOM     27  H   UNL     1       8.177  -0.554  -3.689  0.00  0.00    -0.081 HD
ENDBRANCH  16  21
ENDBRANCH  15  16
ENDBRANCH   3  15
TORSDOF 7
