REMARK  Name = ZINC31165501
REMARK  12 active torsions:
REMARK  status: ('A' for Active; 'I' for Inactive)
REMARK    1  A    between atoms: C_3  and  O_18
REMARK    2  A    between atoms: C_6  and  C_7
REMARK    3  A    between atoms: C_7  and  O_8
REMARK    4  A    between atoms: O_8  and  C_9
REMARK    5  A    between atoms: C_9  and  C_11
REMARK    6  A    between atoms: C_14  and  O_17
REMARK    7  A    between atoms: O_18  and  C_19
REMARK    8  A    between atoms: C_21  and  O_34
REMARK    9  A    between atoms: C_23  and  O_33
REMARK   10  A    between atoms: C_25  and  O_32
REMARK   11  A    between atoms: C_27  and  C_30
REMARK   12  A    between atoms: C_30  and  O_31
REMARK                            x       y       z     vdW  Elec       q    Type
REMARK                         _______ _______ _______ _____ _____    ______ ____
ROOT
ATOM      1  C   UNL     1      -0.359   2.779   1.818  0.00  0.00    +0.010 A 
ATOM      2  C   UNL     1      -1.008   3.230   2.951  0.00  0.00    +0.046 A 
ATOM      3  C   UNL     1      -2.013   2.464   3.524  0.00  0.00    +0.124 A 
ATOM      4  C   UNL     1      -2.368   1.250   2.954  0.00  0.00    +0.046 A 
ATOM      5  C   UNL     1      -1.720   0.807   1.817  0.00  0.00    +0.010 A 
ATOM      6  C   UNL     1      -0.718   1.572   1.248  0.00  0.00    -0.010 A 
ENDROOT
BRANCH   6   7
ATOM      7  C   UNL     1      -0.013   1.086   0.008  0.00  0.00    +0.268 C 
BRANCH   7   8
ATOM      8  O   UNL     1      -0.715   1.567  -1.168  0.00  0.00    -0.456 OA
BRANCH   8   9
ATOM      9  C   UNL     1      -0.209   1.218  -2.368  0.00  0.00    +0.340 C 
ATOM     10  O   UNL     1       0.791   0.531  -2.429  0.00  0.00    -0.245 OA
BRANCH   9  11
ATOM     11  C   UNL     1      -0.870   1.671  -3.606  0.00  0.00    +0.059 A 
ATOM     12  C   UNL     1      -2.024   2.456  -3.538  0.00  0.00    +0.018 A 
ATOM     13  C   UNL     1      -2.635   2.881  -4.696  0.00  0.00    +0.046 A 
ATOM     14  C   UNL     1      -2.111   2.521  -5.933  0.00  0.00    +0.117 A 
ATOM     15  C   UNL     1      -0.967   1.734  -6.005  0.00  0.00    +0.046 A 
ATOM     16  C   UNL     1      -0.347   1.310  -4.851  0.00  0.00    +0.018 A 
BRANCH  14  17
ATOM     17  O   UNL     1      -2.719   2.938  -7.072  0.00  0.00    -0.507 OA
ATOM     18  H   UNL     1      -2.306   2.653  -8.051  0.00  0.00    +0.292 HD
ENDBRANCH  14  17
ENDBRANCH   9  11
ENDBRANCH   8   9
ENDBRANCH   7   8
ENDBRANCH   6   7
BRANCH   3  19
ATOM     19  O   UNL     1      -2.649   2.902   4.642  0.00  0.00    -0.461 OA
BRANCH  19  20
ATOM     20  C   UNL     1      -2.232   4.161   5.174  0.00  0.00    +0.339 C 
ATOM     21  C   UNL     1      -3.138   4.545   6.348  0.00  0.00    +0.214 C 
ATOM     22  C   UNL     1      -2.647   5.864   6.951  0.00  0.00    +0.180 C 
ATOM     23  C   UNL     1      -1.183   5.707   7.373  0.00  0.00    +0.177 C 
ATOM     24  C   UNL     1      -0.353   5.279   6.160  0.00  0.00    +0.179 C 
ATOM     25  O   UNL     1      -0.881   4.062   5.629  0.00  0.00    -0.331 OA
BRANCH  23  26
ATOM     26  O   UNL     1      -0.693   6.954   7.871  0.00  0.00    -0.386 OA
ATOM     27  H   UNL     1       0.346   7.035   8.224  0.00  0.00    +0.210 HD
ENDBRANCH  23  26
BRANCH  22  28
ATOM     28  O   UNL     1      -3.441   6.192   8.093  0.00  0.00    -0.386 OA
ATOM     29  H   UNL     1      -3.235   7.112   8.660  0.00  0.00    +0.210 HD
ENDBRANCH  22  28
BRANCH  21  30
ATOM     30  O   UNL     1      -4.480   4.701   5.884  0.00  0.00    -0.383 OA
ATOM     31  H   UNL     1      -5.277   4.977   6.590  0.00  0.00    +0.210 HD
ENDBRANCH  21  30
BRANCH  24  32
ATOM     32  C   UNL     1       1.100   5.062   6.587  0.00  0.00    +0.190 C 
BRANCH  32  33
ATOM     33  O   UNL     1       1.897   4.775   5.436  0.00  0.00    -0.392 OA
ATOM     34  H   UNL     1       2.975   4.588   5.546  0.00  0.00    +0.210 HD
ENDBRANCH  32  33
ENDBRANCH  24  32
ENDBRANCH  19  20
ENDBRANCH   3  19
TORSDOF 12
