REMARK  Name = ZINC40976482
REMARK  6 active torsions:
REMARK  status: ('A' for Active; 'I' for Inactive)
REMARK    1  A    between atoms: C_1  and  C_2
REMARK    2  A    between atoms: C_2  and  C_3
REMARK    3  A    between atoms: C_2  and  C_4
REMARK    4  A    between atoms: C_2  and  C_5
REMARK    5  A    between atoms: C_11  and  N_18
REMARK    6  A    between atoms: N_18  and  C_19
REMARK                            x       y       z     vdW  Elec       q    Type
REMARK                         _______ _______ _______ _____ _____    ______ ____
ROOT
ATOM      1  C   UNL     1       0.684  -0.606  -1.328  0.00  0.00    -0.042 A 
ATOM      2  C   UNL     1       0.066  -1.435  -2.246  0.00  0.00    +0.005 A 
ATOM      3  C   UNL     1       0.770  -1.856  -3.355  0.00  0.00    +0.017 A 
ATOM      4  C   UNL     1       2.087  -1.451  -3.550  0.00  0.00    +0.040 A 
ATOM      5  C   UNL     1       2.703  -0.635  -2.656  0.00  0.00    -0.045 A 
ATOM      6  C   UNL     1       1.987  -0.211  -1.528  0.00  0.00    +0.007 A 
ATOM      7  C   UNL     1       4.116  -0.106  -2.730  0.00  0.00    -0.040 C 
ATOM      8  C   UNL     1       5.141  -1.222  -2.627  0.00  0.00    -0.010 C 
ATOM      9  C   UNL     1       5.401  -1.952  -3.920  0.00  0.00    +0.012 C 
ATOM     10  C   UNL     1       4.336  -2.939  -4.350  0.00  0.00    +0.109 C 
ATOM     11  S   UNL     1       2.896  -2.052  -5.006  0.00  0.00    +0.054 S 
ATOM     12  O   UNL     1       3.278  -0.914  -5.742  0.00  0.00    -0.252 OA
ENDROOT
BRANCH   1  14
ATOM     13  C   UNL     1      -0.149   1.389  -0.115  0.00  0.00    +0.015 C 
ATOM     14  C   UNL     1      -0.072  -0.139  -0.112  0.00  0.00    -0.013 C 
ATOM     15  C   UNL     1       0.651  -0.611   1.151  0.00  0.00    +0.015 C 
ATOM     16  C   UNL     1      -1.487  -0.721  -0.136  0.00  0.00    +0.015 C 
ENDBRANCH   1  14
BRANCH   7  17
ATOM     17  N   UNL     1       4.325   0.755  -3.889  0.00  0.00    +0.382 N 
ATOM     18  C   UNL     1       5.656   1.372  -3.807  0.00  0.00    -0.100 C 
ATOM     19  H   UNL     1       4.261   0.205  -4.733  0.00  0.00    -0.085 HD
ATOM     20  H   UNL     1       3.620   1.477  -3.903  0.00  0.00    -0.085 HD
ENDBRANCH   7  17
TORSDOF 2
