REMARK  Name = ZINC58156433
REMARK  7 active torsions:
REMARK  status: ('A' for Active; 'I' for Inactive)
REMARK    1  A    between atoms: C_1  and  C_2
REMARK    2  A    between atoms: C_5  and  S_8
REMARK    3  A    between atoms: S_8  and  N_11
REMARK    4  A    between atoms: N_15  and  C_18
REMARK    5  A    between atoms: C_18  and  C_19
REMARK    6  A    between atoms: C_19  and  C_21
REMARK    7  A    between atoms: C_19  and  O_30
REMARK                            x       y       z     vdW  Elec       q    Type
REMARK                         _______ _______ _______ _____ _____    ______ ____
ROOT
ATOM      1  N   UNL     1       1.570  -4.743  -0.274  0.00  0.00    -0.178 NA
ATOM      2  C   UNL     1       2.287  -4.911  -1.554  0.00  0.00    +0.107 C 
ATOM      3  C   UNL     1       3.744  -4.428  -1.440  0.00  0.00    -0.002 C 
ATOM      4  C   UNL     1       3.793  -3.166  -0.607  0.00  0.00    -0.077 C 
ATOM      5  N   UNL     1       4.053  -3.517   0.787  0.00  0.00    +0.382 N 
ATOM      6  C   UNL     1       2.900  -3.797   1.555  0.00  0.00    -0.061 C 
ATOM      7  C   UNL     1       2.183  -5.045   1.004  0.00  0.00    +0.091 C 
ATOM      8  H   UNL     1       4.652  -4.329   0.804  0.00  0.00    -0.082 HD
ENDROOT
BRANCH   1   9
ATOM      9  S   UNL     1       0.012  -4.183  -0.299  0.00  0.00    +0.061 S 
ATOM     10  O   UNL     1      -0.599  -4.628   0.905  0.00  0.00    -0.153 OA
ATOM     11  O   UNL     1      -0.513  -4.499  -1.581  0.00  0.00    -0.153 OA
BRANCH   9  16
ATOM     12  C   UNL     1       0.270   1.836   0.024  0.00  0.00    +0.044 C 
ATOM     13  C   UNL     1       0.205   0.333  -0.057  0.00  0.00    -0.050 A 
ATOM     14  C   UNL     1       0.218  -0.294  -1.288  0.00  0.00    +0.005 A 
ATOM     15  C   UNL     1       0.160  -1.674  -1.362  0.00  0.00    +0.029 A 
ATOM     16  C   UNL     1       0.088  -2.425  -0.204  0.00  0.00    +0.105 A 
ATOM     17  C   UNL     1       0.076  -1.798   1.027  0.00  0.00    +0.029 A 
ATOM     18  C   UNL     1       0.139  -0.419   1.101  0.00  0.00    +0.005 A 
ENDBRANCH   9  16
ENDBRANCH   1   9
BRANCH   5  19
ATOM     19  C   UNL     1       4.772  -2.404   1.419  0.00  0.00    -0.042 C 
BRANCH  19  20
ATOM     20  C   UNL     1       6.162  -2.273   0.794  0.00  0.00    +0.128 C 
BRANCH  20  21
ATOM     21  C   UNL     1       6.902  -1.134   1.447  0.00  0.00    -0.017 A 
ATOM     22  C   UNL     1       7.601  -1.349   2.620  0.00  0.00    +0.010 A 
ATOM     23  C   UNL     1       8.282  -0.308   3.223  0.00  0.00    +0.050 A 
ATOM     24  C   UNL     1       8.265   0.954   2.652  0.00  0.00    +0.166 A 
ATOM     25  C   UNL     1       7.561   1.171   1.470  0.00  0.00    +0.167 A 
ATOM     26  C   UNL     1       6.885   0.121   0.868  0.00  0.00    +0.055 A 
ATOM     27  O   UNL     1       7.696   2.482   1.115  0.00  0.00    -0.453 OA
ATOM     28  C   UNL     1       8.149   3.157   2.303  0.00  0.00    +0.466 C 
ATOM     29  O   UNL     1       8.842   2.130   3.037  0.00  0.00    -0.453 OA
ENDBRANCH  20  21
BRANCH  20  30
ATOM     30  O   UNL     1       6.888  -3.488   0.989  0.00  0.00    -0.389 OA
ATOM     31  H   UNL     1       7.015  -3.725   1.918  0.00  0.00    +0.210 HD
ENDBRANCH  20  30
ENDBRANCH  19  20
ENDBRANCH   5  19
TORSDOF 6
