REMARK  Name = ZINC14607536
REMARK  8 active torsions:
REMARK  status: ('A' for Active; 'I' for Inactive)
REMARK    1  A    between atoms: C_1  and  C_2
REMARK    2  A    between atoms: C_12  and  C_14
REMARK    3  A    between atoms: C_17  and  S_20
REMARK    4  A    between atoms: S_20  and  C_21
REMARK    5  A    between atoms: N_22  and  C_23
REMARK    6  A    between atoms: C_23  and  C_24
REMARK    7  A    between atoms: C_27  and  O_30
REMARK    8  A    between atoms: O_30  and  C_31
REMARK                            x       y       z     vdW  Elec       q    Type
REMARK                         _______ _______ _______ _____ _____    ______ ____
ROOT
ATOM      1  C   UNL     1       0.681   1.469   0.405  0.00  0.00    +0.066 C 
ATOM      2  C   UNL     1       0.516  -0.025   0.294  0.00  0.00    +0.047 C 
ATOM      3  C   UNL     1      -0.737  -0.568   0.316  0.00  0.00    +0.091 C 
ATOM      4  C   UNL     1      -0.871  -1.964   0.211  0.00  0.00    +0.249 C 
ATOM      5  O   UNL     1      -1.972  -2.491   0.226  0.00  0.00    -0.270 OA
ATOM      6  N   UNL     1       0.266  -2.717   0.091  0.00  0.00    -0.211 N 
ATOM      7  C   UNL     1       1.496  -2.116   0.075  0.00  0.00    +0.229 C 
ATOM      8  N   UNL     1       1.589  -0.793   0.171  0.00  0.00    -0.219 NA
ATOM      9  N   UNL     1       2.610  -2.849  -0.042  0.00  0.00    -0.183 NA
ATOM     10  C   UNL     1       2.621  -4.158  -0.147  0.00  0.00    +0.194 C 
ATOM     11  N   UNL     1       1.473  -4.898  -0.147  0.00  0.00    -0.335 N 
ATOM     12  C   UNL     1       0.191  -4.180  -0.022  0.00  0.00    +0.211 C 
ATOM     13  N   UNL     1       3.821  -4.800  -0.261  0.00  0.00    -0.311 N 
ATOM     14  H   UNL     1       3.848  -5.767  -0.340  0.00  0.00    +0.149 HD
ATOM     15  H   UNL     1       1.500  -5.864  -0.226  0.00  0.00    +0.164 HD
ENDROOT
BRANCH  12  16
ATOM     16  C   UNL     1      -0.523  -4.707   1.196  0.00  0.00    -0.007 A 
ATOM     17  C   UNL     1      -0.045  -4.406   2.459  0.00  0.00    +0.008 A 
ATOM     18  C   UNL     1      -0.696  -4.887   3.578  0.00  0.00    +0.015 A 
ATOM     19  C   UNL     1      -1.832  -5.674   3.434  0.00  0.00    +0.008 A 
ATOM     20  C   UNL     1      -2.309  -5.973   2.163  0.00  0.00    +0.015 A 
ATOM     21  C   UNL     1      -1.657  -5.485   1.049  0.00  0.00    +0.008 A 
BRANCH  19  22
ATOM     22  S   UNL     1      -2.666  -6.290   4.859  0.00  0.00    -0.129 S 
ATOM     23  C   UNL     1      -4.054  -7.239   4.179  0.00  0.00    +0.090 C 
ENDBRANCH  19  22
ENDBRANCH  12  16
BRANCH  13  24
ATOM     24  C   UNL     1       5.067  -4.030  -0.264  0.00  0.00    +0.139 C 
BRANCH  24  25
ATOM     25  C   UNL     1       6.237  -4.969  -0.400  0.00  0.00    -0.030 A 
ATOM     26  C   UNL     1       6.832  -5.499   0.730  0.00  0.00    +0.009 A 
ATOM     27  C   UNL     1       7.906  -6.360   0.608  0.00  0.00    +0.046 A 
ATOM     28  C   UNL     1       8.387  -6.693  -0.650  0.00  0.00    +0.120 A 
ATOM     29  C   UNL     1       7.788  -6.160  -1.783  0.00  0.00    +0.046 A 
ATOM     30  C   UNL     1       6.711  -5.304  -1.655  0.00  0.00    +0.009 A 
BRANCH  28  31
ATOM     31  O   UNL     1       9.443  -7.539  -0.773  0.00  0.00    -0.495 OA
ATOM     32  C   UNL     1       9.885  -7.837  -2.099  0.00  0.00    +0.277 C 
ENDBRANCH  28  31
ENDBRANCH  24  25
ENDBRANCH  13  24
TORSDOF 5
