REMARK  Name = ZINC35671566
REMARK  8 active torsions:
REMARK  status: ('A' for Active; 'I' for Inactive)
REMARK    1  A    between atoms: C_1  and  C_2
REMARK    2  A    between atoms: C_2  and  C_3
REMARK    3  A    between atoms: C_2  and  C_4
REMARK    4  A    between atoms: C_2  and  C_5
REMARK    5  A    between atoms: C_8  and  C_11
REMARK    6  A    between atoms: C_11  and  C_13
REMARK    7  A    between atoms: C_11  and  N_29
REMARK    8  A    between atoms: C_13  and  N_14
REMARK                            x       y       z     vdW  Elec       q    Type
REMARK                         _______ _______ _______ _____ _____    ______ ____
ROOT
ATOM      1  C   UNL     1       2.713  -1.877  -4.772  0.00  0.00    -0.017 C 
ENDROOT
BRANCH   1   2
ATOM      2  N   UNL     1       4.085  -2.140  -4.319  0.00  0.00    +0.385 N 
ATOM      3  C   UNL     1       4.939  -2.414  -5.481  0.00  0.00    -0.078 C 
ATOM      4  C   UNL     1       6.386  -2.608  -5.021  0.00  0.00    -0.019 C 
ATOM      5  C   UNL     1       6.452  -3.789  -4.048  0.00  0.00    -0.004 C 
ATOM      6  C   UNL     1       5.501  -3.526  -2.876  0.00  0.00    -0.019 C 
ATOM      7  C   UNL     1       4.087  -3.297  -3.416  0.00  0.00    -0.078 C 
ATOM      8  H   UNL     1       4.437  -1.332  -3.828  0.00  0.00    -0.081 HD
ENDBRANCH   1   2
BRANCH   1  12
ATOM      9  C   UNL     1       0.195  -1.226  -1.383  0.00  0.00    -0.042 A 
ATOM     10  C   UNL     1      -0.270  -1.959  -2.459  0.00  0.00    +0.004 A 
ATOM     11  C   UNL     1       0.545  -2.170  -3.556  0.00  0.00    +0.002 A 
ATOM     12  C   UNL     1       1.824  -1.647  -3.577  0.00  0.00    -0.059 A 
ATOM     13  C   UNL     1       2.289  -0.913  -2.502  0.00  0.00    +0.002 A 
ATOM     14  C   UNL     1       1.472  -0.699  -1.407  0.00  0.00    +0.004 A 
BRANCH   9  16
ATOM     15  C   UNL     1      -0.910   0.506   0.005  0.00  0.00    +0.015 C 
ATOM     16  C   UNL     1      -0.694  -0.997  -0.188  0.00  0.00    -0.013 C 
ATOM     17  C   UNL     1      -0.029  -1.581   1.060  0.00  0.00    +0.015 C 
ATOM     18  C   UNL     1      -2.042  -1.681  -0.416  0.00  0.00    +0.015 C 
ENDBRANCH   9  16
ENDBRANCH   1  12
BRANCH   1  19
ATOM     19  C   UNL     1       2.700  -0.635  -5.664  0.00  0.00    +0.115 C 
BRANCH  19  20
ATOM     20  N   UNL     1       1.347  -0.420  -6.183  0.00  0.00    -0.300 N 
ATOM     21  C   UNL     1       0.923  -1.085  -7.291  0.00  0.00    +0.202 A 
ATOM     22  N   UNL     1      -0.259  -0.937  -7.797  0.00  0.00    -0.235 NA
ATOM     23  C   UNL     1      -1.185  -0.086  -7.242  0.00  0.00    +0.107 A 
ATOM     24  C   UNL     1      -2.498   0.164  -7.693  0.00  0.00    +0.081 A 
ATOM     25  C   UNL     1      -3.242   1.067  -6.968  0.00  0.00    +0.070 A 
ATOM     26  S   UNL     1      -2.184   1.592  -5.659  0.00  0.00    -0.073 S 
ATOM     27  C   UNL     1      -0.768   0.612  -6.093  0.00  0.00    +0.105 A 
ATOM     28  C   UNL     1       0.504   0.438  -5.560  0.00  0.00    +0.268 A 
ATOM     29  O   UNL     1       0.853   1.045  -4.560  0.00  0.00    -0.266 OA
ATOM     30  S   UNL     1      -4.888   1.536  -7.347  0.00  0.00    -0.107 S 
ATOM     31  C   UNL     1      -4.951   1.204  -9.139  0.00  0.00    +0.171 C 
ATOM     32  C   UNL     1      -4.187  -0.055  -9.433  0.00  0.00    +0.227 C 
ATOM     33  O   UNL     1      -4.631  -0.770 -10.307  0.00  0.00    -0.275 OA
ATOM     34  N   UNL     1      -3.073  -0.464  -8.833  0.00  0.00    -0.282 N 
ATOM     35  H   UNL     1      -2.622  -1.242  -9.196  0.00  0.00    +0.155 HD
ENDBRANCH  19  20
ENDBRANCH   1  19
TORSDOF 5
