REMARK  Name = ZINC51808631
REMARK  8 active torsions:
REMARK  status: ('A' for Active; 'I' for Inactive)
REMARK    1  A    between atoms: C_2  and  C_3
REMARK    2  A    between atoms: C_3  and  N_4
REMARK    3  A    between atoms: C_5  and  C_7
REMARK    4  A    between atoms: C_7  and  N_8
REMARK    5  A    between atoms: C_9  and  C_11
REMARK    6  A    between atoms: N_13  and  C_14
REMARK    7  A    between atoms: C_17  and  N_20
REMARK    8  A    between atoms: C_21  and  C_25
REMARK                            x       y       z     vdW  Elec       q    Type
REMARK                         _______ _______ _______ _____ _____    ______ ____
ROOT
ATOM      1  C   UNL     1       6.298   7.499   0.568  0.00  0.00    +0.303 C 
ATOM      2  O   UNL     1       7.201   8.115   1.096  0.00  0.00    -0.265 OA
ATOM      3  N   UNL     1       5.274   8.162  -0.004  0.00  0.00    -0.278 N 
ATOM      4  H   UNL     1       4.588   7.673  -0.484  0.00  0.00    +0.155 HD
ENDROOT
BRANCH   3   5
ATOM      5  C   UNL     1       5.202   9.555   0.094  0.00  0.00    +0.034 A 
ATOM      6  C   UNL     1       3.966  10.179   0.211  0.00  0.00    +0.025 A 
ATOM      7  C   UNL     1       3.894  11.554   0.308  0.00  0.00    +0.029 A 
ATOM      8  C   UNL     1       5.057  12.313   0.289  0.00  0.00    +0.066 A 
ATOM      9  C   UNL     1       6.293  11.689   0.172  0.00  0.00    +0.029 A 
ATOM     10  C   UNL     1       6.365  10.314   0.081  0.00  0.00    +0.025 A 
BRANCH   8  11
ATOM     11  N   UNL     1       4.984  13.710   0.388  0.00  0.00    -0.228 N 
ATOM     12  C   UNL     1       5.876  14.511   1.014  0.00  0.00    +0.147 A 
ATOM     13  C   UNL     1       5.446  15.788   0.882  0.00  0.00    +0.054 A 
ATOM     14  C   UNL     1       4.252  15.767   0.152  0.00  0.00    +0.135 A 
ATOM     15  N   UNL     1       3.978  14.523  -0.149  0.00  0.00    -0.174 NA
BRANCH  12  16
ATOM     16  C   UNL     1       7.124  14.063   1.729  0.00  0.00    +0.434 C 
ATOM     17  F   UNL     1       8.195  14.039   0.829  0.00  0.00    -0.164 F 
ATOM     18  F   UNL     1       7.410  14.954   2.770  0.00  0.00    -0.164 F 
ATOM     19  F   UNL     1       6.926  12.781   2.254  0.00  0.00    -0.164 F 
ENDBRANCH  12  16
ENDBRANCH   8  11
ENDBRANCH   3   5
BRANCH   1  21
ATOM     20  N   UNL     1       7.347   5.342   1.124  0.00  0.00    -0.299 N 
ATOM     21  C   UNL     1       6.323   6.006   0.552  0.00  0.00    +0.300 C 
ATOM     22  O   UNL     1       5.420   5.390   0.024  0.00  0.00    -0.265 OA
ATOM     23  H   UNL     1       8.068   5.835   1.546  0.00  0.00    +0.150 HD
BRANCH  20  24
ATOM     24  C   UNL     1       7.371   3.878   1.108  0.00  0.00    +0.200 C 
BRANCH  24  26
ATOM     25  N   UNL     1       8.848   2.065   1.916  0.00  0.00    -0.303 N 
ATOM     26  C   UNL     1       8.613   3.388   1.808  0.00  0.00    +0.231 C 
ATOM     27  O   UNL     1       9.400   4.184   2.274  0.00  0.00    -0.274 OA
ATOM     28  H   UNL     1       8.218   1.429   1.544  0.00  0.00    +0.150 HD
BRANCH  25  29
ATOM     29  C   UNL     1      10.055   1.589   2.597  0.00  0.00    +0.193 C 
BRANCH  29  31
ATOM     30  C   UNL     1      10.098  -1.056   2.568  0.00  0.00    +0.005 C 
ATOM     31  C   UNL     1      10.079   0.118   2.581  0.00  0.00    -0.087 C 
ENDBRANCH  29  31
ENDBRANCH  25  29
ENDBRANCH  24  26
ENDBRANCH  20  24
ENDBRANCH   1  21
TORSDOF 8
