REMARK  Name = ZINC44026522
REMARK  4 active torsions:
REMARK  status: ('A' for Active; 'I' for Inactive)
REMARK    1  A    between atoms: C_1  and  C_2
REMARK    2  A    between atoms: C_5  and  O_20
REMARK    3  A    between atoms: C_8  and  C_19
REMARK    4  A    between atoms: C_11  and  C_12
REMARK                            x       y       z     vdW  Elec       q    Type
REMARK                         _______ _______ _______ _____ _____    ______ ____
ROOT
ATOM      1  C   UNL     1      -0.151   2.175   0.639  0.00  0.00    +0.044 C 
ATOM      2  C   UNL     1       0.093   0.755   0.197  0.00  0.00    -0.046 A 
ATOM      3  C   UNL     1       0.279   0.473  -1.147  0.00  0.00    +0.007 A 
ATOM      4  C   UNL     1       0.503  -0.825  -1.561  0.00  0.00    +0.046 A 
ATOM      5  C   UNL     1       0.544  -1.855  -0.634  0.00  0.00    +0.128 A 
ATOM      6  C   UNL     1       0.357  -1.575   0.729  0.00  0.00    +0.067 A 
ATOM      7  C   UNL     1       0.136  -0.257   1.131  0.00  0.00    -0.023 A 
ATOM      8  C   UNL     1      -0.022  -0.250   2.632  0.00  0.00    +0.051 C 
ATOM      9  C   UNL     1       0.132  -1.686   3.076  0.00  0.00    +0.009 C 
ATOM     10  C   UNL     1       0.064  -2.147   4.346  0.00  0.00    +0.038 C 
ATOM     11  C   UNL     1       0.350  -2.459   1.909  0.00  0.00    +0.194 C 
ATOM     12  O   UNL     1       0.519  -3.665   1.886  0.00  0.00    -0.287 OA
ATOM     13  C   UNL     1      -1.407   0.274   3.013  0.00  0.00    +0.017 C 
ENDROOT
BRANCH  10  14
ATOM     14  C   UNL     1      -0.021  -1.202   5.467  0.00  0.00    +0.095 A 
ATOM     15  C   UNL     1      -0.200  -1.606   6.782  0.00  0.00    +0.096 A 
ATOM     16  S   UNL     1      -0.221  -0.136   7.596  0.00  0.00    +0.029 S 
ATOM     17  N   UNL     1      -0.018   0.871   6.347  0.00  0.00    -0.110 NA
ATOM     18  N   UNL     1       0.072   0.114   5.311  0.00  0.00    -0.142 NA
ENDBRANCH  10  14
BRANCH   5  19
ATOM     19  O   UNL     1       0.764  -3.130  -1.043  0.00  0.00    -0.506 OA
ATOM     20  H   UNL     1       1.698  -3.379  -1.067  0.00  0.00    +0.292 HD
ENDBRANCH   5  19
TORSDOF 2
