REMARK  Name = ZINC22066616
REMARK  16 active torsions:
REMARK  status: ('A' for Active; 'I' for Inactive)
REMARK    1  A    between atoms: C_1  and  C_2
REMARK    2  A    between atoms: C_7  and  C_8
REMARK    3  A    between atoms: C_8  and  C_10
REMARK    4  A    between atoms: C_8  and  N_11
REMARK    5  A    between atoms: C_12  and  C_14
REMARK    6  A    between atoms: C_14  and  S_15
REMARK    7  A    between atoms: S_15  and  C_16
REMARK    8  A    between atoms: N_26  and  C_27
REMARK    9  A    between atoms: C_27  and  C_28
REMARK   10  A    between atoms: C_28  and  N_29
REMARK   11  A    between atoms: N_29  and  C_30
REMARK   12  A    between atoms: N_29  and  C_33
REMARK   13  A    between atoms: C_30  and  C_31
REMARK   14  A    between atoms: C_30  and  C_32
REMARK   15  A    between atoms: C_33  and  C_34
REMARK   16  A    between atoms: C_33  and  C_35
REMARK                            x       y       z     vdW  Elec       q    Type
REMARK                         _______ _______ _______ _____ _____    ______ ____
ROOT
ATOM      1  C   UNL     1      -1.153  -2.013   0.217  0.00  0.00    +0.173 A 
ATOM      2  N   UNL     1      -1.194  -0.705   0.279  0.00  0.00    -0.223 NA
ATOM      3  C   UNL     1      -0.068   0.036   0.315  0.00  0.00    +0.079 A 
ATOM      4  C   UNL     1      -0.112   1.432   0.382  0.00  0.00    +0.028 A 
ATOM      5  C   UNL     1       1.053   2.144   0.417  0.00  0.00    +0.002 A 
ATOM      6  C   UNL     1       2.285   1.502   0.387  0.00  0.00    +0.001 A 
ATOM      7  C   UNL     1       2.360   0.138   0.322  0.00  0.00    +0.015 A 
ATOM      8  C   UNL     1       1.187  -0.614   0.285  0.00  0.00    +0.065 A 
ATOM      9  C   UNL     1       1.207  -2.081   0.215  0.00  0.00    +0.262 A 
ATOM     10  O   UNL     1       2.256  -2.698   0.187  0.00  0.00    -0.267 OA
ATOM     11  N   UNL     1       0.015  -2.721   0.184  0.00  0.00    -0.289 N 
ENDROOT
BRANCH   1  12
ATOM     12  S   UNL     1      -2.675  -2.900   0.175  0.00  0.00    -0.078 S 
BRANCH  12  13
ATOM     13  C   UNL     1      -3.844  -1.521   0.240  0.00  0.00    +0.173 C 
BRANCH  13  15
ATOM     14  N   UNL     1      -6.298  -1.204   0.254  0.00  0.00    -0.308 N 
ATOM     15  C   UNL     1      -5.253  -2.055   0.214  0.00  0.00    +0.224 C 
ATOM     16  O   UNL     1      -5.447  -3.251   0.157  0.00  0.00    -0.275 OA
ATOM     17  H   UNL     1      -6.122  -0.119   0.306  0.00  0.00    +0.149 HD
BRANCH  14  18
ATOM     18  C   UNL     1      -7.667  -1.724   0.229  0.00  0.00    +0.100 C 
ATOM     19  C   UNL     1      -8.099  -1.954  -1.220  0.00  0.00    +0.033 C 
BRANCH  18  26
ATOM     20  C   UNL     1     -10.158  -2.613   1.392  0.00  0.00    +0.044 C 
ATOM     21  C   UNL     1      -9.786  -1.153   1.434  0.00  0.00    -0.046 A 
ATOM     22  C   UNL     1     -10.634  -0.240   2.032  0.00  0.00    +0.004 A 
ATOM     23  C   UNL     1     -10.295   1.099   2.066  0.00  0.00    +0.000 A 
ATOM     24  C   UNL     1      -9.105   1.526   1.506  0.00  0.00    +0.000 A 
ATOM     25  C   UNL     1      -8.255   0.612   0.911  0.00  0.00    +0.006 A 
ATOM     26  C   UNL     1      -8.594  -0.728   0.877  0.00  0.00    -0.025 A 
ENDBRANCH  18  26
ENDBRANCH  14  18
ENDBRANCH  13  15
ENDBRANCH  12  13
ENDBRANCH   1  12
BRANCH  11  27
ATOM     27  C   UNL     1      -0.024  -4.184   0.115  0.00  0.00    +0.109 C 
BRANCH  27  28
ATOM     28  C   UNL     1      -0.038  -4.762   1.531  0.00  0.00    -0.056 C 
BRANCH  28  29
ATOM     29  N   UNL     1      -0.219  -6.218   1.464  0.00  0.00    +0.384 N 
ATOM     30  H   UNL     1      -1.039  -6.425   0.761  0.00  0.00    -0.081 HD
BRANCH  29  31
ATOM     31  C   UNL     1       0.991  -6.876   0.952  0.00  0.00    -0.074 C 
ATOM     32  C   UNL     1       0.913  -6.972  -0.573  0.00  0.00    -0.014 C 
ATOM     33  C   UNL     1       2.222  -6.060   1.350  0.00  0.00    -0.014 C 
ENDBRANCH  29  31
BRANCH  29  34
ATOM     34  C   UNL     1      -0.599  -6.762   2.775  0.00  0.00    -0.074 C 
ATOM     35  C   UNL     1      -1.029  -8.222   2.615  0.00  0.00    -0.014 C 
ATOM     36  C   UNL     1       0.596  -6.684   3.726  0.00  0.00    -0.014 C 
ENDBRANCH  29  34
ENDBRANCH  28  29
ENDBRANCH  27  28
ENDBRANCH  11  27
TORSDOF 10
