REMARK  Name = ZINC17002073
REMARK  6 active torsions:
REMARK  status: ('A' for Active; 'I' for Inactive)
REMARK    1  A    between atoms: C_1  and  C_2
REMARK    2  A    between atoms: C_2  and  C_3
REMARK    3  A    between atoms: C_4  and  C_17
REMARK    4  A    between atoms: C_5  and  C_11
REMARK    5  A    between atoms: C_20  and  N_24
REMARK    6  A    between atoms: C_22  and  O_23
REMARK                            x       y       z     vdW  Elec       q    Type
REMARK                         _______ _______ _______ _____ _____    ______ ____
ROOT
ATOM      1  C   UNL     1      -1.257   3.691   0.095  0.00  0.00    +0.028 A 
ATOM      2  C   UNL     1      -0.118   4.402  -0.170  0.00  0.00    +0.031 A 
ATOM      3  C   UNL     1       1.117   3.705  -0.251  0.00  0.00    +0.083 A 
ATOM      4  N   UNL     1       1.138   2.393  -0.068  0.00  0.00    -0.222 NA
ATOM      5  C   UNL     1       0.017   1.721   0.189  0.00  0.00    +0.178 A 
ATOM      6  S   UNL     1       0.089   0.026   0.417  0.00  0.00    -0.011 S 
ATOM      7  N   UNL     1      -1.172   2.345   0.267  0.00  0.00    -0.337 N 
ATOM      8  H   UNL     1      -2.080   1.758   0.473  0.00  0.00    +0.168 HD
ENDROOT
BRANCH   3   9
ATOM      9  C   UNL     1       2.370   4.439  -0.536  0.00  0.00    +0.001 A 
ATOM     10  C   UNL     1       3.287   3.928  -1.456  0.00  0.00    +0.010 A 
ATOM     11  C   UNL     1       4.451   4.619  -1.721  0.00  0.00    +0.001 A 
ATOM     12  C   UNL     1       4.715   5.811  -1.069  0.00  0.00    +0.000 A 
ATOM     13  C   UNL     1       3.813   6.320  -0.152  0.00  0.00    +0.001 A 
ATOM     14  C   UNL     1       2.642   5.641   0.118  0.00  0.00    +0.010 A 
ENDBRANCH   3   9
BRANCH   2  15
ATOM     15  C   UNL     1      -0.172   5.870  -0.369  0.00  0.00    +0.027 A 
ATOM     16  C   UNL     1      -0.207   6.401  -1.657  0.00  0.00    +0.014 A 
ATOM     17  C   UNL     1      -0.257   7.768  -1.837  0.00  0.00    +0.033 A 
ATOM     18  C   UNL     1      -0.273   8.615  -0.743  0.00  0.00    +0.130 A 
ATOM     19  C   UNL     1      -0.238   8.099   0.539  0.00  0.00    +0.078 A 
ATOM     20  C   UNL     1      -0.194   6.728   0.734  0.00  0.00    +0.127 A 
BRANCH  18  21
ATOM     21  N   UNL     1      -0.327  10.080  -0.946  0.00  0.00    +0.057 N 
ATOM     22  O   UNL     1      -0.358  10.538  -2.074  0.00  0.00    -0.126 OA
ATOM     23  O   UNL     1      -0.341  10.828   0.015  0.00  0.00    -0.126 OA
ENDBRANCH  18  21
BRANCH  20  24
ATOM     24  O   UNL     1      -0.166   6.219   1.994  0.00  0.00    -0.506 OA
ATOM     25  H   UNL     1      -0.183   6.896   2.861  0.00  0.00    +0.292 HD
ENDBRANCH  20  24
ENDBRANCH   2  15
BRANCH   1  27
ATOM     26  C   UNL     1      -3.187   4.538  -1.212  0.00  0.00    +0.010 C 
ATOM     27  C   UNL     1      -2.589   4.391   0.189  0.00  0.00    +0.050 C 
ENDBRANCH   1  27
TORSDOF 5
