REMARK  Name = ZINC54228250
REMARK  9 active torsions:
REMARK  status: ('A' for Active; 'I' for Inactive)
REMARK    1  A    between atoms: C_1  and  C_2
REMARK    2  A    between atoms: C_4  and  C_24
REMARK    3  A    between atoms: C_5  and  N_9
REMARK    4  A    between atoms: C_10  and  C_12
REMARK    5  A    between atoms: C_12  and  N_13
REMARK    6  A    between atoms: C_16  and  C_20
REMARK    7  A    between atoms: C_16  and  C_21
REMARK    8  A    between atoms: C_21  and  C_22
REMARK    9  A    between atoms: C_21  and  C_23
REMARK                            x       y       z     vdW  Elec       q    Type
REMARK                         _______ _______ _______ _____ _____    ______ ____
ROOT
ATOM      1  N   UNL     1       0.057  -4.171  -0.023  0.00  0.00    -0.283 N 
ATOM      2  C   UNL     1       0.471  -4.846   1.067  0.00  0.00    +0.235 C 
ATOM      3  O   UNL     1       0.741  -4.246   2.086  0.00  0.00    -0.274 OA
ATOM      4  H   UNL     1      -0.228  -4.655  -0.814  0.00  0.00    +0.155 HD
ENDROOT
BRANCH   1   9
ATOM      5  C   UNL     1      -0.016   1.503   0.014  0.00  0.00    +0.044 C 
ATOM      6  C   UNL     1       0.004  -0.004   0.003  0.00  0.00    -0.049 A 
ATOM      7  C   UNL     1      -1.135  -0.711   0.340  0.00  0.00    +0.008 A 
ATOM      8  C   UNL     1      -1.121  -2.092   0.333  0.00  0.00    -0.028 A 
ATOM      9  C   UNL     1       0.039  -2.771  -0.015  0.00  0.00    +0.055 A 
ATOM     10  C   UNL     1       1.183  -2.058  -0.353  0.00  0.00    +0.063 A 
ATOM     11  C   UNL     1       1.160  -0.676  -0.348  0.00  0.00    +0.025 A 
ATOM     12 CL   UNL     1       2.636  -2.902  -0.788  0.00  0.00    -0.082 Cl
ATOM     13  C   UNL     1      -2.363  -2.862   0.701  0.00  0.00    +0.046 C 
ENDBRANCH   1   9
BRANCH   2  14
ATOM     14  C   UNL     1       0.598  -6.347   1.021  0.00  0.00    +0.214 C 
BRANCH  14  15
ATOM     15  N   UNL     1       1.061  -6.838   2.321  0.00  0.00    -0.215 N 
ATOM     16  C   UNL     1       2.358  -6.987   2.656  0.00  0.00    +0.247 C 
ATOM     17  O   UNL     1       3.325  -6.749   1.964  0.00  0.00    -0.273 OA
ATOM     18  C   UNL     1       2.357  -7.514   4.077  0.00  0.00    +0.112 C 
ATOM     19  N   UNL     1       0.925  -7.609   4.410  0.00  0.00    -0.285 N 
ATOM     20  C   UNL     1       0.249  -7.189   3.325  0.00  0.00    +0.310 C 
ATOM     21  O   UNL     1      -0.964  -7.137   3.263  0.00  0.00    -0.252 OA
ATOM     22  C   UNL     1       3.017  -8.892   4.141  0.00  0.00    +0.042 C 
ATOM     23  H   UNL     1       0.543  -7.913   5.248  0.00  0.00    +0.151 HD
BRANCH  18  24
ATOM     24  C   UNL     1       3.063  -6.533   5.015  0.00  0.00    +0.015 C 
ATOM     25  C   UNL     1       3.157  -7.143   6.415  0.00  0.00    +0.010 C 
ATOM     26  C   UNL     1       4.470  -6.247   4.488  0.00  0.00    +0.010 C 
ENDBRANCH  18  24
ENDBRANCH  14  15
ENDBRANCH   2  14
TORSDOF 4
