REMARK  Name = ZINC04530820
REMARK  9 active torsions:
REMARK  status: ('A' for Active; 'I' for Inactive)
REMARK    1  A    between atoms: C_4  and  C_7
REMARK    2  A    between atoms: C_7  and  O_8
REMARK    3  A    between atoms: O_8  and  C_9
REMARK    4  A    between atoms: C_11  and  N_24
REMARK    5  A    between atoms: C_13  and  O_23
REMARK    6  A    between atoms: C_15  and  O_22
REMARK    7  A    between atoms: C_17  and  C_20
REMARK    8  A    between atoms: C_20  and  O_21
REMARK    9  A    between atoms: C_25  and  C_27
REMARK                            x       y       z     vdW  Elec       q    Type
REMARK                         _______ _______ _______ _____ _____    ______ ____
ROOT
ATOM      1  C   UNL     1       0.009  -0.032   0.021  0.00  0.00    +0.274 C 
ATOM      2  C   UNL     1      -1.415  -0.533  -0.237  0.00  0.00    +0.160 C 
ATOM      3  C   UNL     1      -1.422  -2.064  -0.207  0.00  0.00    +0.171 C 
ATOM      4  C   UNL     1      -0.875  -2.540   1.143  0.00  0.00    +0.176 C 
ATOM      5  C   UNL     1       0.527  -1.961   1.348  0.00  0.00    +0.178 C 
ATOM      6  O   UNL     1       0.469  -0.535   1.277  0.00  0.00    -0.341 OA
ENDROOT
BRANCH   2   7
ATOM      7  N   UNL     1      -2.311  -0.017   0.800  0.00  0.00    -0.298 N 
ATOM      8  C   UNL     1      -3.614   0.189   0.523  0.00  0.00    +0.318 C 
ATOM      9  O   UNL     1      -4.044  -0.053  -0.585  0.00  0.00    -0.266 OA
ATOM     10  H   UNL     1      -1.968   0.177   1.686  0.00  0.00    +0.150 HD
BRANCH   8  11
ATOM     11  C   UNL     1      -4.537   0.720   1.590  0.00  0.00    +0.469 C 
ATOM     12  F   UNL     1      -5.828   0.849   1.068  0.00  0.00    -0.162 F 
ATOM     13  F   UNL     1      -4.557  -0.167   2.672  0.00  0.00    -0.162 F 
ATOM     14  F   UNL     1      -4.081   1.971   2.020  0.00  0.00    -0.162 F 
ENDBRANCH   8  11
ENDBRANCH   2   7
BRANCH   4  15
ATOM     15  O   UNL     1      -1.735  -2.091   2.192  0.00  0.00    -0.387 OA
ATOM     16  H   UNL     1      -1.449  -2.357   3.076  0.00  0.00    +0.210 HD
ENDBRANCH   4  15
BRANCH   3  17
ATOM     17  O   UNL     1      -2.759  -2.539  -0.377  0.00  0.00    -0.387 OA
ATOM     18  H   UNL     1      -2.838  -3.503  -0.368  0.00  0.00    +0.210 HD
ENDBRANCH   3  17
BRANCH   1  19
ATOM     19  O   UNL     1       0.013   1.397   0.050  0.00  0.00    -0.345 OA
BRANCH  19  20
ATOM     20  C   UNL     1       1.321   1.974   0.061  0.00  0.00    +0.198 C 
BRANCH  20  24
ATOM     21  C   UNL     1       0.998   6.232   0.147  0.00  0.00    +0.000 A 
ATOM     22  C   UNL     1       1.051   5.519   1.330  0.00  0.00    +0.000 A 
ATOM     23  C   UNL     1       1.155   4.141   1.302  0.00  0.00    +0.006 A 
ATOM     24  C   UNL     1       1.207   3.476   0.091  0.00  0.00    -0.022 A 
ATOM     25  C   UNL     1       1.159   4.190  -1.092  0.00  0.00    +0.006 A 
ATOM     26  C   UNL     1       1.050   5.567  -1.064  0.00  0.00    +0.000 A 
ENDBRANCH  20  24
ENDBRANCH  19  20
ENDBRANCH   1  19
BRANCH   5  27
ATOM     27  C   UNL     1       1.057  -2.383   2.720  0.00  0.00    +0.190 C 
BRANCH  27  28
ATOM     28  O   UNL     1       2.409  -1.942   2.865  0.00  0.00    -0.392 OA
ATOM     29  H   UNL     1       2.810  -2.175   3.713  0.00  0.00    +0.210 HD
ENDBRANCH  27  28
ENDBRANCH   5  27
TORSDOF 9
