REMARK  Name = ZINC64890138
REMARK  8 active torsions:
REMARK  status: ('A' for Active; 'I' for Inactive)
REMARK    1  A    between atoms: C_1  and  C_2
REMARK    2  A    between atoms: C_2  and  C_3
REMARK    3  A    between atoms: C_10  and  S_15
REMARK    4  A    between atoms: S_15  and  N_18
REMARK    5  A    between atoms: C_24  and  C_26
REMARK    6  A    between atoms: C_27  and  C_28
REMARK    7  A    between atoms: C_31  and  O_34
REMARK    8  A    between atoms: O_34  and  C_35
REMARK                            x       y       z     vdW  Elec       q    Type
REMARK                         _______ _______ _______ _____ _____    ______ ____
ROOT
ATOM      1  N   UNL     1      -4.612  -3.917   5.161  0.00  0.00    -0.174 NA
ATOM      2  C   UNL     1      -3.980  -5.235   5.313  0.00  0.00    +0.128 C 
ATOM      3  C   UNL     1      -2.773  -5.095   6.250  0.00  0.00    +0.125 C 
ATOM      4  N   UNL     1      -3.197  -4.369   7.456  0.00  0.00    -0.295 N 
ATOM      5  C   UNL     1      -3.829  -3.051   7.304  0.00  0.00    +0.125 C 
ATOM      6  C   UNL     1      -5.030  -3.189   6.367  0.00  0.00    +0.128 C 
ATOM      7  C   UNL     1      -3.010  -4.903   8.679  0.00  0.00    +0.240 C 
ATOM      8  O   UNL     1      -3.278  -4.255   9.674  0.00  0.00    -0.271 OA
ENDROOT
BRANCH   1   9
ATOM      9  S   UNL     1      -4.842  -3.262   3.658  0.00  0.00    +0.061 S 
ATOM     10  O   UNL     1      -5.909  -2.331   3.780  0.00  0.00    -0.153 OA
ATOM     11  O   UNL     1      -4.880  -4.348   2.743  0.00  0.00    -0.153 OA
BRANCH   9  18
ATOM     12  C   UNL     1       0.728  -0.507   1.237  0.00  0.00    +0.259 C 
ATOM     13  C   UNL     1       0.860  -2.007   1.166  0.00  0.00    +0.258 C 
ATOM     14  O   UNL     1       1.851  -2.509   0.679  0.00  0.00    -0.271 OA
ATOM     15  N   UNL     1      -0.129  -2.790   1.646  0.00  0.00    -0.279 N 
ATOM     16  C   UNL     1      -1.206  -2.195   2.317  0.00  0.00    +0.078 A 
ATOM     17  C   UNL     1      -2.341  -2.931   2.620  0.00  0.00    +0.055 A 
ATOM     18  C   UNL     1      -3.400  -2.326   3.271  0.00  0.00    +0.107 A 
ATOM     19  C   UNL     1      -3.331  -0.990   3.619  0.00  0.00    +0.032 A 
ATOM     20  C   UNL     1      -2.200  -0.251   3.323  0.00  0.00    +0.049 A 
ATOM     21  C   UNL     1      -1.133  -0.851   2.678  0.00  0.00    +0.143 A 
ATOM     22  O   UNL     1      -0.003  -0.144   2.410  0.00  0.00    -0.478 OA
ATOM     23  H   UNL     1      -0.096  -3.752   1.527  0.00  0.00    +0.155 HD
BRANCH  12  25
ATOM     24  C   UNL     1      -0.037   1.528   0.006  0.00  0.00    +0.008 C 
ATOM     25  C   UNL     1      -0.013  -0.002  -0.002  0.00  0.00    +0.051 C 
ENDBRANCH  12  25
ENDBRANCH   9  18
ENDBRANCH   1   9
BRANCH   7  26
ATOM     26  C   UNL     1      -2.483  -6.261   8.812  0.00  0.00    +0.068 C 
ATOM     27  C   UNL     1      -2.392  -6.834  10.030  0.00  0.00    +0.013 C 
BRANCH  27  28
ATOM     28  C   UNL     1      -1.863  -8.199  10.164  0.00  0.00    -0.025 A 
ATOM     29  C   UNL     1      -1.447  -8.905   9.028  0.00  0.00    +0.011 A 
ATOM     30  C   UNL     1      -0.953 -10.183   9.159  0.00  0.00    +0.046 A 
ATOM     31  C   UNL     1      -0.865 -10.772  10.414  0.00  0.00    +0.120 A 
ATOM     32  C   UNL     1      -1.277 -10.075  11.545  0.00  0.00    +0.046 A 
ATOM     33  C   UNL     1      -1.767  -8.795  11.426  0.00  0.00    +0.011 A 
BRANCH  31  34
ATOM     34  O   UNL     1      -0.376 -12.033  10.537  0.00  0.00    -0.495 OA
ATOM     35  C   UNL     1      -0.314 -12.578  11.857  0.00  0.00    +0.277 C 
ENDBRANCH  31  34
ENDBRANCH  27  28
ENDBRANCH   7  26
TORSDOF 6
