REMARK  Name = ZINC60356604
REMARK  12 active torsions:
REMARK  status: ('A' for Active; 'I' for Inactive)
REMARK    1  A    between atoms: C_1  and  C_2
REMARK    2  A    between atoms: C_2  and  O_3
REMARK    3  A    between atoms: O_3  and  C_4
REMARK    4  A    between atoms: C_4  and  C_6
REMARK    5  A    between atoms: C_7  and  C_35
REMARK    6  A    between atoms: C_13  and  C_17
REMARK    7  A    between atoms: C_17  and  C_19
REMARK    8  A    between atoms: C_17  and  N_20
REMARK    9  A    between atoms: N_20  and  C_21
REMARK   10  A    between atoms: N_20  and  C_22
REMARK   11  A    between atoms: C_22  and  C_23
REMARK   12  A    between atoms: C_28  and  C_29
REMARK                            x       y       z     vdW  Elec       q    Type
REMARK                         _______ _______ _______ _____ _____    ______ ____
ROOT
ATOM      1  C   UNL     1      -8.217  -3.874  -0.127  0.00  0.00    -0.004 C 
ATOM      2  C   UNL     1      -8.559  -5.076   0.755  0.00  0.00    -0.005 C 
ENDROOT
BRANCH   1  10
ATOM      3  C   UNL     1      -2.604  -1.129   0.850  0.00  0.00    +0.102 A 
ATOM      4  C   UNL     1      -2.787  -2.425   0.465  0.00  0.00    -0.015 A 
ATOM      5  C   UNL     1      -4.080  -2.919   0.281  0.00  0.00    +0.076 A 
ATOM      6  C   UNL     1      -4.515  -4.274  -0.130  0.00  0.00    +0.260 A 
ATOM      7  O   UNL     1      -3.700  -5.149  -0.361  0.00  0.00    -0.267 OA
ATOM      8  N   UNL     1      -5.836  -4.513  -0.241  0.00  0.00    -0.312 N 
ATOM      9  H   UNL     1      -6.138  -5.396  -0.509  0.00  0.00    +0.170 HD
ATOM     10  C   UNL     1      -6.753  -3.548   0.014  0.00  0.00    +0.097 A 
ATOM     11  N   UNL     1      -6.404  -2.344   0.378  0.00  0.00    -0.228 NA
ATOM     12  C   UNL     1      -5.130  -2.001   0.517  0.00  0.00    +0.116 A 
ATOM     13  S   UNL     1      -4.275  -0.517   0.986  0.00  0.00    -0.062 S 
ATOM     14  C   UNL     1      -1.597  -3.321   0.238  0.00  0.00    +0.046 C 
BRANCH   3  15
ATOM     15  C   UNL     1      -1.348  -0.417   1.097  0.00  0.00    +0.346 C 
ATOM     16  O   UNL     1      -0.285  -0.992   0.955  0.00  0.00    -0.244 OA
BRANCH  15  17
ATOM     17  O   UNL     1      -1.369   0.876   1.481  0.00  0.00    -0.461 OA
BRANCH  17  19
ATOM     18  C   UNL     1      -0.331   2.959   2.130  0.00  0.00    +0.048 C 
ATOM     19  C   UNL     1      -0.106   1.507   1.704  0.00  0.00    +0.229 C 
ENDBRANCH  17  19
ENDBRANCH  15  17
ENDBRANCH   3  15
ENDBRANCH   1  10
BRANCH   1  20
ATOM     20  N   UNL     1      -9.019  -2.716   0.291  0.00  0.00    +0.387 N 
ATOM     21  C   UNL     1      -8.806  -1.608  -0.650  0.00  0.00    -0.095 C 
ATOM     22  H   UNL     1      -8.739  -2.429   1.217  0.00  0.00    -0.081 HD
BRANCH  20  23
ATOM     23  C   UNL     1     -10.441  -3.083   0.302  0.00  0.00    -0.042 C 
BRANCH  23  24
ATOM     24  C   UNL     1     -11.257  -1.921   0.807  0.00  0.00    -0.056 A 
ATOM     25  C   UNL     1     -12.010  -1.170  -0.073  0.00  0.00    +0.002 A 
ATOM     26  C   UNL     1     -12.758  -0.103   0.390  0.00  0.00    +0.000 A 
ATOM     27  C   UNL     1     -12.757   0.217   1.736  0.00  0.00    +0.001 A 
ATOM     28  C   UNL     1     -12.008  -0.527   2.624  0.00  0.00    +0.009 A 
ATOM     29  C   UNL     1     -11.256  -1.606   2.164  0.00  0.00    -0.017 A 
BRANCH  29  30
ATOM     30  C   UNL     1     -10.453  -2.413   3.116  0.00  0.00    -0.018 A 
ATOM     31  C   UNL     1     -10.656  -3.788   3.211  0.00  0.00    +0.008 A 
ATOM     32  C   UNL     1      -9.905  -4.534   4.097  0.00  0.00    +0.001 A 
ATOM     33  C   UNL     1      -8.953  -3.919   4.890  0.00  0.00    +0.000 A 
ATOM     34  C   UNL     1      -8.748  -2.554   4.800  0.00  0.00    +0.001 A 
ATOM     35  C   UNL     1      -9.488  -1.799   3.913  0.00  0.00    +0.008 A 
ENDBRANCH  29  30
ENDBRANCH  23  24
ENDBRANCH  20  23
ENDBRANCH   1  20
TORSDOF 8
