REMARK  Name = ZINC54837345
REMARK  6 active torsions:
REMARK  status: ('A' for Active; 'I' for Inactive)
REMARK    1  A    between atoms: C_1  and  C_2
REMARK    2  A    between atoms: C_6  and  C_8
REMARK    3  A    between atoms: N_13  and  C_14
REMARK    4  A    between atoms: C_17  and  S_23
REMARK    5  A    between atoms: C_19  and  N_20
REMARK    6  A    between atoms: S_23  and  N_26
REMARK                            x       y       z     vdW  Elec       q    Type
REMARK                         _______ _______ _______ _____ _____    ______ ____
ROOT
ATOM      1  C   UNL     1      -2.191  -4.008   2.150  0.00  0.00    +0.061 A 
ATOM      2  C   UNL     1      -2.673  -4.053   0.848  0.00  0.00    +0.027 A 
ATOM      3  C   UNL     1      -4.035  -4.035   0.617  0.00  0.00    +0.030 A 
ATOM      4  C   UNL     1      -4.917  -3.972   1.680  0.00  0.00    +0.107 A 
ATOM      5  C   UNL     1      -4.440  -3.927   2.977  0.00  0.00    +0.063 A 
ATOM      6  C   UNL     1      -3.080  -3.950   3.215  0.00  0.00    +0.149 A 
ENDROOT
BRANCH   1  11
ATOM      7  C   UNL     1       0.054  -2.845   2.489  0.00  0.00    +0.104 C 
ATOM      8  C   UNL     1       1.483  -3.345   2.785  0.00  0.00    +0.029 C 
ATOM      9  C   UNL     1       1.239  -4.751   3.395  0.00  0.00    +0.021 C 
ATOM     10  C   UNL     1       0.014  -5.235   2.579  0.00  0.00    +0.106 C 
ATOM     11  N   UNL     1      -0.814  -4.027   2.388  0.00  0.00    -0.321 N 
BRANCH   7  17
ATOM     12  C   UNL     1      -0.018   1.503   0.010  0.00  0.00    +0.044 C 
ATOM     13  C   UNL     1       0.002  -0.004   0.002  0.00  0.00    -0.050 A 
ATOM     14  C   UNL     1       0.006  -0.689  -1.199  0.00  0.00    +0.003 A 
ATOM     15  C   UNL     1       0.025  -2.071  -1.207  0.00  0.00    +0.001 A 
ATOM     16  C   UNL     1       0.040  -2.768  -0.013  0.00  0.00    +0.005 A 
ATOM     17  C   UNL     1       0.037  -2.084   1.188  0.00  0.00    -0.027 A 
ATOM     18  C   UNL     1       0.023  -0.702   1.195  0.00  0.00    +0.008 A 
ENDBRANCH   7  17
ENDBRANCH   1  11
BRANCH   6  19
ATOM     19  N   UNL     1      -2.571  -3.908   4.604  0.00  0.00    +0.058 N 
ATOM     20  O   UNL     1      -3.345  -3.858   5.531  0.00  0.00    -0.126 OA
ATOM     21  O   UNL     1      -1.380  -3.924   4.812  0.00  0.00    -0.126 OA
ENDBRANCH   6  19
BRANCH   4  22
ATOM     22  S   UNL     1      -6.653  -3.949   1.380  0.00  0.00    +0.056 S 
ATOM     23  O   UNL     1      -7.253  -3.338   2.514  0.00  0.00    -0.153 OA
ATOM     24  O   UNL     1      -6.832  -3.450   0.062  0.00  0.00    -0.153 OA
BRANCH  22  25
ATOM     25  N   UNL     1      -7.168  -5.523   1.364  0.00  0.00    -0.204 NA
ATOM     26  H   UNL     1      -6.533  -6.243   1.506  0.00  0.00    +0.144 HD
ATOM     27  H   UNL     1      -8.105  -5.726   1.212  0.00  0.00    +0.144 HD
ENDBRANCH  22  25
ENDBRANCH   4  22
TORSDOF 5
