REMARK  Name = ZINC05126645
REMARK  8 active torsions:
REMARK  status: ('A' for Active; 'I' for Inactive)
REMARK    1  A    between atoms: C_1  and  C_2
REMARK    2  A    between atoms: N_4  and  C_5
REMARK    3  A    between atoms: C_7  and  O_28
REMARK    4  A    between atoms: C_9  and  O_27
REMARK    5  A    between atoms: C_11  and  C_25
REMARK    6  A    between atoms: C_14  and  O_16
REMARK    7  A    between atoms: O_16  and  C_17
REMARK    8  A    between atoms: C_25  and  O_26
REMARK                            x       y       z     vdW  Elec       q    Type
REMARK                         _______ _______ _______ _____ _____    ______ ____
ROOT
ATOM      1  C   UNL     1       1.422   2.047  -0.001  0.00  0.00    +0.173 C 
ATOM      2  C   UNL     1      -0.028   1.555   0.025  0.00  0.00    +0.172 C 
ATOM      3  C   UNL     1      -0.036   0.023   0.033  0.00  0.00    +0.176 C 
ATOM      4  C   UNL     1       0.730  -0.489  -1.190  0.00  0.00    +0.179 C 
ATOM      5  O   UNL     1       2.061   0.030  -1.169  0.00  0.00    -0.332 OA
ATOM      6  C   UNL     1       2.132   1.456  -1.222  0.00  0.00    +0.331 C 
ENDROOT
BRANCH   1  10
ATOM      7  C   UNL     1       2.781   1.947   3.577  0.00  0.00    +0.109 C 
ATOM      8  C   UNL     1       2.076   2.391   2.321  0.00  0.00    +0.210 C 
ATOM      9  O   UNL     1       1.480   3.447   2.302  0.00  0.00    -0.276 OA
ATOM     10  N   UNL     1       2.108   1.615   1.220  0.00  0.00    -0.304 N 
ATOM     11  H   UNL     1       2.584   0.770   1.236  0.00  0.00    +0.149 HD
ENDBRANCH   1  10
BRANCH   3  12
ATOM     12  O   UNL     1       0.593  -0.452   1.225  0.00  0.00    -0.387 OA
ATOM     13  H   UNL     1       0.624  -1.416   1.296  0.00  0.00    +0.210 HD
ENDBRANCH   3  12
BRANCH   2  14
ATOM     14  O   UNL     1      -0.677   2.042   1.201  0.00  0.00    -0.387 OA
ATOM     15  H   UNL     1      -1.599   1.762   1.286  0.00  0.00    +0.210 HD
ENDBRANCH   2  14
BRANCH   6  16
ATOM     16  O   UNL     1       3.501   1.866  -1.222  0.00  0.00    -0.460 OA
BRANCH  16  17
ATOM     17  C   UNL     1       4.224   1.603  -2.343  0.00  0.00    +0.142 A 
ATOM     18  C   UNL     1       3.627   0.965  -3.420  0.00  0.00    +0.049 A 
ATOM     19  C   UNL     1       4.363   0.698  -4.559  0.00  0.00    +0.023 A 
ATOM     20  C   UNL     1       5.695   1.068  -4.625  0.00  0.00    +0.043 A 
ATOM     21  C   UNL     1       6.293   1.705  -3.552  0.00  0.00    +0.043 A 
ATOM     22  C   UNL     1       5.558   1.979  -2.414  0.00  0.00    +0.084 A 
ATOM     23 CL   UNL     1       6.306   2.786  -1.071  0.00  0.00    -0.080 Cl
ATOM     24 CL   UNL     1       6.617   0.732  -6.057  0.00  0.00    -0.083 Cl
ENDBRANCH  16  17
ENDBRANCH   6  16
BRANCH   4  25
ATOM     25  C   UNL     1       0.779  -2.018  -1.158  0.00  0.00    +0.190 C 
BRANCH  25  26
ATOM     26  O   UNL     1       1.391  -2.501  -2.356  0.00  0.00    -0.392 OA
ATOM     27  H   UNL     1       1.455  -3.465  -2.404  0.00  0.00    +0.210 HD
ENDBRANCH  25  26
ENDBRANCH   4  25
TORSDOF 7
