REMARK  Name = ZINC62342076
REMARK  4 active torsions:
REMARK  status: ('A' for Active; 'I' for Inactive)
REMARK    1  A    between atoms: C_3  and  C_10
REMARK    2  A    between atoms: C_5  and  N_7
REMARK    3  A    between atoms: C_10  and  C_12
REMARK    4  A    between atoms: C_12  and  N_13
REMARK                            x       y       z     vdW  Elec       q    Type
REMARK                         _______ _______ _______ _____ _____    ______ ____
ROOT
ATOM      1  C   UNL     1       3.830   1.903  -2.420  0.00  0.00    +0.094 C 
ATOM      2 CL   UNL     1       5.119   0.703  -2.033  0.00  0.00    -0.119 Cl
ENDROOT
BRANCH   1   5
ATOM      3  C   UNL     1       0.832  -0.196  -1.491  0.00  0.00    +0.003 A 
ATOM      4  C   UNL     1       2.055   0.446  -1.425  0.00  0.00    +0.005 A 
ATOM      5  C   UNL     1       2.498   1.203  -2.493  0.00  0.00    -0.029 A 
ATOM      6  C   UNL     1       1.717   1.319  -3.628  0.00  0.00    +0.037 A 
ATOM      7  C   UNL     1       0.495   0.677  -3.695  0.00  0.00    +0.126 A 
ATOM      8  C   UNL     1       0.052  -0.080  -2.626  0.00  0.00    +0.033 A 
BRANCH   7   9
ATOM      9  N   UNL     1      -0.341   0.801  -4.910  0.00  0.00    +0.056 N 
ATOM     10  O   UNL     1       0.046   1.464  -5.845  0.00  0.00    -0.126 OA
ATOM     11  O   UNL     1      -1.410   0.240  -4.969  0.00  0.00    -0.126 OA
ENDBRANCH   7   9
ENDBRANCH   1   5
BRANCH   1  12
ATOM     12  C   UNL     1       3.785   2.973  -1.327  0.00  0.00    -0.055 C 
BRANCH  12  13
ATOM     13  N   UNL     1       5.087   3.649  -1.250  0.00  0.00    +0.381 N 
ATOM     14  C   UNL     1       5.107   4.500  -0.045  0.00  0.00    -0.079 C 
ATOM     15  C   UNL     1       6.544   4.699   0.370  0.00  0.00    -0.019 C 
ATOM     16  C   UNL     1       7.112   6.020  -0.183  0.00  0.00    -0.002 C 
ATOM     17  C   UNL     1       6.656   6.277  -1.633  0.00  0.00    -0.002 C 
ATOM     18  C   UNL     1       6.684   5.026  -2.474  0.00  0.00    -0.019 C 
ATOM     19  C   UNL     1       5.292   4.361  -2.434  0.00  0.00    -0.079 C 
ATOM     20  H   UNL     1       5.809   2.950  -1.163  0.00  0.00    -0.082 HD
ENDBRANCH  12  13
ENDBRANCH   1  12
TORSDOF 4
