REMARK  Name = ZINC59937909
REMARK  7 active torsions:
REMARK  status: ('A' for Active; 'I' for Inactive)
REMARK    1  A    between atoms: C_4  and  C_7
REMARK    2  A    between atoms: C_7  and  C_12
REMARK    3  A    between atoms: C_12  and  C_13
REMARK    4  A    between atoms: C_13  and  C_14
REMARK    5  A    between atoms: C_14  and  S_15
REMARK    6  A    between atoms: S_15  and  C_16
REMARK    7  A    between atoms: N_23  and  N_24
REMARK                            x       y       z     vdW  Elec       q    Type
REMARK                         _______ _______ _______ _____ _____    ______ ____
ROOT
ATOM      1  C   UNL     1       5.533  -1.592  -1.501  0.00  0.00    +0.017 C 
ENDROOT
BRANCH   1   2
ATOM      2  C   UNL     1       4.141  -0.958  -1.484  0.00  0.00    +0.071 C 
BRANCH   2   3
ATOM      3  C   UNL     1       3.604  -0.942  -0.052  0.00  0.00    +0.197 C 
ATOM      4  O   UNL     1       3.495  -2.287   0.433  0.00  0.00    -0.342 OA
ATOM      5  C   UNL     1       2.107  -2.520   0.743  0.00  0.00    +0.191 C 
ATOM      6  C   UNL     1       1.375  -1.446  -0.100  0.00  0.00    +0.191 C 
ATOM      7  O   UNL     1       2.301  -0.336  -0.031  0.00  0.00    -0.342 OA
BRANCH   3  11
ATOM      8  C   UNL     1       6.261   1.278   2.450  0.00  0.00    +0.000 A 
ATOM      9  C   UNL     1       6.438  -0.084   2.291  0.00  0.00    +0.000 A 
ATOM     10  C   UNL     1       5.578  -0.802   1.481  0.00  0.00    +0.009 A 
ATOM     11  C   UNL     1       4.541  -0.159   0.831  0.00  0.00    +0.011 A 
ATOM     12  C   UNL     1       4.364   1.203   0.991  0.00  0.00    +0.009 A 
ATOM     13  C   UNL     1       5.225   1.921   1.800  0.00  0.00    +0.000 A 
ENDBRANCH   3  11
ENDBRANCH   2   3
ENDBRANCH   1   2
BRANCH   1  14
ATOM     14  C   UNL     1       6.015  -1.728  -2.946  0.00  0.00    +0.077 C 
BRANCH  14  15
ATOM     15  S   UNL     1       7.665  -2.481  -2.965  0.00  0.00    -0.084 S 
BRANCH  15  16
ATOM     16  C   UNL     1       8.074  -2.568  -4.677  0.00  0.00    +0.214 A 
ATOM     17  N   UNL     1       7.328  -2.163  -5.678  0.00  0.00    -0.119 NA
ATOM     18  N   UNL     1       7.934  -2.376  -6.793  0.00  0.00    -0.106 NA
ATOM     19  C   UNL     1       9.101  -2.930  -6.568  0.00  0.00    +0.272 A 
ATOM     20  N   UNL     1       9.229  -3.064  -5.210  0.00  0.00    -0.170 N 
ATOM     21  N   UNL     1      10.473  -3.647  -4.966  0.00  0.00    -0.150 NA
ATOM     22  C   UNL     1      11.068  -3.853  -6.098  0.00  0.00    +0.244 A 
ATOM     23  N   UNL     1      10.259  -3.433  -7.121  0.00  0.00    -0.221 N 
BRANCH  23  24
ATOM     24  N   UNL     1      10.554  -3.489  -8.453  0.00  0.00    -0.294 N 
ATOM     25  H   UNL     1      11.462  -3.901  -8.605  0.00  0.00    +0.163 HD
ATOM     26  H   UNL     1       9.840  -3.991  -8.961  0.00  0.00    +0.163 HD
ENDBRANCH  23  24
ENDBRANCH  15  16
ENDBRANCH  14  15
ENDBRANCH   1  14
TORSDOF 7
