REMARK  Name = ZINC63646833
REMARK  6 active torsions:
REMARK  status: ('A' for Active; 'I' for Inactive)
REMARK    1  A    between atoms: C_1  and  C_2
REMARK    2  A    between atoms: C_6  and  C_8
REMARK    3  A    between atoms: C_10  and  S_13
REMARK    4  A    between atoms: S_13  and  C_14
REMARK    5  A    between atoms: C_14  and  C_15
REMARK    6  A    between atoms: C_23  and  C_26
REMARK                            x       y       z     vdW  Elec       q    Type
REMARK                         _______ _______ _______ _____ _____    ______ ____
ROOT
ATOM      1  C   UNL     1       0.113  -5.621   6.506  0.00  0.00    +0.133 C 
ENDROOT
BRANCH   1   2
ATOM      2  C   UNL     1       0.134  -6.897   7.308  0.00  0.00    +0.060 A 
ATOM      3  C   UNL     1       1.277  -7.305   7.933  0.00  0.00    +0.096 A 
ATOM      4  C   UNL     1       1.274  -8.483   8.687  0.00  0.00    +0.272 A 
ATOM      5  O   UNL     1       2.296  -8.856   9.239  0.00  0.00    -0.266 OA
ATOM      6  N   UNL     1       0.125  -9.217   8.806  0.00  0.00    -0.206 N 
ATOM      7  C   UNL     1      -0.964  -8.754   8.113  0.00  0.00    +0.191 A 
ATOM      8  N   UNL     1      -0.964  -7.643   7.422  0.00  0.00    -0.226 NA
ATOM      9  S   UNL     1      -2.225  -9.985   8.394  0.00  0.00    -0.062 S 
ATOM     10  C   UNL     1      -1.117 -11.249   9.156  0.00  0.00    +0.156 C 
ATOM     11  N   UNL     1      -0.009 -10.346   9.563  0.00  0.00    -0.266 N 
ATOM     12  H   UNL     1       0.864 -10.849   9.621  0.00  0.00    +0.168 HD
BRANCH  10  13
ATOM     13  C   UNL     1      -1.774 -11.919  10.364  0.00  0.00    +0.021 C 
ATOM     14  C   UNL     1      -1.665 -13.441  10.474  0.00  0.00    +0.006 C 
ATOM     15  C   UNL     1      -3.002 -12.795  10.106  0.00  0.00    +0.006 C 
ENDBRANCH  10  13
ENDBRANCH   1   2
BRANCH   1  16
ATOM     16  S   UNL     1       0.108  -6.019   4.736  0.00  0.00    -0.078 S 
BRANCH  16  19
ATOM     17  C   UNL     1       0.053  -2.845   2.458  0.00  0.00    +0.184 A 
ATOM     18  N   UNL     1       0.073  -4.214   2.600  0.00  0.00    -0.199 NA
ATOM     19  C   UNL     1       0.083  -4.444   3.946  0.00  0.00    +0.212 A 
ATOM     20  N   UNL     1       0.071  -3.273   4.542  0.00  0.00    -0.120 NA
ATOM     21  N   UNL     1       0.058  -2.332   3.666  0.00  0.00    -0.127 NA
BRANCH  17  27
ATOM     22  C   UNL     1      -0.018   1.503   0.010  0.00  0.00    +0.044 C 
ATOM     23  C   UNL     1       0.002  -0.004   0.002  0.00  0.00    -0.050 A 
ATOM     24  C   UNL     1       0.006  -0.688  -1.201  0.00  0.00    +0.003 A 
ATOM     25  C   UNL     1       0.025  -2.071  -1.218  0.00  0.00    +0.001 A 
ATOM     26  C   UNL     1       0.040  -2.778  -0.033  0.00  0.00    +0.011 A 
ATOM     27  C   UNL     1       0.037  -2.094   1.184  0.00  0.00    +0.021 A 
ATOM     28  C   UNL     1       0.023  -0.699   1.194  0.00  0.00    +0.015 A 
ENDBRANCH  17  27
ENDBRANCH  16  19
ENDBRANCH   1  16
TORSDOF 5
