REMARK  Name = ZINC23723096
REMARK  9 active torsions:
REMARK  status: ('A' for Active; 'I' for Inactive)
REMARK    1  A    between atoms: C_1  and  N_2
REMARK    2  A    between atoms: C_10  and  C_11
REMARK    3  A    between atoms: C_11  and  C_12
REMARK    4  A    between atoms: N_14  and  N_15
REMARK    5  A    between atoms: C_16  and  C_18
REMARK    6  A    between atoms: C_22  and  S_24
REMARK    7  A    between atoms: S_24  and  N_27
REMARK    8  A    between atoms: N_27  and  C_28
REMARK    9  A    between atoms: C_28  and  C_29
REMARK                            x       y       z     vdW  Elec       q    Type
REMARK                         _______ _______ _______ _____ _____    ______ ____
ROOT
ATOM      1  N   UNL     1      -4.558  -1.604  -5.150  0.00  0.00    -0.230 N 
ATOM      2  C   UNL     1      -3.646  -1.873  -4.195  0.00  0.00    +0.260 C 
ATOM      3  O   UNL     1      -2.886  -2.812  -4.329  0.00  0.00    -0.269 OA
ATOM      4  H   UNL     1      -5.246  -0.754  -5.029  0.00  0.00    +0.173 HD
ENDROOT
BRANCH   2   5
ATOM      5  C   UNL     1      -3.569  -1.025  -2.986  0.00  0.00    +0.040 A 
ATOM      6  C   UNL     1      -4.441   0.054  -2.830  0.00  0.00    +0.013 A 
ATOM      7  C   UNL     1      -4.364   0.840  -1.699  0.00  0.00    +0.003 A 
ATOM      8  C   UNL     1      -3.430   0.558  -0.719  0.00  0.00    +0.028 A 
ATOM      9  C   UNL     1      -2.559  -0.506  -0.870  0.00  0.00    +0.106 A 
ATOM     10  C   UNL     1      -2.625  -1.301  -1.996  0.00  0.00    +0.041 A 
BRANCH   9  11
ATOM     11  S   UNL     1      -1.368  -0.853   0.382  0.00  0.00    +0.059 S 
ATOM     12  O   UNL     1      -1.040  -2.230   0.260  0.00  0.00    -0.153 OA
ATOM     13  O   UNL     1      -1.871  -0.293   1.587  0.00  0.00    -0.153 OA
BRANCH  11  14
ATOM     14  N   UNL     1       0.002  -0.004   0.002  0.00  0.00    -0.181 NA
ATOM     15  H   UNL     1       0.869  -0.540  -0.412  0.00  0.00    +0.148 HD
BRANCH  14  16
ATOM     16  C   UNL     1      -0.018   1.461   0.010  0.00  0.00    +0.219 C 
BRANCH  16  17
ATOM     17  C   UNL     1       1.418   1.990  -0.001  0.00  0.00    +0.404 C 
ATOM     18  F   UNL     1       2.072   1.539  -1.152  0.00  0.00    -0.169 F 
ATOM     19  F   UNL     1       1.399   3.389   0.007  0.00  0.00    -0.169 F 
ATOM     20  F   UNL     1       2.094   1.527   1.133  0.00  0.00    -0.169 F 
ENDBRANCH  16  17
ENDBRANCH  14  16
ENDBRANCH  11  14
ENDBRANCH   9  11
ENDBRANCH   2   5
BRANCH   1  23
ATOM     21  C   UNL     1      -5.544  -2.138  -7.250  0.00  0.00    +0.236 C 
ATOM     22  O   UNL     1      -6.302  -1.200  -7.117  0.00  0.00    -0.274 OA
ATOM     23  N   UNL     1      -4.631  -2.406  -6.296  0.00  0.00    -0.234 N 
ATOM     24  H   UNL     1      -3.943  -3.256  -6.416  0.00  0.00    +0.173 HD
BRANCH  21  25
ATOM     25  C   UNL     1      -5.622  -3.001  -8.483  0.00  0.00    +0.171 C 
BRANCH  25  35
ATOM     26  C   UNL     1      -5.297  -0.892 -10.721  0.00  0.00    +0.150 C 
ATOM     27  N   UNL     1      -6.550  -1.562 -10.364  0.00  0.00    -0.330 N 
ATOM     28  C   UNL     1      -7.780  -1.368 -10.960  0.00  0.00    +0.069 A 
ATOM     29  C   UNL     1      -8.237  -0.562 -11.994  0.00  0.00    +0.028 A 
ATOM     30  C   UNL     1      -9.566  -0.606 -12.356  0.00  0.00    +0.002 A 
ATOM     31  C   UNL     1     -10.449  -1.448 -11.695  0.00  0.00    +0.002 A 
ATOM     32  C   UNL     1     -10.017  -2.247 -10.675  0.00  0.00    +0.030 A 
ATOM     33  C   UNL     1      -8.674  -2.220 -10.290  0.00  0.00    +0.089 A 
ATOM     34  N   UNL     1      -7.957  -2.881  -9.344  0.00  0.00    -0.232 NA
ATOM     35  C   UNL     1      -6.716  -2.492  -9.385  0.00  0.00    +0.119 A 
ENDBRANCH  25  35
ENDBRANCH  21  25
ENDBRANCH   1  23
TORSDOF 8
