REMARK  Name = ZINC25075734
REMARK  15 active torsions:
REMARK  status: ('A' for Active; 'I' for Inactive)
REMARK    1  A    between atoms: C_1  and  C_2
REMARK    2  A    between atoms: C_2  and  C_4
REMARK    3  A    between atoms: C_2  and  N_23
REMARK    4  A    between atoms: C_4  and  O_6
REMARK    5  A    between atoms: O_6  and  C_7
REMARK    6  A    between atoms: C_7  and  C_8
REMARK    7  A    between atoms: C_10  and  O_22
REMARK    8  A    between atoms: C_12  and  O_21
REMARK    9  A    between atoms: C_14  and  O_20
REMARK   10  A    between atoms: C_16  and  O_19
REMARK   11  A    between atoms: C_24  and  O_26
REMARK   12  A    between atoms: O_26  and  C_27
REMARK   13  A    between atoms: C_27  and  C_28
REMARK   14  A    between atoms: C_27  and  C_29
REMARK   15  A    between atoms: C_27  and  C_30
REMARK                            x       y       z     vdW  Elec       q    Type
REMARK                         _______ _______ _______ _____ _____    ______ ____
ROOT
ATOM      1  C   UNL     1       2.592  -0.643  -2.656  0.00  0.00    +0.266 C 
ENDROOT
BRANCH   1   2
ATOM      2  C   UNL     1       4.038  -0.152  -2.736  0.00  0.00    +0.190 C 
ATOM      3  C   UNL     1       4.725  -0.783  -3.950  0.00  0.00    +0.178 C 
ATOM      4  C   UNL     1       6.153  -0.239  -4.059  0.00  0.00    +0.179 C 
ATOM      5  C   UNL     1       6.101   1.289  -4.149  0.00  0.00    +0.201 C 
ATOM      6  C   UNL     1       5.361   1.840  -2.928  0.00  0.00    +0.279 C 
ATOM      7  O   UNL     1       4.051   1.271  -2.869  0.00  0.00    -0.340 OA
BRANCH   6   8
ATOM      8  O   UNL     1       5.260   3.261  -3.033  0.00  0.00    -0.365 OA
ATOM      9  H   UNL     1       4.801   3.679  -2.291  0.00  0.00    +0.213 HD
ENDBRANCH   6   8
BRANCH   5  10
ATOM     10  O   UNL     1       7.431   1.811  -4.179  0.00  0.00    -0.384 OA
ATOM     11  H   UNL     1       7.474   2.775  -4.237  0.00  0.00    +0.210 HD
ENDBRANCH   5  10
BRANCH   4  12
ATOM     12  O   UNL     1       6.901  -0.626  -2.904  0.00  0.00    -0.386 OA
ATOM     13  H   UNL     1       7.817  -0.316  -2.906  0.00  0.00    +0.210 HD
ENDBRANCH   4  12
BRANCH   3  14
ATOM     14  O   UNL     1       4.764  -2.202  -3.793  0.00  0.00    -0.386 OA
ATOM     15  H   UNL     1       5.186  -2.668  -4.528  0.00  0.00    +0.210 HD
ENDBRANCH   3  14
ENDBRANCH   1   2
BRANCH   1  16
ATOM     16  O   UNL     1       1.986  -0.147  -1.461  0.00  0.00    -0.461 OA
BRANCH  16  17
ATOM     17  C   UNL     1       0.707  -0.490  -1.238  0.00  0.00    +0.328 C 
ATOM     18  O   UNL     1       0.122  -1.188  -2.031  0.00  0.00    -0.249 OA
BRANCH  17  20
ATOM     19  C   UNL     1      -0.019   1.526   0.010  0.00  0.00    +0.040 C 
ATOM     20  C   UNL     1       0.002  -0.004   0.002  0.00  0.00    +0.182 C 
BRANCH  20  21
ATOM     21  N   UNL     1      -1.372  -0.511   0.012  0.00  0.00    -0.268 N 
ATOM     22  C   UNL     1      -2.029  -0.655   1.181  0.00  0.00    +0.401 C 
ATOM     23  O   UNL     1      -1.480  -0.364   2.225  0.00  0.00    -0.226 OA
ATOM     24  H   UNL     1      -1.810  -0.743  -0.822  0.00  0.00    +0.153 HD
BRANCH  22  25
ATOM     25  O   UNL     1      -3.292  -1.121   1.190  0.00  0.00    -0.445 OA
BRANCH  25  26
ATOM     26  C   UNL     1      -3.927  -1.248   2.464  0.00  0.00    +0.107 C 
ATOM     27  C   UNL     1      -3.989   0.122   3.142  0.00  0.00    +0.055 C 
ATOM     28  C   UNL     1      -5.346  -1.789   2.275  0.00  0.00    +0.055 C 
ATOM     29  C   UNL     1      -3.125  -2.215   3.339  0.00  0.00    +0.055 C 
ENDBRANCH  25  26
ENDBRANCH  22  25
ENDBRANCH  20  21
ENDBRANCH  17  20
ENDBRANCH  16  17
ENDBRANCH   1  16
TORSDOF 11
