REMARK  Name = ZINC28053241
REMARK  3 active torsions:
REMARK  status: ('A' for Active; 'I' for Inactive)
REMARK    1  A    between atoms: C_1  and  C_2
REMARK    2  A    between atoms: C_10  and  C_18
REMARK    3  A    between atoms: C_24  and  C_27
REMARK                            x       y       z     vdW  Elec       q    Type
REMARK                         _______ _______ _______ _____ _____    ______ ____
ROOT
ATOM      1  C   UNL     1      -0.690  -3.040  -0.203  0.00  0.00    +0.044 C 
ATOM      2  C   UNL     1      -1.309  -1.679  -0.015  0.00  0.00    -0.050 A 
ATOM      3  C   UNL     1      -2.636  -1.572   0.364  0.00  0.00    +0.007 A 
ATOM      4  C   UNL     1      -3.219  -0.329   0.540  0.00  0.00    +0.046 A 
ATOM      5  C   UNL     1      -2.471   0.815   0.334  0.00  0.00    +0.131 A 
ATOM      6  C   UNL     1      -1.127   0.708  -0.047  0.00  0.00    +0.038 A 
ATOM      7  C   UNL     1      -0.549  -0.543  -0.222  0.00  0.00    +0.016 A 
ATOM      8  C   UNL     1      -0.351   1.956  -0.258  0.00  0.00    +0.050 C 
ATOM      9  C   UNL     1      -1.018   3.103  -0.389  0.00  0.00    +0.026 C 
ATOM     10  C   UNL     1      -0.317   4.426  -0.574  0.00  0.00    +0.174 C 
ATOM     11  N   UNL     1       1.103   4.286  -0.287  0.00  0.00    -0.201 N 
ATOM     12  C   UNL     1       1.736   3.091  -0.158  0.00  0.00    +0.240 A 
ATOM     13  N   UNL     1       2.991   3.339   0.080  0.00  0.00    -0.092 NA
ATOM     14  N   UNL     1       3.195   4.611   0.119  0.00  0.00    -0.021 NA
ATOM     15  N   UNL     1       2.091   5.251  -0.094  0.00  0.00    -0.042 NA
ATOM     16  N   UNL     1       1.047   1.895  -0.280  0.00  0.00    -0.282 N 
ATOM     17  C   UNL     1      -2.529   3.083  -0.369  0.00  0.00    +0.237 C 
ATOM     18  O   UNL     1      -3.006   2.052   0.494  0.00  0.00    -0.479 OA
ATOM     19  H   UNL     1       1.554   0.925  -0.390  0.00  0.00    +0.155 HD
ENDROOT
BRANCH  17  20
ATOM     20  C   UNL     1      -3.042   2.838  -1.765  0.00  0.00    +0.032 A 
ATOM     21  C   UNL     1      -3.096   1.551  -2.265  0.00  0.00    +0.010 A 
ATOM     22  C   UNL     1      -3.571   1.325  -3.543  0.00  0.00    +0.001 A 
ATOM     23  C   UNL     1      -3.982   2.388  -4.327  0.00  0.00    +0.003 A 
ATOM     24  C   UNL     1      -3.923   3.676  -3.831  0.00  0.00    +0.039 A 
ATOM     25  C   UNL     1      -3.453   3.903  -2.549  0.00  0.00    +0.130 A 
ATOM     26  F   UNL     1      -3.395   5.162  -2.063  0.00  0.00    -0.205 F 
ENDBRANCH  17  20
BRANCH  10  27
ATOM     27  C   UNL     1      -0.496   4.891  -1.997  0.00  0.00    -0.019 A 
ATOM     28  C   UNL     1      -0.163   4.052  -3.045  0.00  0.00    +0.006 A 
ATOM     29  C   UNL     1      -0.331   4.477  -4.349  0.00  0.00    +0.000 A 
ATOM     30  C   UNL     1      -0.823   5.743  -4.606  0.00  0.00    +0.000 A 
ATOM     31  C   UNL     1      -1.150   6.583  -3.559  0.00  0.00    +0.000 A 
ATOM     32  C   UNL     1      -0.987   6.157  -2.254  0.00  0.00    +0.006 A 
ENDBRANCH  10  27
TORSDOF 2
