REMARK  Name = ZINC62195033
REMARK  4 active torsions:
REMARK  status: ('A' for Active; 'I' for Inactive)
REMARK    1  A    between atoms: C_4  and  O_7
REMARK    2  A    between atoms: O_7  and  C_8
REMARK    3  A    between atoms: N_13  and  S_15
REMARK    4  A    between atoms: S_15  and  C_18
REMARK                            x       y       z     vdW  Elec       q    Type
REMARK                         _______ _______ _______ _____ _____    ______ ____
ROOT
ATOM      1  S   UNL     1       4.814  -4.879   2.271  0.00  0.00    +0.061 S 
ATOM      2  O   UNL     1       4.307  -4.025   3.287  0.00  0.00    -0.153 OA
ATOM      3  O   UNL     1       4.254  -6.157   2.000  0.00  0.00    -0.153 OA
ENDROOT
BRANCH   1   4
ATOM      4  C   UNL     1       6.517  -5.144   2.638  0.00  0.00    +0.108 A 
ATOM      5  C   UNL     1       7.159  -6.272   2.156  0.00  0.00    +0.030 A 
ATOM      6  C   UNL     1       8.493  -6.488   2.439  0.00  0.00    +0.030 A 
ATOM      7  C   UNL     1       9.193  -5.571   3.208  0.00  0.00    +0.067 A 
ATOM      8  C   UNL     1       8.546  -4.433   3.694  0.00  0.00    +0.069 A 
ATOM      9  C   UNL     1       7.207  -4.222   3.400  0.00  0.00    +0.056 A 
ATOM     10  N   UNL     1       9.491  -3.712   4.420  0.00  0.00    -0.306 N 
ATOM     11  H   UNL     1       9.334  -2.871   4.878  0.00  0.00    +0.170 HD
ATOM     12  C   UNL     1      10.659  -4.380   4.378  0.00  0.00    +0.325 A 
ATOM     13  O   UNL     1      11.691  -4.021   4.913  0.00  0.00    -0.247 OA
ATOM     14  N   UNL     1      10.511  -5.506   3.654  0.00  0.00    -0.306 N 
ATOM     15  H   UNL     1      11.204  -6.160   3.474  0.00  0.00    +0.170 HD
ENDBRANCH   1   4
BRANCH   1  20
ATOM     16  C   UNL     1       3.535  -2.056   0.067  0.00  0.00    +0.189 C 
ATOM     17  C   UNL     1       3.568  -2.672  -1.333  0.00  0.00    +0.047 C 
ATOM     18  C   UNL     1       3.481  -4.196  -1.225  0.00  0.00    +0.021 C 
ATOM     19  C   UNL     1       4.688  -4.718  -0.438  0.00  0.00    +0.110 C 
ATOM     20  N   UNL     1       4.746  -4.023   0.855  0.00  0.00    -0.173 NA
ATOM     21  C   UNL     1       4.742  -2.554   0.869  0.00  0.00    +0.154 C 
BRANCH  16  22
ATOM     22  O   UNL     1       3.586  -0.632  -0.037  0.00  0.00    -0.487 OA
BRANCH  22  26
ATOM     23  C   UNL     1       0.007   1.330  -0.638  0.00  0.00    +0.000 A 
ATOM     24  C   UNL     1       0.045  -0.052  -0.639  0.00  0.00    +0.004 A 
ATOM     25  C   UNL     1       1.242  -0.711  -0.438  0.00  0.00    +0.045 A 
ATOM     26  C   UNL     1       2.407   0.015  -0.235  0.00  0.00    +0.121 A 
ATOM     27  C   UNL     1       2.366   1.401  -0.234  0.00  0.00    +0.045 A 
ATOM     28  C   UNL     1       1.166   2.056  -0.435  0.00  0.00    +0.004 A 
ENDBRANCH  22  26
ENDBRANCH  16  22
ENDBRANCH   1  20
TORSDOF 4
