REMARK  Name = ZINC47758365
REMARK  7 active torsions:
REMARK  status: ('A' for Active; 'I' for Inactive)
REMARK    1  A    between atoms: C_1  and  C_2
REMARK    2  A    between atoms: C_5  and  C_18
REMARK    3  A    between atoms: C_7  and  N_8
REMARK    4  A    between atoms: N_11  and  C_12
REMARK    5  A    between atoms: C_12  and  C_13
REMARK    6  A    between atoms: C_22  and  C_29
REMARK    7  A    between atoms: C_25  and  C_28
REMARK                            x       y       z     vdW  Elec       q    Type
REMARK                         _______ _______ _______ _____ _____    ______ ____
ROOT
ATOM      1  C   UNL     1      -0.039   1.460  -0.019  0.00  0.00    +0.045 C 
ATOM      2  C   UNL     1       0.004  -0.047  -0.003  0.00  0.00    -0.029 A 
ATOM      3  C   UNL     1      -0.342  -0.758  -1.137  0.00  0.00    +0.006 A 
ATOM      4  C   UNL     1      -0.306  -2.137  -1.130  0.00  0.00    +0.013 A 
ATOM      5  C   UNL     1       0.081  -2.819   0.025  0.00  0.00    +0.039 A 
ATOM      6  C   UNL     1       0.430  -2.102   1.169  0.00  0.00    +0.036 A 
ATOM      7  C   UNL     1       0.395  -0.716   1.150  0.00  0.00    +0.038 A 
ENDROOT
BRANCH   5   8
ATOM      8  C   UNL     1       0.120  -4.297   0.035  0.00  0.00    +0.247 C 
ATOM      9  O   UNL     1      -0.283  -4.909   1.006  0.00  0.00    -0.270 OA
ATOM     10  N   UNL     1       0.602  -4.966  -1.030  0.00  0.00    -0.297 N 
ATOM     11  C   UNL     1       1.015  -4.246  -2.243  0.00  0.00    +0.111 C 
ATOM     12  C   UNL     1       2.450  -4.651  -2.592  0.00  0.00    +0.004 C 
ATOM     13  C   UNL     1       2.532  -6.174  -2.708  0.00  0.00    +0.009 C 
ATOM     14  C   UNL     1       2.165  -6.810  -1.366  0.00  0.00    +0.004 C 
ATOM     15  C   UNL     1       0.732  -6.429  -1.000  0.00  0.00    +0.111 C 
ATOM     16  C   UNL     1       2.280  -8.332  -1.473  0.00  0.00    +0.009 C 
ATOM     17  C   UNL     1       2.850  -4.014  -3.925  0.00  0.00    +0.009 C 
ENDBRANCH   5   8
BRANCH   7  18
ATOM     18  N   UNL     1       0.749   0.009   2.294  0.00  0.00    -0.269 N 
ATOM     19  C   UNL     1       0.610  -0.547   3.514  0.00  0.00    +0.304 C 
ATOM     20  O   UNL     1       0.250  -1.704   3.617  0.00  0.00    -0.252 OA
ATOM     21  N   UNL     1       0.869   0.180   4.619  0.00  0.00    -0.292 N 
ATOM     22  H   UNL     1       1.095   0.911   2.208  0.00  0.00    +0.156 HD
ATOM     23  H   UNL     1       1.156   1.103   4.536  0.00  0.00    +0.151 HD
BRANCH  21  24
ATOM     24  C   UNL     1       0.717  -0.424   5.945  0.00  0.00    +0.180 C 
BRANCH  24  25
ATOM     25  C   UNL     1       1.065   0.591   7.002  0.00  0.00    +0.122 A 
ATOM     26  C   UNL     1       0.205   1.444   7.588  0.00  0.00    +0.046 A 
ATOM     27  C   UNL     1       0.953   2.209   8.512  0.00  0.00    +0.041 A 
ATOM     28  C   UNL     1       2.225   1.779   8.436  0.00  0.00    +0.195 A 
ATOM     29  O   UNL     1       2.286   0.794   7.524  0.00  0.00    -0.466 OA
ENDBRANCH  24  25
ENDBRANCH  21  24
ENDBRANCH   7  18
TORSDOF 4
