REMARK  Name = ZINC17080487
REMARK  5 active torsions:
REMARK  status: ('A' for Active; 'I' for Inactive)
REMARK    1  A    between atoms: C_1  and  C_2
REMARK    2  A    between atoms: C_5  and  N_9
REMARK    3  A    between atoms: C_7  and  C_8
REMARK    4  A    between atoms: C_12  and  C_23
REMARK    5  A    between atoms: C_18  and  C_22
REMARK                            x       y       z     vdW  Elec       q    Type
REMARK                         _______ _______ _______ _____ _____    ______ ____
ROOT
ATOM      1  N   UNL     1      -0.236  -4.554   0.365  0.00  0.00    -0.284 N 
ATOM      2  C   UNL     1      -0.193  -5.059  -0.922  0.00  0.00    +0.220 C 
ATOM      3  N   UNL     1      -0.284  -6.357  -1.090  0.00  0.00    -0.224 NA
ATOM      4  C   UNL     1      -0.238  -6.891  -2.464  0.00  0.00    +0.236 C 
ATOM      5  N   UNL     1      -0.091  -5.907  -3.546  0.00  0.00    -0.209 N 
ATOM      6  C   UNL     1      -0.039  -6.299  -4.845  0.00  0.00    +0.249 C 
ATOM      7  O   UNL     1      -0.122  -7.606  -5.174  0.00  0.00    -0.270 OA
ATOM      8  C   UNL     1       0.100  -5.331  -5.825  0.00  0.00    +0.091 C 
ATOM      9  C   UNL     1       0.181  -3.997  -5.444  0.00  0.00    +0.047 C 
ATOM     10  N   UNL     1       0.126  -3.658  -4.171  0.00  0.00    -0.219 NA
ATOM     11  C   UNL     1      -0.008  -4.580  -3.213  0.00  0.00    +0.230 C 
ATOM     12  N   UNL     1      -0.066  -4.207  -1.939  0.00  0.00    -0.181 NA
ATOM     13  C   UNL     1       0.333  -2.928  -6.496  0.00  0.00    +0.066 C 
ATOM     14  H   UNL     1      -0.250  -5.159   1.123  0.00  0.00    +0.155 HD
ENDROOT
BRANCH   1  19
ATOM     15  C   UNL     1      -0.327   1.054   1.209  0.00  0.00    +0.044 C 
ATOM     16  C   UNL     1      -0.302  -0.436   0.985  0.00  0.00    -0.047 A 
ATOM     17  C   UNL     1      -0.934  -0.978  -0.120  0.00  0.00    +0.005 A 
ATOM     18  C   UNL     1      -0.913  -2.342  -0.328  0.00  0.00    +0.023 A 
ATOM     19  C   UNL     1      -0.258  -3.171   0.573  0.00  0.00    +0.034 A 
ATOM     20  C   UNL     1       0.376  -2.624   1.681  0.00  0.00    +0.027 A 
ATOM     21  C   UNL     1       0.356  -1.258   1.881  0.00  0.00    -0.046 A 
ATOM     22  C   UNL     1       1.048  -0.662   3.080  0.00  0.00    +0.044 C 
ENDBRANCH   1  19
BRANCH   4  23
ATOM     23  C   UNL     1       0.916  -7.856  -2.551  0.00  0.00    -0.003 A 
ATOM     24  C   UNL     1       2.213  -7.397  -2.410  0.00  0.00    +0.007 A 
ATOM     25  C   UNL     1       3.272  -8.281  -2.490  0.00  0.00    +0.002 A 
ATOM     26  C   UNL     1       3.035  -9.625  -2.711  0.00  0.00    +0.020 A 
ATOM     27  C   UNL     1       1.738 -10.085  -2.853  0.00  0.00    +0.041 A 
ATOM     28  C   UNL     1       0.678  -9.200  -2.766  0.00  0.00    +0.027 A 
ATOM     29 CL   UNL     1       1.440 -11.772  -3.131  0.00  0.00    -0.084 Cl
ENDBRANCH   4  23
TORSDOF 2
