REMARK  Name = ZINC04599096
REMARK  7 active torsions:
REMARK  status: ('A' for Active; 'I' for Inactive)
REMARK    1  A    between atoms: C_1  and  N_2
REMARK    2  A    between atoms: C_6  and  C_7
REMARK    3  A    between atoms: C_10  and  O_15
REMARK    4  A    between atoms: C_11  and  O_13
REMARK    5  A    between atoms: O_13  and  C_14
REMARK    6  A    between atoms: N_18  and  C_19
REMARK    7  A    between atoms: C_23  and  C_25
REMARK                            x       y       z     vdW  Elec       q    Type
REMARK                         _______ _______ _______ _____ _____    ______ ____
ROOT
ATOM      1  C   UNL     1       0.525  -3.811   2.767  0.00  0.00    +0.140 C 
ATOM      2  N   UNL     1       1.876  -4.272   2.438  0.00  0.00    -0.249 N 
ATOM      3  C   UNL     1       2.347  -5.373   2.999  0.00  0.00    +0.259 C 
ATOM      4  O   UNL     1       1.683  -6.019   3.788  0.00  0.00    -0.269 OA
ATOM      5  C   UNL     1       3.715  -5.782   2.626  0.00  0.00    +0.078 C 
ATOM      6  C   UNL     1       4.437  -6.853   3.042  0.00  0.00    +0.028 C 
ATOM      7  S   UNL     1       4.161  -4.493   1.472  0.00  0.00    -0.049 S 
ATOM      8  C   UNL     1       2.644  -3.554   1.547  0.00  0.00    +0.168 C 
ATOM      9  N   UNL     1       2.333  -2.451   0.905  0.00  0.00    -0.225 NA
ENDROOT
BRANCH   6  10
ATOM     10  C   UNL     1       5.786  -7.081   2.509  0.00  0.00    -0.020 A 
ATOM     11  C   UNL     1       6.540  -6.006   2.023  0.00  0.00    +0.012 A 
ATOM     12  C   UNL     1       7.806  -6.223   1.524  0.00  0.00    +0.050 A 
ATOM     13  C   UNL     1       8.336  -7.505   1.500  0.00  0.00    +0.158 A 
ATOM     14  C   UNL     1       7.593  -8.581   1.983  0.00  0.00    +0.162 A 
ATOM     15  C   UNL     1       6.325  -8.373   2.491  0.00  0.00    +0.057 A 
BRANCH  14  16
ATOM     16  O   UNL     1       8.117  -9.836   1.959  0.00  0.00    -0.491 OA
ATOM     17  C   UNL     1       7.300 -10.891   2.469  0.00  0.00    +0.277 C 
ENDBRANCH  14  16
BRANCH  13  18
ATOM     18  O   UNL     1       9.585  -7.713   1.007  0.00  0.00    -0.503 OA
ATOM     19  H   UNL     1      10.286  -7.646   1.669  0.00  0.00    +0.292 HD
ENDBRANCH  13  18
ENDBRANCH   6  10
BRANCH   9  20
ATOM     20  C   UNL     1       1.163  -1.800   1.188  0.00  0.00    +0.067 A 
ATOM     21  C   UNL     1       0.970  -1.221   2.446  0.00  0.00    +0.028 A 
ATOM     22  C   UNL     1      -0.209  -0.565   2.733  0.00  0.00    +0.003 A 
ATOM     23  C   UNL     1      -1.205  -0.469   1.780  0.00  0.00    +0.015 A 
ATOM     24  C   UNL     1      -1.028  -1.048   0.521  0.00  0.00    +0.065 A 
ATOM     25  C   UNL     1       0.160  -1.713   0.224  0.00  0.00    +0.043 A 
BRANCH  24  26
ATOM     26  C   UNL     1      -2.097  -0.951  -0.495  0.00  0.00    +0.387 C 
ATOM     27  O   UNL     1      -1.940  -1.450  -1.591  0.00  0.00    -0.241 OA
ATOM     28  O   UNL     1      -3.247  -0.313  -0.203  0.00  0.00    -0.241 OA
ENDBRANCH  24  26
ENDBRANCH   9  20
TORSDOF 5
