REMARK  Name = ZINC04835749
REMARK  7 active torsions:
REMARK  status: ('A' for Active; 'I' for Inactive)
REMARK    1  A    between atoms: C_1  and  C_2
REMARK    2  A    between atoms: C_2  and  C_4
REMARK    3  A    between atoms: C_2  and  S_11
REMARK    4  A    between atoms: N_9  and  C_10
REMARK    5  A    between atoms: S_11  and  C_12
REMARK    6  A    between atoms: C_15  and  C_23
REMARK    7  A    between atoms: N_16  and  C_17
REMARK                            x       y       z     vdW  Elec       q    Type
REMARK                         _______ _______ _______ _____ _____    ______ ____
ROOT
ATOM      1  C   UNL     1      -2.114  -0.776   1.419  0.00  0.00    +0.197 A 
ATOM      2  N   UNL     1      -0.935  -1.351   1.488  0.00  0.00    -0.122 NA
ATOM      3  N   UNL     1      -1.069  -2.626   1.583  0.00  0.00    -0.127 NA
ATOM      4  C   UNL     1      -2.344  -2.946   1.581  0.00  0.00    +0.176 A 
ATOM      5  N   UNL     1      -3.055  -1.769   1.481  0.00  0.00    -0.270 N 
ENDROOT
BRANCH   5   6
ATOM      6  C   UNL     1      -4.449  -1.621   1.447  0.00  0.00    +0.051 A 
ATOM      7  C   UNL     1      -5.213  -1.970   2.552  0.00  0.00    +0.026 A 
ATOM      8  C   UNL     1      -6.585  -1.817   2.517  0.00  0.00    +0.002 A 
ATOM      9  C   UNL     1      -7.199  -1.327   1.379  0.00  0.00    +0.000 A 
ATOM     10  C   UNL     1      -6.441  -0.983   0.275  0.00  0.00    +0.002 A 
ATOM     11  C   UNL     1      -5.068  -1.129   0.305  0.00  0.00    +0.026 A 
ENDBRANCH   5   6
BRANCH   4  12
ATOM     12  C   UNL     1      -2.905  -4.303   1.674  0.00  0.00    +0.057 A 
ATOM     13  C   UNL     1      -2.290  -5.470   2.053  0.00  0.00    +0.019 A 
ATOM     14  C   UNL     1      -3.027  -6.633   2.064  0.00  0.00    +0.008 A 
ATOM     15  C   UNL     1      -4.335  -6.591   1.700  0.00  0.00    +0.046 A 
ATOM     16  S   UNL     1      -4.567  -4.859   1.331  0.00  0.00    -0.094 S 
ENDBRANCH   4  12
BRANCH   1  17
ATOM     17  S   UNL     1      -2.427   0.953   1.280  0.00  0.00    -0.073 S 
BRANCH  17  19
ATOM     18  C   UNL     1      -0.013   1.086   0.008  0.00  0.00    +0.029 C 
ATOM     19  C   UNL     1      -0.729   1.579   1.267  0.00  0.00    +0.137 C 
BRANCH  19  20
ATOM     20  C   UNL     1      -0.749   3.086   1.275  0.00  0.00    +0.233 C 
ATOM     21  O   UNL     1      -1.747   3.681   0.929  0.00  0.00    -0.274 OA
ATOM     22  N   UNL     1       0.342   3.773   1.668  0.00  0.00    -0.239 N 
ATOM     23  C   UNL     1       0.324   5.120   1.675  0.00  0.00    +0.306 C 
ATOM     24  O   UNL     1      -0.677   5.716   1.328  0.00  0.00    -0.252 OA
ATOM     25  N   UNL     1       1.415   5.807   2.067  0.00  0.00    -0.302 N 
ATOM     26  C   UNL     1       1.395   7.272   2.076  0.00  0.00    +0.129 C 
ATOM     27  H   UNL     1       1.141   3.297   1.945  0.00  0.00    +0.159 HD
ATOM     28  H   UNL     1       2.214   5.331   2.345  0.00  0.00    +0.150 HD
ENDBRANCH  19  20
ENDBRANCH  17  19
ENDBRANCH   1  17
TORSDOF 5
