REMARK  Name = ZINC39492369
REMARK  9 active torsions:
REMARK  status: ('A' for Active; 'I' for Inactive)
REMARK    1  A    between atoms: C_1  and  C_2
REMARK    2  A    between atoms: N_4  and  C_5
REMARK    3  A    between atoms: C_5  and  C_7
REMARK    4  A    between atoms: C_5  and  C_13
REMARK    5  A    between atoms: C_13  and  C_15
REMARK    6  A    between atoms: C_13  and  C_22
REMARK    7  A    between atoms: C_20  and  O_21
REMARK    8  A    between atoms: C_22  and  C_24
REMARK    9  A    between atoms: C_29  and  O_30
REMARK                            x       y       z     vdW  Elec       q    Type
REMARK                         _______ _______ _______ _____ _____    ______ ____
ROOT
ATOM      1  C   UNL     1       1.121  -2.422  -0.193  0.00  0.00    +0.118 C 
ENDROOT
BRANCH   1   2
ATOM      2  C   UNL     1       1.173  -3.897   0.113  0.00  0.00    +0.007 A 
ATOM      3  C   UNL     1       1.319  -4.811  -0.913  0.00  0.00    +0.008 A 
ATOM      4  C   UNL     1       1.367  -6.164  -0.632  0.00  0.00    +0.001 A 
ATOM      5  C   UNL     1       1.269  -6.606   0.674  0.00  0.00    +0.004 A 
ATOM      6  C   UNL     1       1.123  -5.696   1.703  0.00  0.00    +0.046 A 
ATOM      7  C   UNL     1       1.081  -4.337   1.425  0.00  0.00    +0.121 A 
BRANCH   7   8
ATOM      8  O   UNL     1       0.943  -3.440   2.436  0.00  0.00    -0.506 OA
ATOM      9  H   UNL     1       0.025  -3.227   2.651  0.00  0.00    +0.292 HD
ENDBRANCH   7   8
ENDBRANCH   1   2
BRANCH   1  10
ATOM     10  C   UNL     1       2.397  -2.006  -0.879  0.00  0.00    +0.176 C 
ATOM     11  O   UNL     1       2.447  -1.961  -2.091  0.00  0.00    -0.291 OA
BRANCH  10  12
ATOM     12  C   UNL     1       3.579  -1.656  -0.082  0.00  0.00    +0.059 A 
ATOM     13  C   UNL     1       3.527  -1.712   1.316  0.00  0.00    +0.015 A 
ATOM     14  C   UNL     1       4.640  -1.382   2.057  0.00  0.00    +0.001 A 
ATOM     15  C   UNL     1       5.812  -0.994   1.426  0.00  0.00    +0.004 A 
ATOM     16  C   UNL     1       5.877  -0.933   0.048  0.00  0.00    +0.046 A 
ATOM     17  C   UNL     1       4.770  -1.268  -0.717  0.00  0.00    +0.127 A 
BRANCH  17  18
ATOM     18  O   UNL     1       4.835  -1.214  -2.070  0.00  0.00    -0.506 OA
ATOM     19  H   UNL     1       4.590  -0.356  -2.442  0.00  0.00    +0.292 HD
ENDBRANCH  17  18
ENDBRANCH  10  12
ENDBRANCH   1  10
BRANCH   1  20
ATOM     20  C   UNL     1      -0.069  -2.134  -1.111  0.00  0.00    +0.118 C 
BRANCH  20  21
ATOM     21  C   UNL     1      -1.344  -2.550  -0.424  0.00  0.00    -0.026 A 
ATOM     22  C   UNL     1      -1.854  -1.786   0.609  0.00  0.00    +0.005 A 
ATOM     23  C   UNL     1      -3.024  -2.168   1.238  0.00  0.00    +0.000 A 
ATOM     24  C   UNL     1      -3.685  -3.313   0.834  0.00  0.00    +0.000 A 
ATOM     25  C   UNL     1      -3.175  -4.076  -0.200  0.00  0.00    +0.000 A 
ATOM     26  C   UNL     1      -2.008  -3.692  -0.832  0.00  0.00    +0.005 A 
ENDBRANCH  20  21
BRANCH  20  30
ATOM     27  C   UNL     1      -0.866   1.211  -2.790  0.00  0.00    +0.109 C 
ATOM     28  C   UNL     1      -0.712  -0.267  -2.539  0.00  0.00    +0.210 C 
ATOM     29  O   UNL     1      -1.121  -1.067  -3.354  0.00  0.00    -0.276 OA
ATOM     30  N   UNL     1      -0.119  -0.700  -1.408  0.00  0.00    -0.308 N 
ATOM     31  H   UNL     1       0.273  -0.063  -0.792  0.00  0.00    +0.149 HD
ENDBRANCH  20  30
ENDBRANCH   1  20
TORSDOF 8
