REMARK  Name = ZINC02299343
REMARK  5 active torsions:
REMARK  status: ('A' for Active; 'I' for Inactive)
REMARK    1  A    between atoms: C_4  and  C_7
REMARK    2  A    between atoms: N_9  and  C_10
REMARK    3  A    between atoms: C_10  and  N_12
REMARK    4  A    between atoms: N_12  and  N_13
REMARK    5  A    between atoms: N_20  and  C_21
REMARK                            x       y       z     vdW  Elec       q    Type
REMARK                         _______ _______ _______ _____ _____    ______ ____
ROOT
ATOM      1  N   UNL     1       4.764   0.094   0.201  0.00  0.00    -0.234 N 
ATOM      2  C   UNL     1       4.768   1.460   0.103  0.00  0.00    +0.220 A 
ATOM      3  N   UNL     1       5.919   2.101   0.082  0.00  0.00    -0.214 NA
ATOM      4  C   UNL     1       5.961   3.434  -0.007  0.00  0.00    +0.084 A 
ATOM      5  C   UNL     1       4.781   4.161  -0.078  0.00  0.00    +0.050 A 
ATOM      6  C   UNL     1       3.562   3.474  -0.060  0.00  0.00    +0.264 A 
ATOM      7  O   UNL     1       2.504   4.080  -0.119  0.00  0.00    -0.267 OA
ATOM      8  N   UNL     1       3.582   2.126   0.026  0.00  0.00    -0.248 N 
ATOM      9  C   UNL     1       4.828   5.660  -0.167  0.00  0.00    +0.007 C 
ATOM     10  C   UNL     1       3.496   6.255   0.326  0.00  0.00    +0.012 C 
ATOM     11  C   UNL     1       3.250   7.462  -0.614  0.00  0.00    +0.001 C 
ATOM     12  C   UNL     1       3.751   6.939  -1.983  0.00  0.00    +0.001 C 
ATOM     13  C   UNL     1       4.994   6.093  -1.633  0.00  0.00    +0.012 C 
ATOM     14  C   UNL     1       5.980   6.214   0.669  0.00  0.00    +0.047 C 
ATOM     15  C   UNL     1       7.265   5.519   0.300  0.00  0.00    -0.037 A 
ATOM     16  C   UNL     1       7.250   4.164  -0.035  0.00  0.00    +0.004 A 
ATOM     17  C   UNL     1       8.432   3.519  -0.384  0.00  0.00    +0.010 A 
ATOM     18  C   UNL     1       9.619   4.224  -0.392  0.00  0.00    +0.001 A 
ATOM     19  C   UNL     1       9.631   5.566  -0.055  0.00  0.00    +0.000 A 
ATOM     20  C   UNL     1       8.457   6.213   0.290  0.00  0.00    +0.004 A 
ATOM     21  H   UNL     1       3.927  -0.394   0.142  0.00  0.00    +0.173 HD
ENDROOT
BRANCH   8  22
ATOM     22  C   UNL     1       2.377   1.411   0.040  0.00  0.00    +0.053 A 
ATOM     23  C   UNL     1       2.062   0.558  -1.009  0.00  0.00    +0.026 A 
ATOM     24  C   UNL     1       0.875  -0.147  -0.992  0.00  0.00    +0.002 A 
ATOM     25  C   UNL     1      -0.001  -0.004   0.069  0.00  0.00    +0.000 A 
ATOM     26  C   UNL     1       0.310   0.846   1.115  0.00  0.00    +0.002 A 
ATOM     27  C   UNL     1       1.496   1.553   1.104  0.00  0.00    +0.026 A 
ENDBRANCH   8  22
BRANCH   1  28
ATOM     28  N   UNL     1       5.967  -0.599   0.385  0.00  0.00    -0.245 N 
ATOM     29  H   UNL     1       6.794  -0.109   0.516  0.00  0.00    +0.172 HD
BRANCH  28  30
ATOM     30  C   UNL     1       5.977  -1.947   0.380  0.00  0.00    +0.153 C 
ATOM     31  S   UNL     1       7.462  -2.793   0.476  0.00  0.00    -0.017 S 
BRANCH  30  34
ATOM     32  C   UNL     1       4.816  -3.972   0.404  0.00  0.00    +0.250 C 
ATOM     33  O   UNL     1       5.845  -4.561   0.669  0.00  0.00    -0.270 OA
ATOM     34  N   UNL     1       4.817  -2.628   0.299  0.00  0.00    -0.263 N 
ATOM     35  H   UNL     1       3.982  -2.152   0.165  0.00  0.00    +0.157 HD
BRANCH  32  39
ATOM     36  C   UNL     1       1.217  -6.146  -0.192  0.00  0.00    +0.000 A 
ATOM     37  C   UNL     1       2.362  -6.809   0.212  0.00  0.00    +0.001 A 
ATOM     38  C   UNL     1       3.535  -6.109   0.407  0.00  0.00    +0.013 A 
ATOM     39  C   UNL     1       3.564  -4.729   0.197  0.00  0.00    +0.037 A 
ATOM     40  C   UNL     1       2.402  -4.066  -0.206  0.00  0.00    +0.013 A 
ATOM     41  C   UNL     1       1.238  -4.779  -0.403  0.00  0.00    +0.001 A 
ENDBRANCH  32  39
ENDBRANCH  30  34
ENDBRANCH  28  30
ENDBRANCH   1  28
TORSDOF 5
