REMARK  Name = ZINC42073126
REMARK  8 active torsions:
REMARK  status: ('A' for Active; 'I' for Inactive)
REMARK    1  A    between atoms: C_1  and  C_2
REMARK    2  A    between atoms: C_2  and  C_4
REMARK    3  A    between atoms: C_2  and  N_17
REMARK    4  A    between atoms: C_7  and  N_10
REMARK    5  A    between atoms: N_13  and  C_14
REMARK    6  A    between atoms: C_18  and  C_20
REMARK    7  A    between atoms: N_22  and  C_23
REMARK    8  A    between atoms: C_26  and  C_29
REMARK                            x       y       z     vdW  Elec       q    Type
REMARK                         _______ _______ _______ _____ _____    ______ ____
ROOT
ATOM      1  C   UNL     1      -0.409   1.053  -0.004  0.00  0.00    +0.033 C 
ATOM      2  C   UNL     1       0.287  -0.306  -0.105  0.00  0.00    +0.101 C 
ENDROOT
BRANCH   2   3
ATOM      3  C   UNL     1      -0.693  -1.335  -0.607  0.00  0.00    -0.027 A 
ATOM      4  C   UNL     1      -0.971  -1.421  -1.958  0.00  0.00    +0.007 A 
ATOM      5  C   UNL     1      -1.868  -2.364  -2.422  0.00  0.00    +0.023 A 
ATOM      6  C   UNL     1      -2.491  -3.225  -1.528  0.00  0.00    +0.035 A 
ATOM      7  C   UNL     1      -2.209  -3.137  -0.171  0.00  0.00    +0.023 A 
ATOM      8  C   UNL     1      -1.307  -2.196   0.285  0.00  0.00    +0.007 A 
BRANCH   6   9
ATOM      9  N   UNL     1      -3.401  -4.181  -1.994  0.00  0.00    -0.269 N 
ATOM     10  C   UNL     1      -3.219  -4.753  -3.201  0.00  0.00    +0.304 C 
ATOM     11  O   UNL     1      -2.215  -4.512  -3.843  0.00  0.00    -0.253 OA
ATOM     12  N   UNL     1      -4.149  -5.593  -3.696  0.00  0.00    -0.296 N 
ATOM     13  H   UNL     1      -4.163  -4.432  -1.448  0.00  0.00    +0.156 HD
ATOM     14  H   UNL     1      -4.950  -5.785  -3.184  0.00  0.00    +0.151 HD
BRANCH  12  15
ATOM     15  C   UNL     1      -3.951  -6.214  -5.008  0.00  0.00    +0.075 C 
ATOM     16  C   UNL     1      -5.151  -6.258  -5.957  0.00  0.00    +0.024 C 
ATOM     17  C   UNL     1      -4.667  -7.540  -5.277  0.00  0.00    +0.024 C 
ENDBRANCH  12  15
ENDBRANCH   6   9
ENDBRANCH   2   3
BRANCH   2  18
ATOM     18  N   UNL     1       1.414  -0.209  -1.036  0.00  0.00    -0.301 N 
ATOM     19  C   UNL     1       2.612   0.227  -0.600  0.00  0.00    +0.300 C 
ATOM     20  O   UNL     1       2.758   0.540   0.563  0.00  0.00    -0.265 OA
ATOM     21  H   UNL     1       1.298  -0.460  -1.966  0.00  0.00    +0.150 HD
BRANCH  19  22
ATOM     22  C   UNL     1       3.761   0.325  -1.549  0.00  0.00    +0.303 C 
ATOM     23  O   UNL     1       3.616   0.012  -2.713  0.00  0.00    -0.265 OA
ATOM     24  N   UNL     1       4.960   0.761  -1.114  0.00  0.00    -0.278 N 
ATOM     25  H   UNL     1       5.096   0.943  -0.171  0.00  0.00    +0.155 HD
BRANCH  24  26
ATOM     26  C   UNL     1       6.003   0.951  -2.018  0.00  0.00    +0.034 A 
ATOM     27  C   UNL     1       5.731   1.388  -3.311  0.00  0.00    +0.024 A 
ATOM     28  C   UNL     1       6.759   1.577  -4.206  0.00  0.00    +0.020 A 
ATOM     29  C   UNL     1       8.078   1.329  -3.816  0.00  0.00    +0.052 A 
ATOM     30  C   UNL     1       8.348   0.889  -2.517  0.00  0.00    +0.020 A 
ATOM     31  C   UNL     1       7.316   0.707  -1.625  0.00  0.00    +0.024 A 
BRANCH  29  32
ATOM     32  C   UNL     1       9.150   1.523  -4.745  0.00  0.00    +0.099 C 
ATOM     33  N   UNL     1      10.001   1.678  -5.483  0.00  0.00    -0.191 NA
ENDBRANCH  29  32
ENDBRANCH  24  26
ENDBRANCH  19  22
ENDBRANCH   2  18
TORSDOF 7
