REMARK  Name = ZINC01504967
REMARK  4 active torsions:
REMARK  status: ('A' for Active; 'I' for Inactive)
REMARK    1  A    between atoms: C_1  and  N_2
REMARK    2  A    between atoms: N_12  and  N_13
REMARK    3  A    between atoms: C_14  and  C_16
REMARK    4  A    between atoms: C_19  and  O_22
REMARK                            x       y       z     vdW  Elec       q    Type
REMARK                         _______ _______ _______ _____ _____    ______ ____
ROOT
ATOM      1  C   UNL     1      -0.018   1.461   0.010  0.00  0.00    +0.138 C 
ATOM      2  N   UNL     1       0.002  -0.004   0.002  0.00  0.00    -0.268 N 
ATOM      3  C   UNL     1      -1.137  -0.803   0.003  0.00  0.00    +0.060 A 
ATOM      4  C   UNL     1      -0.756  -2.151  -0.007  0.00  0.00    +0.031 A 
ATOM      5  C   UNL     1      -1.719  -3.154  -0.008  0.00  0.00    +0.027 A 
ATOM      6  C   UNL     1      -3.059  -2.818   0.001  0.00  0.00    +0.020 A 
ATOM      7  C   UNL     1      -3.440  -1.486   0.011  0.00  0.00    +0.032 A 
ATOM      8  C   UNL     1      -2.490  -0.483   0.012  0.00  0.00    +0.041 A 
ATOM      9 BR   UNL     1      -3.031   1.329   0.026  0.00  0.00    -0.048 Br
ATOM     10 BR   UNL     1      -4.375  -4.176  -0.001  0.00  0.00    -0.050 Br
ATOM     11  C   UNL     1       0.725  -2.168  -0.015  0.00  0.00    +0.153 C 
ATOM     12  N   UNL     1       1.512  -3.217  -0.025  0.00  0.00    -0.174 NA
ATOM     13  C   UNL     1       1.123  -0.746  -0.013  0.00  0.00    +0.271 C 
ATOM     14  O   UNL     1       2.263  -0.321  -0.022  0.00  0.00    -0.268 OA
ENDROOT
BRANCH  12  15
ATOM     15  N   UNL     1       2.903  -3.049  -0.031  0.00  0.00    -0.202 N 
ATOM     16  C   UNL     1       3.711  -4.127  -0.042  0.00  0.00    +0.263 C 
ATOM     17  O   UNL     1       3.234  -5.245  -0.047  0.00  0.00    -0.268 OA
ATOM     18  H   UNL     1       3.284  -2.157  -0.028  0.00  0.00    +0.178 HD
BRANCH  16  19
ATOM     19  C   UNL     1       5.176  -3.951  -0.049  0.00  0.00    +0.039 A 
ATOM     20  C   UNL     1       5.727  -2.666  -0.037  0.00  0.00    +0.016 A 
ATOM     21  C   UNL     1       7.094  -2.506  -0.043  0.00  0.00    +0.046 A 
ATOM     22  C   UNL     1       7.927  -3.619  -0.061  0.00  0.00    +0.117 A 
ATOM     23  C   UNL     1       7.383  -4.899  -0.073  0.00  0.00    +0.046 A 
ATOM     24  C   UNL     1       6.016  -5.068  -0.060  0.00  0.00    +0.016 A 
BRANCH  22  25
ATOM     25  O   UNL     1       9.274  -3.457  -0.067  0.00  0.00    -0.507 OA
ATOM     26  H   UNL     1       9.670  -3.420   0.814  0.00  0.00    +0.292 HD
ENDBRANCH  22  25
ENDBRANCH  16  19
ENDBRANCH  12  15
TORSDOF 3
