REMARK  Name = ZINC57641434
REMARK  15 active torsions:
REMARK  status: ('A' for Active; 'I' for Inactive)
REMARK    1  A    between atoms: C_1  and  C_2
REMARK    2  A    between atoms: C_2  and  C_3
REMARK    3  A    between atoms: C_3  and  C_5
REMARK    4  A    between atoms: C_3  and  N_15
REMARK    5  A    between atoms: N_9  and  C_10
REMARK    6  A    between atoms: C_10  and  C_11
REMARK    7  A    between atoms: C_10  and  C_12
REMARK    8  A    between atoms: C_10  and  C_13
REMARK    9  A    between atoms: C_13  and  C_14
REMARK   10  A    between atoms: N_15  and  C_16
REMARK   11  A    between atoms: N_15  and  C_24
REMARK   12  A    between atoms: C_16  and  C_17
REMARK   13  A    between atoms: C_24  and  C_25
REMARK   14  A    between atoms: C_29  and  C_38
REMARK   15  A    between atoms: C_30  and  C_37
REMARK                            x       y       z     vdW  Elec       q    Type
REMARK                         _______ _______ _______ _____ _____    ______ ____
ROOT
ATOM      1  N   UNL     1       0.015   0.505   3.109  0.00  0.00    -0.284 NA
ENDROOT
BRANCH   1   2
ATOM      2  C   UNL     1       0.575  -0.613   2.337  0.00  0.00    +0.127 C 
BRANCH   2   3
ATOM      3  C   UNL     1      -0.236  -0.814   1.083  0.00  0.00    +0.169 A 
ATOM      4  N   UNL     1      -0.837   0.117   0.383  0.00  0.00    -0.112 NA
ATOM      5  N   UNL     1      -1.423  -0.451  -0.614  0.00  0.00    -0.023 NA
ATOM      6  N   UNL     1      -1.212  -1.720  -0.568  0.00  0.00    -0.043 NA
ATOM      7  N   UNL     1      -0.479  -1.982   0.462  0.00  0.00    -0.222 N 
BRANCH   7   8
ATOM      8  C   UNL     1      -0.005  -3.304   0.878  0.00  0.00    +0.061 C 
ATOM      9  C   UNL     1       1.513  -3.265   1.068  0.00  0.00    +0.036 C 
ATOM     10  C   UNL     1      -0.674  -3.694   2.197  0.00  0.00    +0.036 C 
BRANCH   8  11
ATOM     11  C   UNL     1      -0.358  -4.335  -0.197  0.00  0.00    +0.026 C 
ATOM     12  C   UNL     1       0.138  -5.715   0.238  0.00  0.00    +0.006 C 
ENDBRANCH   8  11
ENDBRANCH   7   8
ENDBRANCH   2   3
BRANCH   2  14
ATOM     13  C   UNL     1       2.847  -0.093   3.236  0.00  0.00    +0.006 C 
ATOM     14  C   UNL     1       2.024  -0.299   1.963  0.00  0.00    +0.023 C 
ENDBRANCH   2  14
ENDBRANCH   1   2
BRANCH   1  15
ATOM     15  C   UNL     1       0.300   0.351   4.542  0.00  0.00    +0.120 C 
BRANCH  15  16
ATOM     16  C   UNL     1      -0.613   1.249   5.335  0.00  0.00    -0.033 A 
ATOM     17  C   UNL     1      -0.198   2.521   5.686  0.00  0.00    +0.008 A 
ATOM     18  C   UNL     1      -1.035   3.345   6.413  0.00  0.00    +0.038 A 
ATOM     19  C   UNL     1      -2.290   2.898   6.790  0.00  0.00    +0.123 A 
ATOM     20  C   UNL     1      -2.705   1.625   6.439  0.00  0.00    +0.038 A 
ATOM     21  C   UNL     1      -1.868   0.804   5.707  0.00  0.00    +0.008 A 
ATOM     22  F   UNL     1      -3.109   3.704   7.502  0.00  0.00    -0.205 F 
ENDBRANCH  15  16
ENDBRANCH   1  15
BRANCH   1  23
ATOM     23  C   UNL     1       0.515   1.792   2.608  0.00  0.00    +0.126 C 
BRANCH  23  24
ATOM     24  C   UNL     1      -0.303   2.220   1.417  0.00  0.00    +0.031 A 
ATOM     25  C   UNL     1      -1.542   2.742   1.601  0.00  0.00    +0.020 A 
ATOM     26  C   UNL     1      -2.311   3.148   0.423  0.00  0.00    -0.001 A 
ATOM     27  C   UNL     1      -3.593   3.693   0.549  0.00  0.00    +0.013 A 
ATOM     28  C   UNL     1      -4.285   4.063  -0.569  0.00  0.00    -0.047 A 
ATOM     29  C   UNL     1      -3.727   3.902  -1.830  0.00  0.00    -0.046 A 
ATOM     30  C   UNL     1      -2.465   3.367  -1.978  0.00  0.00    +0.030 A 
ATOM     31  C   UNL     1      -1.742   2.985  -0.853  0.00  0.00    +0.049 A 
ATOM     32  N   UNL     1      -0.477   2.447  -0.972  0.00  0.00    -0.322 N 
ATOM     33  H   UNL     1      -0.087   2.335  -1.853  0.00  0.00    +0.169 HD
ATOM     34  C   UNL     1       0.224   2.082   0.116  0.00  0.00    +0.254 A 
ATOM     35  O   UNL     1       1.341   1.615  -0.027  0.00  0.00    -0.268 OA
ATOM     36  C   UNL     1      -4.508   4.317  -3.050  0.00  0.00    +0.044 C 
ATOM     37  C   UNL     1      -5.666   4.650  -0.433  0.00  0.00    +0.044 C 
ENDBRANCH  23  24
ENDBRANCH   1  23
TORSDOF 9
