REMARK  Name = ZINC32255452
REMARK  9 active torsions:
REMARK  status: ('A' for Active; 'I' for Inactive)
REMARK    1  A    between atoms: C_1  and  C_2
REMARK    2  A    between atoms: C_7  and  C_9
REMARK    3  A    between atoms: C_7  and  C_10
REMARK    4  A    between atoms: N_13  and  C_17
REMARK    5  A    between atoms: C_17  and  C_18
REMARK    6  A    between atoms: N_20  and  N_21
REMARK    7  A    between atoms: N_21  and  C_22
REMARK    8  A    between atoms: N_21  and  C_29
REMARK    9  A    between atoms: C_22  and  C_23
REMARK                            x       y       z     vdW  Elec       q    Type
REMARK                         _______ _______ _______ _____ _____    ______ ____
ROOT
ATOM      1  C   UNL     1      -5.288  -3.687  -2.296  0.00  0.00    +0.247 C 
ATOM      2  O   UNL     1      -4.862  -2.574  -2.522  0.00  0.00    -0.273 OA
ATOM      3  N   UNL     1      -6.523  -4.032  -2.709  0.00  0.00    -0.232 N 
ATOM      4  H   UNL     1      -6.864  -4.922  -2.528  0.00  0.00    +0.173 HD
ENDROOT
BRANCH   1   5
ATOM      5  C   UNL     1      -4.437  -4.683  -1.551  0.00  0.00    +0.215 C 
BRANCH   5  17
ATOM      6  C   UNL     1       0.187   0.523  -0.222  0.00  0.00    +0.007 C 
ATOM      7  C   UNL     1       0.093  -1.003  -0.268  0.00  0.00    -0.011 C 
ATOM      8  C   UNL     1      -1.373  -1.428  -0.139  0.00  0.00    +0.038 C 
ATOM      9  C   UNL     1      -1.466  -2.950  -0.164  0.00  0.00    +0.113 C 
ATOM     10  C   UNL     1      -0.649  -3.559   0.972  0.00  0.00    +0.041 C 
ATOM     11  C   UNL     1       0.813  -3.126   0.839  0.00  0.00    -0.032 C 
ATOM     12  C   UNL     1       0.898  -1.599   0.889  0.00  0.00    +0.009 C 
ATOM     13  C   UNL     1       1.627  -3.720   1.990  0.00  0.00    +0.011 C 
ATOM     14  C   UNL     1       1.374  -3.625  -0.494  0.00  0.00    +0.011 C 
ATOM     15  C   UNL     1      -2.908  -3.392  -0.073  0.00  0.00    +0.247 C 
ATOM     16  O   UNL     1      -3.684  -3.182   0.834  0.00  0.00    -0.273 OA
ATOM     17  N   UNL     1      -3.149  -4.069  -1.214  0.00  0.00    -0.215 N 
ATOM     18  C   UNL     1      -2.067  -4.112  -2.001  0.00  0.00    +0.310 C 
ATOM     19  O   UNL     1      -2.039  -4.666  -3.082  0.00  0.00    -0.252 OA
ATOM     20  N   UNL     1      -1.013  -3.472  -1.459  0.00  0.00    -0.285 N 
ATOM     21  H   UNL     1      -0.130  -3.375  -1.848  0.00  0.00    +0.151 HD
ENDBRANCH   5  17
ENDBRANCH   1   5
BRANCH   3  22
ATOM     22  N   UNL     1      -7.315  -3.106  -3.401  0.00  0.00    -0.247 N 
BRANCH  22  23
ATOM     23  C   UNL     1      -7.925  -2.056  -2.712  0.00  0.00    +0.048 A 
ATOM     24  C   UNL     1      -8.779  -1.188  -3.380  0.00  0.00    +0.025 A 
ATOM     25  C   UNL     1      -9.380  -0.150  -2.695  0.00  0.00    +0.002 A 
ATOM     26  C   UNL     1      -9.133   0.025  -1.346  0.00  0.00    +0.000 A 
ATOM     27  C   UNL     1      -8.283  -0.837  -0.678  0.00  0.00    +0.002 A 
ATOM     28  C   UNL     1      -7.683  -1.880  -1.355  0.00  0.00    +0.025 A 
ENDBRANCH  22  23
BRANCH  22  29
ATOM     29  C   UNL     1      -7.503  -3.240  -4.848  0.00  0.00    +0.162 C 
BRANCH  29  30
ATOM     30  C   UNL     1      -6.441  -2.448  -5.568  0.00  0.00    -0.028 A 
ATOM     31  C   UNL     1      -6.704  -1.155  -5.980  0.00  0.00    +0.005 A 
ATOM     32  C   UNL     1      -5.731  -0.429  -6.641  0.00  0.00    +0.000 A 
ATOM     33  C   UNL     1      -4.494  -0.996  -6.888  0.00  0.00    +0.000 A 
ATOM     34  C   UNL     1      -4.231  -2.289  -6.474  0.00  0.00    +0.000 A 
ATOM     35  C   UNL     1      -5.203  -3.013  -5.810  0.00  0.00    +0.005 A 
ENDBRANCH  29  30
ENDBRANCH  22  29
ENDBRANCH   3  22
TORSDOF 6
