REMARK  Name = ZINC67104375
REMARK  7 active torsions:
REMARK  status: ('A' for Active; 'I' for Inactive)
REMARK    1  A    between atoms: C_1  and  C_2
REMARK    2  A    between atoms: C_2  and  C_3
REMARK    3  A    between atoms: C_2  and  C_4
REMARK    4  A    between atoms: C_4  and  C_5
REMARK    5  A    between atoms: C_5  and  C_6
REMARK    6  A    between atoms: N_8  and  N_9
REMARK    7  A    between atoms: C_15  and  C_18
REMARK                            x       y       z     vdW  Elec       q    Type
REMARK                         _______ _______ _______ _____ _____    ______ ____
ROOT
ATOM      1  N   UNL     1      -3.850  -4.122   0.053  0.00  0.00    -0.218 N 
ATOM      2  C   UNL     1      -4.267  -5.393  -0.114  0.00  0.00    +0.319 C 
ATOM      3  O   UNL     1      -5.454  -5.634  -0.217  0.00  0.00    -0.251 OA
ATOM      4  N   UNL     1      -3.369  -6.396  -0.167  0.00  0.00    -0.284 N 
ATOM      5  C   UNL     1      -1.943  -6.137   0.074  0.00  0.00    +0.110 C 
ATOM      6  C   UNL     1      -1.135  -6.684  -1.107  0.00  0.00    +0.032 C 
ATOM      7  C   UNL     1      -1.480  -8.161  -1.315  0.00  0.00    +0.078 C 
ATOM      8  C   UNL     1      -2.969  -8.298  -1.642  0.00  0.00    +0.032 C 
ATOM      9  C   UNL     1      -3.797  -7.770  -0.461  0.00  0.00    +0.110 C 
ATOM     10  H   UNL     1      -2.901  -3.920   0.060  0.00  0.00    +0.174 HD
ENDROOT
BRANCH   7  11
ATOM     11  C   UNL     1      -0.662  -8.712  -2.455  0.00  0.00    +0.219 C 
ATOM     12  O   UNL     1      -0.118  -7.956  -3.231  0.00  0.00    -0.275 OA
ATOM     13  N   UNL     1      -0.536 -10.044  -2.611  0.00  0.00    -0.301 N 
ATOM     14  C   UNL     1       0.354 -10.541  -3.636  0.00  0.00    +0.108 C 
ATOM     15  C   UNL     1      -0.420 -10.693  -4.968  0.00  0.00    +0.019 C 
ATOM     16  C   UNL     1      -1.357 -11.824  -4.888  0.00  0.00    +0.002 C 
ATOM     17  C   UNL     1      -2.448 -11.663  -3.833  0.00  0.00    +0.002 C 
ATOM     18  C   UNL     1      -1.923 -12.124  -2.496  0.00  0.00    +0.019 C 
ATOM     19  C   UNL     1      -1.309 -10.937  -1.725  0.00  0.00    +0.108 C 
ENDBRANCH   7  11
BRANCH   1  22
ATOM     20  C   UNL     1      -4.370  -1.839   0.484  0.00  0.00    +0.229 C 
ATOM     21  O   UNL     1      -3.184  -1.602   0.584  0.00  0.00    -0.274 OA
ATOM     22  N   UNL     1      -4.786  -3.093   0.216  0.00  0.00    -0.233 N 
ATOM     23  H   UNL     1      -5.734  -3.282   0.136  0.00  0.00    +0.173 HD
BRANCH  20  24
ATOM     24  C   UNL     1      -5.377  -0.732   0.659  0.00  0.00    +0.097 C 
BRANCH  24  25
ATOM     25  C   UNL     1      -4.646   0.580   0.953  0.00  0.00    +0.012 C 
BRANCH  25  27
ATOM     26  C   UNL     1      -4.948   2.988   1.546  0.00  0.00    +0.007 C 
ATOM     27  C   UNL     1      -5.669   1.704   1.131  0.00  0.00    -0.017 C 
ATOM     28  C   UNL     1      -6.406   1.938  -0.190  0.00  0.00    +0.007 C 
ENDBRANCH  25  27
ENDBRANCH  24  25
ENDBRANCH  20  24
ENDBRANCH   1  22
TORSDOF 5
