REMARK  Name = ZINC44163295
REMARK  4 active torsions:
REMARK  status: ('A' for Active; 'I' for Inactive)
REMARK    1  A    between atoms: C_6  and  C_7
REMARK    2  A    between atoms: C_7  and  N_8
REMARK    3  A    between atoms: C_12  and  C_14
REMARK    4  A    between atoms: C_17  and  C_19
REMARK                            x       y       z     vdW  Elec       q    Type
REMARK                         _______ _______ _______ _____ _____    ______ ____
ROOT
ATOM      1  N   UNL     1      -1.726  -1.017  -1.368  0.00  0.00    -0.293 N 
ATOM      2  C   UNL     1      -2.896  -1.711  -1.612  0.00  0.00    +0.308 A 
ATOM      3  N   UNL     1      -3.712  -2.200  -0.709  0.00  0.00    -0.092 NA
ATOM      4  N   UNL     1      -4.699  -2.783  -1.294  0.00  0.00    -0.104 NA
ATOM      5  C   UNL     1      -4.553  -2.689  -2.593  0.00  0.00    +0.271 A 
ATOM      6  O   UNL     1      -3.411  -2.004  -2.822  0.00  0.00    -0.403 OA
ATOM      7  H   UNL     1      -1.192  -0.691  -2.108  0.00  0.00    +0.151 HD
ENDROOT
BRANCH   5   8
ATOM      8  C   UNL     1      -5.470  -3.229  -3.618  0.00  0.00    +0.165 A 
ATOM      9  C   UNL     1      -5.318  -3.139  -4.964  0.00  0.00    +0.230 A 
ATOM     10  O   UNL     1      -6.374  -3.761  -5.521  0.00  0.00    -0.447 OA
ATOM     11  C   UNL     1      -7.154  -4.222  -4.535  0.00  0.00    +0.197 A 
ATOM     12  N   UNL     1      -6.622  -3.914  -3.389  0.00  0.00    -0.208 NA
BRANCH  11  13
ATOM     13  C   UNL     1      -8.443  -4.980  -4.723  0.00  0.00    +0.058 C 
ATOM     14  C   UNL     1      -9.436  -4.116  -5.505  0.00  0.00    +0.009 C 
ATOM     15  C   UNL     1     -10.712  -4.924  -5.759  0.00  0.00    -0.018 C 
ATOM     16  C   UNL     1     -10.353  -6.212  -6.503  0.00  0.00    -0.083 C 
ATOM     17  N   UNL     1      -9.422  -7.006  -5.693  0.00  0.00    +0.380 N 
ATOM     18  C   UNL     1      -8.168  -6.267  -5.505  0.00  0.00    -0.070 C 
ATOM     19  H   UNL     1      -9.838  -7.195  -4.793  0.00  0.00    -0.086 HD
ATOM     20  H   UNL     1      -9.230  -7.879  -6.162  0.00  0.00    -0.086 HD
ENDBRANCH  11  13
ENDBRANCH   5   8
BRANCH   1  21
ATOM     21  C   UNL     1      -1.293  -0.775   0.011  0.00  0.00    +0.141 C 
BRANCH  21  27
ATOM     22  C   UNL     1      -0.017   1.378   0.010  0.00  0.00    +0.006 A 
ATOM     23  C   UNL     1       1.171   2.086   0.002  0.00  0.00    +0.020 A 
ATOM     24  C   UNL     1       2.378   1.410  -0.013  0.00  0.00    +0.041 A 
ATOM     25  C   UNL     1       2.396   0.027  -0.021  0.00  0.00    +0.020 A 
ATOM     26  C   UNL     1       1.208  -0.679  -0.013  0.00  0.00    +0.006 A 
ATOM     27  C   UNL     1       0.002  -0.004   0.002  0.00  0.00    -0.030 A 
ATOM     28 CL   UNL     1       3.870   2.298  -0.023  0.00  0.00    -0.084 Cl
ENDBRANCH  21  27
ENDBRANCH   1  21
TORSDOF 4
