REMARK  Name = ZINC27245642
REMARK  13 active torsions:
REMARK  status: ('A' for Active; 'I' for Inactive)
REMARK    1  A    between atoms: C_1  and  C_2
REMARK    2  A    between atoms: C_2  and  C_3
REMARK    3  A    between atoms: C_3  and  O_4
REMARK    4  A    between atoms: O_4  and  C_5
REMARK    5  A    between atoms: C_8  and  C_11
REMARK    6  A    between atoms: C_11  and  C_12
REMARK    7  A    between atoms: C_11  and  C_20
REMARK    8  A    between atoms: C_11  and  O_36
REMARK    9  A    between atoms: C_17  and  O_18
REMARK   10  A    between atoms: O_18  and  C_19
REMARK   11  A    between atoms: C_20  and  C_22
REMARK   12  A    between atoms: C_20  and  C_30
REMARK   13  A    between atoms: C_22  and  N_23
REMARK                            x       y       z     vdW  Elec       q    Type
REMARK                         _______ _______ _______ _____ _____    ______ ____
ROOT
ATOM      1  C   UNL     1      -1.228   2.125   0.050  0.00  0.00    +0.124 C 
ENDROOT
BRANCH   1   5
ATOM      2  C   UNL     1       2.716   0.498   0.289  0.00  0.00    +0.121 A 
ATOM      3  C   UNL     1       1.623  -0.347   0.163  0.00  0.00    +0.046 A 
ATOM      4  C   UNL     1       0.348   0.182   0.087  0.00  0.00    +0.010 A 
ATOM      5  C   UNL     1       0.163   1.551   0.138  0.00  0.00    -0.011 A 
ATOM      6  C   UNL     1       1.251   2.395   0.264  0.00  0.00    +0.010 A 
ATOM      7  C   UNL     1       2.527   1.871   0.339  0.00  0.00    +0.046 A 
BRANCH   2   8
ATOM      8  O   UNL     1       3.971  -0.020   0.362  0.00  0.00    -0.492 OA
BRANCH   8   9
ATOM      9  C   UNL     1       5.049   0.909   0.491  0.00  0.00    +0.229 C 
BRANCH   9  11
ATOM     10  C   UNL     1       7.528   1.141   0.697  0.00  0.00    +0.007 C 
ATOM     11  C   UNL     1       6.374   0.146   0.559  0.00  0.00    +0.038 C 
ENDBRANCH   9  11
ENDBRANCH   8   9
ENDBRANCH   2   8
ENDBRANCH   1   5
BRANCH   1  12
ATOM     12  C   UNL     1      -1.809   2.248   1.434  0.00  0.00    +0.030 A 
ATOM     13  C   UNL     1      -2.973   1.577   1.758  0.00  0.00    +0.010 A 
ATOM     14  C   UNL     1      -3.504   1.686   3.030  0.00  0.00    +0.001 A 
ATOM     15  C   UNL     1      -2.879   2.474   3.978  0.00  0.00    +0.004 A 
ATOM     16  C   UNL     1      -1.718   3.152   3.658  0.00  0.00    +0.046 A 
ATOM     17  C   UNL     1      -1.180   3.040   2.384  0.00  0.00    +0.126 A 
BRANCH  17  18
ATOM     18  O   UNL     1      -0.038   3.705   2.066  0.00  0.00    -0.495 OA
ATOM     19  C   UNL     1       0.555   4.502   3.094  0.00  0.00    +0.277 C 
ENDBRANCH  17  18
ENDBRANCH   1  12
BRANCH   1  20
ATOM     20  O   UNL     1      -2.051   1.262  -0.738  0.00  0.00    -0.379 OA
ATOM     21  H   UNL     1      -3.106   1.518  -0.914  0.00  0.00    +0.211 HD
ENDBRANCH   1  20
BRANCH   1  22
ATOM     22  C   UNL     1      -1.169   3.508  -0.603  0.00  0.00    +0.043 C 
BRANCH  22  23
ATOM     23  C   UNL     1      -0.617   3.380  -2.000  0.00  0.00    -0.043 A 
ATOM     24  C   UNL     1      -1.360   2.751  -2.982  0.00  0.00    +0.004 A 
ATOM     25  C   UNL     1      -0.856   2.638  -4.264  0.00  0.00    +0.000 A 
ATOM     26  C   UNL     1       0.395   3.146  -4.562  0.00  0.00    +0.000 A 
ATOM     27  C   UNL     1       1.140   3.771  -3.579  0.00  0.00    +0.000 A 
ATOM     28  C   UNL     1       0.634   3.887  -2.298  0.00  0.00    +0.004 A 
ENDBRANCH  22  23
BRANCH  22  29
ATOM     29  C   UNL     1      -2.576   4.104  -0.663  0.00  0.00    -0.067 C 
BRANCH  29  30
ATOM     30  N   UNL     1      -2.504   5.478  -1.179  0.00  0.00    +0.380 N 
ATOM     31  C   UNL     1      -1.690   6.336  -0.291  0.00  0.00    -0.079 C 
ATOM     32  C   UNL     1      -1.808   7.799  -0.623  0.00  0.00    -0.019 C 
ATOM     33  C   UNL     1      -2.915   8.414   0.259  0.00  0.00    -0.002 C 
ATOM     34  C   UNL     1      -4.251   8.110  -0.241  0.00  0.00    -0.002 C 
ATOM     35  C   UNL     1      -4.531   6.593  -0.269  0.00  0.00    -0.019 C 
ATOM     36  C   UNL     1      -3.855   6.004  -1.477  0.00  0.00    -0.079 C 
ATOM     37  H   UNL     1      -1.974   5.468  -2.143  0.00  0.00    -0.082 HD
ENDBRANCH  29  30
ENDBRANCH  22  29
ENDBRANCH   1  22
TORSDOF 11
