REMARK  Name = ZINC64212969
REMARK  8 active torsions:
REMARK  status: ('A' for Active; 'I' for Inactive)
REMARK    1  A    between atoms: C_1  and  C_2
REMARK    2  A    between atoms: C_2  and  C_4
REMARK    3  A    between atoms: C_2  and  N_11
REMARK    4  A    between atoms: C_12  and  C_14
REMARK    5  A    between atoms: C_14  and  C_16
REMARK    6  A    between atoms: C_14  and  N_26
REMARK    7  A    between atoms: C_16  and  C_17
REMARK    8  A    between atoms: C_27  and  C_29
REMARK                            x       y       z     vdW  Elec       q    Type
REMARK                         _______ _______ _______ _____ _____    ______ ____
ROOT
ATOM      1  C   UNL     1      -3.575  -1.197  -1.220  0.00  0.00    +0.163 C 
ENDROOT
BRANCH   1   3
ATOM      2  N   UNL     1      -1.333  -1.186  -0.174  0.00  0.00    -0.307 N 
ATOM      3  C   UNL     1      -2.076  -1.058  -1.292  0.00  0.00    +0.234 C 
ATOM      4  O   UNL     1      -1.538  -0.831  -2.355  0.00  0.00    -0.274 OA
ATOM      5  H   UNL     1      -1.763  -1.368   0.676  0.00  0.00    +0.149 HD
BRANCH   2   7
ATOM      6  C   UNL     1       0.504   0.428  -0.151  0.00  0.00    +0.033 C 
ATOM      7  C   UNL     1       0.124  -1.051  -0.244  0.00  0.00    +0.100 C 
BRANCH   7   8
ATOM      8  C   UNL     1       0.754  -1.804   0.899  0.00  0.00    -0.027 A 
ATOM      9  C   UNL     1       0.170  -1.774   2.151  0.00  0.00    +0.008 A 
ATOM     10  C   UNL     1       0.746  -2.465   3.200  0.00  0.00    +0.038 A 
ATOM     11  C   UNL     1       1.909  -3.188   2.996  0.00  0.00    +0.123 A 
ATOM     12  C   UNL     1       2.494  -3.217   1.742  0.00  0.00    +0.038 A 
ATOM     13  C   UNL     1       1.912  -2.530   0.693  0.00  0.00    +0.008 A 
ATOM     14  F   UNL     1       2.474  -3.863   4.021  0.00  0.00    -0.205 F 
ENDBRANCH   7   8
ENDBRANCH   2   7
ENDBRANCH   1   3
BRANCH   1  15
ATOM     15  N   UNL     1      -4.147  -1.017  -2.556  0.00  0.00    -0.300 N 
ATOM     16  C   UNL     1      -5.313  -1.611  -2.876  0.00  0.00    +0.246 C 
ATOM     17  O   UNL     1      -5.891  -2.296  -2.055  0.00  0.00    -0.270 OA
ATOM     18  H   UNL     1      -3.686  -0.470  -3.211  0.00  0.00    +0.150 HD
BRANCH  16  19
ATOM     19  C   UNL     1      -5.890  -1.429  -4.224  0.00  0.00    +0.055 A 
ATOM     20  C   UNL     1      -5.226  -0.647  -5.171  0.00  0.00    +0.014 A 
ATOM     21  C   UNL     1      -5.770  -0.482  -6.428  0.00  0.00    +0.001 A 
ATOM     22  C   UNL     1      -6.971  -1.089  -6.752  0.00  0.00    +0.001 A 
ATOM     23  C   UNL     1      -7.635  -1.865  -5.819  0.00  0.00    +0.021 A 
ATOM     24  C   UNL     1      -7.099  -2.044  -4.559  0.00  0.00    +0.053 A 
ATOM     25 CL   UNL     1      -7.930  -3.024  -3.391  0.00  0.00    -0.083 Cl
ENDBRANCH  16  19
ENDBRANCH   1  15
BRANCH   1  26
ATOM     26  C   UNL     1      -4.141  -0.134  -0.275  0.00  0.00    +0.065 C 
BRANCH  26  27
ATOM     27  C   UNL     1      -3.874   1.236  -0.843  0.00  0.00    -0.039 C 
ATOM     28  C   UNL     1      -4.710   1.977  -1.606  0.00  0.00    -0.001 A 
ATOM     29  C   UNL     1      -6.065   1.737  -2.117  0.00  0.00    +0.010 A 
ATOM     30  C   UNL     1      -6.659   2.688  -2.874  0.00  0.00    +0.001 A 
ATOM     31  C   UNL     1      -6.013   3.894  -3.182  0.00  0.00    +0.002 A 
ATOM     32  C   UNL     1      -4.768   4.186  -2.749  0.00  0.00    +0.026 A 
ATOM     33  C   UNL     1      -4.051   3.258  -1.946  0.00  0.00    +0.043 A 
ATOM     34  N   UNL     1      -2.853   3.307  -1.413  0.00  0.00    -0.380 N 
ATOM     35  C   UNL     1      -2.620   2.064  -0.670  0.00  0.00    +0.144 C 
ATOM     36  H   UNL     1      -2.228   4.044  -1.494  0.00  0.00    +0.160 HD
ENDBRANCH  26  27
ENDBRANCH   1  26
TORSDOF 7
