REMARK  Name = ZINC59076474
REMARK  7 active torsions:
REMARK  status: ('A' for Active; 'I' for Inactive)
REMARK    1  A    between atoms: C_1  and  O_2
REMARK    2  A    between atoms: O_2  and  C_3
REMARK    3  A    between atoms: C_6  and  C_11
REMARK    4  A    between atoms: C_8  and  O_9
REMARK    5  A    between atoms: O_9  and  C_10
REMARK    6  A    between atoms: N_13  and  N_14
REMARK    7  A    between atoms: C_15  and  C_16
REMARK                            x       y       z     vdW  Elec       q    Type
REMARK                         _______ _______ _______ _____ _____    ______ ____
ROOT
ATOM      1  N   UNL     1      -7.341  -2.541   0.054  0.00  0.00    -0.294 N 
ATOM      2  C   UNL     1      -8.434  -1.848   0.064  0.00  0.00    +0.097 C 
ATOM      3  N   UNL     1      -9.659  -2.489   0.072  0.00  0.00    -0.346 N 
ATOM      4  H   UNL     1      -9.699  -3.458   0.071  0.00  0.00    +0.143 HD
ATOM      5  H   UNL     1     -10.479  -1.970   0.079  0.00  0.00    +0.143 HD
ATOM      6  H   UNL     1      -7.382  -3.510   0.053  0.00  0.00    +0.185 HD
ENDROOT
BRANCH   2   7
ATOM      7  C   UNL     1      -8.372  -0.342   0.065  0.00  0.00    +0.165 C 
ATOM      8  C   UNL     1      -9.603   0.228   0.776  0.00  0.00    +0.061 C 
ATOM      9  C   UNL     1     -10.809   0.119  -0.122  0.00  0.00    -0.003 A 
ATOM     10  C   UNL     1     -12.069   0.174   0.454  0.00  0.00    +0.022 A 
ATOM     11  C   UNL     1     -13.201   0.084  -0.332  0.00  0.00    +0.018 A 
ATOM     12  C   UNL     1     -13.082  -0.061  -1.703  0.00  0.00    +0.019 A 
ATOM     13  C   UNL     1     -11.831  -0.118  -2.282  0.00  0.00    +0.048 A 
ATOM     14  C   UNL     1     -10.689  -0.032  -1.492  0.00  0.00    +0.135 A 
ATOM     15  O   UNL     1      -9.475  -0.113  -2.101  0.00  0.00    -0.425 OA
ATOM     16  C   UNL     1      -8.384   0.174  -1.360  0.00  0.00    +0.323 C 
ATOM     17  O   UNL     1      -7.462   0.813  -1.810  0.00  0.00    -0.250 OA
ATOM     18 BR   UNL     1     -14.914   0.157   0.466  0.00  0.00    -0.050 Br
ENDBRANCH   2   7
BRANCH   1  21
ATOM     19  C   UNL     1      -4.962  -2.613   0.036  0.00  0.00    +0.262 C 
ATOM     20  O   UNL     1      -5.012  -3.829   0.035  0.00  0.00    -0.269 OA
ATOM     21  N   UNL     1      -6.100  -1.891   0.045  0.00  0.00    -0.225 N 
ATOM     22  H   UNL     1      -6.060  -0.922   0.046  0.00  0.00    +0.175 HD
BRANCH  19  26
ATOM     23  C   UNL     1      -1.200  -0.637   0.010  0.00  0.00    +0.162 A 
ATOM     24  C   UNL     1      -2.373   0.105   0.020  0.00  0.00    +0.050 A 
ATOM     25  C   UNL     1      -3.595  -0.533   0.028  0.00  0.00    +0.017 A 
ATOM     26  C   UNL     1      -3.654  -1.929   0.027  0.00  0.00    +0.042 A 
ATOM     27  C   UNL     1      -2.473  -2.675   0.017  0.00  0.00    +0.062 A 
ATOM     28  C   UNL     1      -1.252  -2.030   0.003  0.00  0.00    +0.162 A 
BRANCH  23  30
ATOM     29  C   UNL     1      -0.017   1.425   0.010  0.00  0.00    +0.277 C 
ATOM     30  O   UNL     1       0.002  -0.004   0.002  0.00  0.00    -0.491 OA
ENDBRANCH  23  30
BRANCH  28  31
ATOM     31  O   UNL     1      -0.100  -2.754  -0.012  0.00  0.00    -0.491 OA
ATOM     32  C   UNL     1      -0.229  -4.177  -0.019  0.00  0.00    +0.277 C 
ENDBRANCH  28  31
ENDBRANCH  19  26
ENDBRANCH   1  21
TORSDOF 5
