REMARK  Name = ZINC09350304
REMARK  6 active torsions:
REMARK  status: ('A' for Active; 'I' for Inactive)
REMARK    1  A    between atoms: C_1  and  C_2
REMARK    2  A    between atoms: C_19  and  C_21
REMARK    3  A    between atoms: C_21  and  N_77
REMARK    4  A    between atoms: C_22  and  C_23
REMARK    5  A    between atoms: C_22  and  N_77
REMARK    6  A    between atoms: C_35  and  C_42
REMARK                            x       y       z     vdW  Elec       q    Type
REMARK                         _______ _______ _______ _____ _____    ______ ____
ROOT
ATOM      1  N   UNL     1      -6.560   1.380   0.721  0.00  0.00    +0.380 N 
ATOM      2  H   UNL     1      -6.361   0.624   1.386  0.00  0.00    -0.086 HD
ATOM      3  H   UNL     1      -7.272   2.005   1.117  0.00  0.00    -0.086 HD
ENDROOT
BRANCH   1   4
ATOM      4  C   UNL     1      -7.066   0.802  -0.538  0.00  0.00    -0.068 C 
BRANCH   4  20
ATOM      5  C   UNL     1     -10.680  -1.000  -5.363  0.00  0.00    +0.012 C 
ATOM      6  C   UNL     1      -9.844  -0.343  -4.262  0.00  0.00    -0.022 C 
ATOM      7  C   UNL     1      -9.268   0.970  -4.794  0.00  0.00    +0.007 C 
ATOM      8  C   UNL     1      -8.464   0.709  -6.069  0.00  0.00    +0.005 C 
ATOM      9  C   UNL     1      -7.265  -0.185  -5.738  0.00  0.00    +0.030 C 
ATOM     10  C   UNL     1      -7.775  -1.439  -5.064  0.00  0.00    -0.073 C 
ATOM     11  C   UNL     1      -7.415  -2.624  -5.491  0.00  0.00    +0.008 C 
ATOM     12  C   UNL     1      -8.711  -1.292  -3.886  0.00  0.00    +0.021 C 
ATOM     13  C   UNL     1      -7.915  -0.786  -2.674  0.00  0.00    +0.016 C 
ATOM     14  C   UNL     1      -8.899  -0.609  -1.534  0.00  0.00    +0.042 C 
ATOM     15  C   UNL     1      -9.873   0.527  -1.967  0.00  0.00    +0.181 C 
ATOM     16  C   UNL     1     -10.753  -0.038  -3.060  0.00  0.00    +0.052 C 
ATOM     17  O   UNL     1     -10.484   0.884  -0.708  0.00  0.00    -0.461 OA
ATOM     18  C   UNL     1      -9.466   0.951   0.197  0.00  0.00    +0.309 C 
ATOM     19  O   UNL     1      -9.453   1.639   1.190  0.00  0.00    -0.251 OA
ATOM     20  C   UNL     1      -8.346   0.014  -0.248  0.00  0.00    +0.087 C 
ENDBRANCH   4  20
ENDBRANCH   1   4
BRANCH   1  21
ATOM     21  C   UNL     1      -5.325   2.147   0.472  0.00  0.00    -0.068 C 
BRANCH  21  22
ATOM     22  C   UNL     1      -4.824   2.734   1.793  0.00  0.00    +0.087 C 
ATOM     23  C   UNL     1      -3.590   3.655   1.548  0.00  0.00    +0.042 C 
ATOM     24  C   UNL     1      -2.937   3.164   0.255  0.00  0.00    +0.016 C 
ATOM     25  C   UNL     1      -1.498   3.666   0.136  0.00  0.00    +0.021 C 
ATOM     26  C   UNL     1      -0.901   3.095  -1.137  0.00  0.00    -0.073 C 
ATOM     27  C   UNL     1      -0.526   3.877  -2.119  0.00  0.00    +0.008 C 
ATOM     28  C   UNL     1      -0.752   1.592  -1.234  0.00  0.00    +0.030 C 
ATOM     29  C   UNL     1      -0.013   1.086   0.008  0.00  0.00    +0.005 C 
ATOM     30  C   UNL     1      -0.728   1.579   1.269  0.00  0.00    +0.007 C 
ATOM     31  C   UNL     1      -0.690   3.104   1.313  0.00  0.00    -0.022 C 
ATOM     32  C   UNL     1      -1.278   3.623   2.618  0.00  0.00    +0.052 C 
ATOM     33  C   UNL     1      -2.734   3.267   2.770  0.00  0.00    +0.181 C 
ATOM     34  O   UNL     1      -2.975   1.839   2.915  0.00  0.00    -0.461 OA
ATOM     35  C   UNL     1      -4.293   1.636   2.695  0.00  0.00    +0.309 C 
ATOM     36  O   UNL     1      -4.946   0.724   3.146  0.00  0.00    -0.251 OA
ATOM     37  C   UNL     1       0.764   3.567   1.194  0.00  0.00    +0.012 C 
ENDBRANCH  21  22
ENDBRANCH   1  21
TORSDOF 4
