REMARK  Name = ZINC40759928
REMARK  6 active torsions:
REMARK  status: ('A' for Active; 'I' for Inactive)
REMARK    1  A    between atoms: C_1  and  N_2
REMARK    2  A    between atoms: N_2  and  C_3
REMARK    3  A    between atoms: N_2  and  N_4
REMARK    4  A    between atoms: C_6  and  N_20
REMARK    5  A    between atoms: C_7  and  N_11
REMARK    6  A    between atoms: N_11  and  C_12
REMARK                            x       y       z     vdW  Elec       q    Type
REMARK                         _______ _______ _______ _____ _____    ______ ____
ROOT
ATOM      1  N   UNL     1      -1.030  -1.328   0.442  0.00  0.00    -0.261 N 
ATOM      2  C   UNL     1      -1.523  -1.925  -0.712  0.00  0.00    +0.158 A 
ATOM      3  C   UNL     1      -2.876  -2.250  -0.820  0.00  0.00    +0.107 A 
ATOM      4  C   UNL     1      -3.319  -2.848  -2.001  0.00  0.00    +0.149 A 
ATOM      5  N   UNL     1      -2.440  -3.083  -2.973  0.00  0.00    -0.219 NA
ATOM      6  C   UNL     1      -1.170  -2.761  -2.831  0.00  0.00    +0.225 A 
ATOM      7  N   UNL     1      -0.713  -2.191  -1.734  0.00  0.00    -0.218 NA
ATOM      8  H   UNL     1      -1.627  -1.138   1.183  0.00  0.00    +0.168 HD
ENDROOT
BRANCH   1  10
ATOM      9  C   UNL     1       0.476   0.433   0.742  0.00  0.00    +0.127 C 
ATOM     10  N   UNL     1       0.295  -1.009   0.534  0.00  0.00    -0.234 NA
ATOM     11  C   UNL     1       0.950  -1.781   1.599  0.00  0.00    +0.127 C 
ENDBRANCH   1  10
BRANCH   3  12
ATOM     12  N   UNL     1      -3.768  -1.984   0.232  0.00  0.00    -0.353 N 
ATOM     13  H   UNL     1      -3.446  -1.568   1.047  0.00  0.00    +0.143 HD
ATOM     14  H   UNL     1      -4.706  -2.215   0.143  0.00  0.00    +0.143 HD
ENDBRANCH   3  12
BRANCH   4  15
ATOM     15  N   UNL     1      -4.656  -3.192  -2.160  0.00  0.00    -0.297 N 
ATOM     16  H   UNL     1      -5.307  -2.932  -1.490  0.00  0.00    +0.154 HD
BRANCH  15  17
ATOM     17  C   UNL     1      -5.063  -3.913  -3.287  0.00  0.00    +0.052 A 
ATOM     18  C   UNL     1      -4.151  -4.703  -3.975  0.00  0.00    +0.044 A 
ATOM     19  C   UNL     1      -4.556  -5.415  -5.088  0.00  0.00    +0.043 A 
ATOM     20  C   UNL     1      -5.870  -5.341  -5.517  0.00  0.00    +0.021 A 
ATOM     21  C   UNL     1      -6.781  -4.556  -4.834  0.00  0.00    +0.023 A 
ATOM     22  C   UNL     1      -6.383  -3.846  -3.717  0.00  0.00    +0.062 A 
ATOM     23 CL   UNL     1      -7.529  -2.866  -2.857  0.00  0.00    -0.082 Cl
ATOM     24 CL   UNL     1      -3.417  -6.402  -5.948  0.00  0.00    -0.083 Cl
ENDBRANCH  15  17
ENDBRANCH   4  15
TORSDOF 4
