REMARK  Name = ZINC65548822
REMARK  5 active torsions:
REMARK  status: ('A' for Active; 'I' for Inactive)
REMARK    1  A    between atoms: C_4  and  N_7
REMARK    2  A    between atoms: C_8  and  C_24
REMARK    3  A    between atoms: C_12  and  S_13
REMARK    4  A    between atoms: S_13  and  C_14
REMARK    5  A    between atoms: C_14  and  C_15
REMARK                            x       y       z     vdW  Elec       q    Type
REMARK                         _______ _______ _______ _____ _____    ______ ____
ROOT
ATOM      1  N   UNL     1       3.650  -0.647  -0.056  0.00  0.00    -0.254 N 
ATOM      2  C   UNL     1       3.817  -2.106   0.050  0.00  0.00    +0.213 C 
ATOM      3  N   UNL     1       5.277  -2.299   0.006  0.00  0.00    -0.242 N 
ATOM      4  N   UNL     1       5.836  -1.021  -0.116  0.00  0.00    -0.162 NA
ATOM      5  C   UNL     1       4.925  -0.108  -0.154  0.00  0.00    +0.180 C 
ATOM      6  H   UNL     1       5.755  -3.142   0.051  0.00  0.00    +0.170 HD
ENDROOT
BRANCH   2   7
ATOM      7  C   UNL     1       3.153  -2.800  -1.112  0.00  0.00    -0.007 A 
ATOM      8  C   UNL     1       2.086  -3.650  -0.891  0.00  0.00    +0.007 A 
ATOM      9  C   UNL     1       1.477  -4.287  -1.956  0.00  0.00    +0.001 A 
ATOM     10  C   UNL     1       1.935  -4.073  -3.242  0.00  0.00    +0.015 A 
ATOM     11  C   UNL     1       3.002  -3.223  -3.464  0.00  0.00    +0.018 A 
ATOM     12  C   UNL     1       3.608  -2.582  -2.398  0.00  0.00    +0.022 A 
ATOM     13 BR   UNL     1       3.630  -2.931  -5.224  0.00  0.00    -0.050 Br
ENDBRANCH   2   7
BRANCH   1  17
ATOM     14  C   UNL     1       0.054   1.453  -0.072  0.00  0.00    +0.000 A 
ATOM     15  C   UNL     1       0.457   0.785   1.069  0.00  0.00    +0.002 A 
ATOM     16  C   UNL     1       1.649   0.087   1.078  0.00  0.00    +0.023 A 
ATOM     17  C   UNL     1       2.443   0.057  -0.061  0.00  0.00    +0.038 A 
ATOM     18  C   UNL     1       2.034   0.730  -1.206  0.00  0.00    +0.023 A 
ATOM     19  C   UNL     1       0.842   1.425  -1.208  0.00  0.00    +0.002 A 
ENDBRANCH   1  17
BRANCH   5  20
ATOM     20  S   UNL     1       5.260   1.615  -0.309  0.00  0.00    -0.085 S 
BRANCH  20  21
ATOM     21  C   UNL     1       7.069   1.704  -0.394  0.00  0.00    +0.124 C 
BRANCH  21  22
ATOM     22  C   UNL     1       7.502   3.165  -0.532  0.00  0.00    +0.184 C 
ATOM     23  N   UNL     1       6.973   3.955   0.588  0.00  0.00    -0.363 N 
ATOM     24  C   UNL     1       6.199   4.873   0.086  0.00  0.00    +0.060 A 
ATOM     25  C   UNL     1       5.400   5.947   0.693  0.00  0.00    +0.027 A 
ATOM     26  C   UNL     1       4.678   6.767  -0.097  0.00  0.00    +0.002 A 
ATOM     27  C   UNL     1       4.654   6.642  -1.497  0.00  0.00    +0.002 A 
ATOM     28  C   UNL     1       5.349   5.693  -2.155  0.00  0.00    +0.027 A 
ATOM     29  C   UNL     1       6.173   4.742  -1.396  0.00  0.00    +0.060 A 
ATOM     30  N   UNL     1       6.932   3.747  -1.754  0.00  0.00    -0.363 N 
ATOM     31  H   UNL     1       7.165   3.817   1.528  0.00  0.00    +0.162 HD
ATOM     32  H   UNL     1       7.093   3.445  -2.662  0.00  0.00    +0.162 HD
ENDBRANCH  21  22
ENDBRANCH  20  21
ENDBRANCH   5  20
TORSDOF 5
