REMARK  Name = ZINC12605723
REMARK  6 active torsions:
REMARK  status: ('A' for Active; 'I' for Inactive)
REMARK    1  A    between atoms: C_4  and  N_20
REMARK    2  A    between atoms: C_5  and  N_7
REMARK    3  A    between atoms: C_8  and  C_10
REMARK    4  A    between atoms: C_16  and  C_18
REMARK    5  A    between atoms: N_20  and  S_21
REMARK    6  A    between atoms: S_21  and  C_24
REMARK                            x       y       z     vdW  Elec       q    Type
REMARK                         _______ _______ _______ _____ _____    ______ ____
ROOT
ATOM      1  C   UNL     1      -0.015   4.297   5.572  0.00  0.00    +0.002 A 
ATOM      2  C   UNL     1      -0.724   3.754   6.629  0.00  0.00    +0.002 A 
ATOM      3  C   UNL     1      -1.823   2.951   6.389  0.00  0.00    +0.026 A 
ATOM      4  C   UNL     1      -2.218   2.688   5.085  0.00  0.00    +0.069 A 
ATOM      5  C   UNL     1      -1.504   3.236   4.020  0.00  0.00    +0.056 A 
ATOM      6  C   UNL     1      -0.399   4.035   4.270  0.00  0.00    +0.025 A 
ENDROOT
BRANCH   5   7
ATOM      7  N   UNL     1      -1.897   2.973   2.701  0.00  0.00    -0.284 N 
ATOM      8  C   UNL     1      -1.022   3.144   1.690  0.00  0.00    +0.221 C 
ATOM      9  O   UNL     1       0.131   3.436   1.929  0.00  0.00    -0.275 OA
ATOM     10  H   UNL     1      -2.799   2.669   2.516  0.00  0.00    +0.155 HD
BRANCH   8  11
ATOM     11  C   UNL     1      -1.477   2.974   0.263  0.00  0.00    +0.093 C 
ATOM     12  C   UNL     1      -0.374   2.297  -0.556  0.00  0.00    +0.040 C 
ATOM     13  C   UNL     1       0.781   3.238  -0.741  0.00  0.00    -0.030 C 
ATOM     14  C   UNL     1       0.708   4.518  -0.566  0.00  0.00    -0.030 C 
ATOM     15  C   UNL     1      -0.536   5.239  -0.139  0.00  0.00    +0.042 C 
ATOM     16  C   UNL     1      -1.762   4.349  -0.355  0.00  0.00    +0.118 C 
BRANCH  16  17
ATOM     17  C   UNL     1      -2.963   4.969   0.311  0.00  0.00    +0.360 C 
ATOM     18  O   UNL     1      -3.549   4.369   1.181  0.00  0.00    -0.246 OA
ATOM     19  O   UNL     1      -3.382   6.189  -0.062  0.00  0.00    -0.246 OA
ENDBRANCH  16  17
ENDBRANCH   8  11
ENDBRANCH   5   7
BRANCH   4  20
ATOM     20  N   UNL     1      -3.331   1.876   4.840  0.00  0.00    -0.214 N 
ATOM     21  H   UNL     1      -3.339   1.283   4.073  0.00  0.00    +0.174 HD
BRANCH  20  22
ATOM     22  S   UNL     1      -4.635   1.928   5.860  0.00  0.00    +0.079 S 
ATOM     23  O   UNL     1      -5.631   1.092   5.288  0.00  0.00    -0.149 OA
ATOM     24  O   UNL     1      -4.131   1.725   7.173  0.00  0.00    -0.149 OA
BRANCH  22  25
ATOM     25  C   UNL     1      -5.268   3.572   5.812  0.00  0.00    +0.146 A 
ATOM     26  C   UNL     1      -6.205   4.102   4.989  0.00  0.00    +0.036 A 
ATOM     27  C   UNL     1      -6.553   5.432   5.137  0.00  0.00    +0.010 A 
ATOM     28  C   UNL     1      -5.939   6.169   6.095  0.00  0.00    +0.047 A 
ATOM     29  S   UNL     1      -4.837   4.973   6.831  0.00  0.00    -0.077 S 
ENDBRANCH  22  25
ENDBRANCH  20  22
ENDBRANCH   4  20
TORSDOF 6
