REMARK  Name = ZINC35023223
REMARK  10 active torsions:
REMARK  status: ('A' for Active; 'I' for Inactive)
REMARK    1  A    between atoms: C_1  and  C_2
REMARK    2  A    between atoms: C_2  and  C_3
REMARK    3  A    between atoms: C_2  and  O_4
REMARK    4  A    between atoms: O_4  and  C_5
REMARK    5  A    between atoms: C_5  and  C_7
REMARK    6  A    between atoms: C_9  and  C_21
REMARK    7  A    between atoms: C_15  and  C_16
REMARK    8  A    between atoms: C_15  and  O_20
REMARK    9  A    between atoms: C_24  and  N_27
REMARK   10  A    between atoms: C_28  and  C_30
REMARK                            x       y       z     vdW  Elec       q    Type
REMARK                         _______ _______ _______ _____ _____    ______ ____
ROOT
ATOM      1  C   UNL     1      -1.810  -2.685  -0.355  0.00  0.00    +0.181 C 
ATOM      2  C   UNL     1      -2.653  -3.497  -1.344  0.00  0.00    +0.123 C 
ATOM      3  N   UNL     1      -2.492  -4.923  -1.056  0.00  0.00    -0.292 N 
ATOM      4  C   UNL     1      -2.225  -5.358   0.185  0.00  0.00    +0.302 C 
ATOM      5  O   UNL     1      -2.110  -6.554   0.372  0.00  0.00    -0.253 OA
ATOM      6  N   UNL     1      -2.079  -4.526   1.227  0.00  0.00    -0.264 N 
ATOM      7  C   UNL     1      -2.216  -3.073   1.071  0.00  0.00    +0.246 C 
ATOM      8  H   UNL     1      -2.579  -5.566  -1.776  0.00  0.00    +0.151 HD
ATOM      9  H   UNL     1      -1.878  -4.892   2.103  0.00  0.00    +0.153 HD
ENDROOT
BRANCH   2  10
ATOM     10  C   UNL     1      -2.194  -3.211  -2.750  0.00  0.00    -0.026 A 
ATOM     11  C   UNL     1      -1.085  -3.861  -3.260  0.00  0.00    +0.007 A 
ATOM     12  C   UNL     1      -0.662  -3.602  -4.548  0.00  0.00    +0.023 A 
ATOM     13  C   UNL     1      -1.351  -2.686  -5.333  0.00  0.00    +0.033 A 
ATOM     14  C   UNL     1      -2.464  -2.035  -4.818  0.00  0.00    +0.023 A 
ATOM     15  C   UNL     1      -2.886  -2.303  -3.531  0.00  0.00    +0.007 A 
BRANCH  13  16
ATOM     16  N   UNL     1      -0.924  -2.420  -6.639  0.00  0.00    -0.286 N 
ATOM     17  C   UNL     1      -0.458  -3.420  -7.412  0.00  0.00    +0.214 C 
ATOM     18  O   UNL     1      -0.387  -4.547  -6.969  0.00  0.00    -0.276 OA
ATOM     19  C   UNL     1      -0.025  -3.139  -8.828  0.00  0.00    +0.109 C 
ATOM     20  H   UNL     1      -0.964  -1.516  -6.987  0.00  0.00    +0.155 HD
ENDBRANCH  13  16
ENDBRANCH   2  10
BRANCH   7  21
ATOM     21  C   UNL     1      -3.671  -2.668   1.317  0.00  0.00    +0.436 C 
ATOM     22  F   UNL     1      -4.499  -3.327   0.401  0.00  0.00    -0.166 F 
ATOM     23  F   UNL     1      -4.040  -3.023   2.619  0.00  0.00    -0.166 F 
ATOM     24  F   UNL     1      -3.804  -1.285   1.155  0.00  0.00    -0.166 F 
ENDBRANCH   7  21
BRANCH   1  25
ATOM     25  C   UNL     1      -0.350  -2.990  -0.566  0.00  0.00    +0.317 C 
ATOM     26  O   UNL     1       0.076  -4.097  -0.335  0.00  0.00    -0.250 OA
BRANCH  25  27
ATOM     27  O   UNL     1       0.479  -2.031  -1.009  0.00  0.00    -0.462 OA
BRANCH  27  29
ATOM     28  C   UNL     1       2.455  -1.552  -2.315  0.00  0.00    +0.052 C 
ATOM     29  C   UNL     1       1.850  -2.390  -1.187  0.00  0.00    +0.170 C 
ATOM     30  C   UNL     1       2.618  -2.128   0.111  0.00  0.00    +0.052 C 
ENDBRANCH  27  29
ENDBRANCH  25  27
ENDBRANCH   1  25
BRANCH   7  31
ATOM     31  O   UNL     1      -1.369  -2.404   2.007  0.00  0.00    -0.364 OA
ATOM     32  H   UNL     1      -1.569  -2.604   2.932  0.00  0.00    +0.212 HD
ENDBRANCH   7  31
TORSDOF 7
