REMARK  Name = ZINC64969551
REMARK  8 active torsions:
REMARK  status: ('A' for Active; 'I' for Inactive)
REMARK    1  A    between atoms: C_1  and  C_2
REMARK    2  A    between atoms: C_4  and  S_11
REMARK    3  A    between atoms: N_7  and  C_8
REMARK    4  A    between atoms: S_11  and  N_14
REMARK    5  A    between atoms: N_14  and  C_15
REMARK    6  A    between atoms: C_15  and  C_16
REMARK    7  A    between atoms: C_16  and  C_17
REMARK    8  A    between atoms: C_20  and  C_23
REMARK                            x       y       z     vdW  Elec       q    Type
REMARK                         _______ _______ _______ _____ _____    ______ ____
ROOT
ATOM      1  N   UNL     1       0.723   1.318  -3.264  0.00  0.00    -0.190 NA
ATOM      2  H   UNL     1       0.031   1.960  -3.488  0.00  0.00    +0.148 HD
ENDROOT
BRANCH   1   3
ATOM      3  S   UNL     1       0.314  -0.245  -2.900  0.00  0.00    +0.057 S 
ATOM      4  O   UNL     1       1.165  -1.078  -3.675  0.00  0.00    -0.153 OA
ATOM      5  O   UNL     1      -1.103  -0.323  -2.974  0.00  0.00    -0.153 OA
BRANCH   3   8
ATOM      6  C   UNL     1      -0.019   1.526   0.010  0.00  0.00    +0.032 C 
ATOM      7  C   UNL     1       0.002  -0.004   0.002  0.00  0.00    +0.129 C 
ATOM      8  C   UNL     1       0.745  -0.517  -1.213  0.00  0.00    +0.116 C 
ATOM      9  C   UNL     1       1.776  -1.206  -0.766  0.00  0.00    +0.110 C 
ATOM     10  N   UNL     1       1.821  -1.222   0.614  0.00  0.00    -0.278 N 
ATOM     11  N   UNL     1       0.778  -0.516   1.149  0.00  0.00    -0.162 NA
ATOM     12  H   UNL     1       2.501  -1.676   1.135  0.00  0.00    +0.166 HD
BRANCH  11  13
ATOM     13  C   UNL     1      -0.054  -1.371   2.007  0.00  0.00    +0.433 C 
ATOM     14  F   UNL     1      -1.137  -0.631   2.493  0.00  0.00    -0.189 F 
ATOM     15  F   UNL     1      -0.527  -2.458   1.265  0.00  0.00    -0.189 F 
ENDBRANCH  11  13
ENDBRANCH   3   8
ENDBRANCH   1   3
BRANCH   1  16
ATOM     16  C   UNL     1       2.128   1.730  -3.247  0.00  0.00    +0.113 C 
BRANCH  16  17
ATOM     17  C   UNL     1       2.274   3.074  -3.965  0.00  0.00    +0.092 C 
BRANCH  17  18
ATOM     18  C   UNL     1       3.720   3.498  -3.948  0.00  0.00    +0.127 A 
ATOM     19  H   UNL     1       4.173   3.801  -5.952  0.00  0.00    +0.190 HD
ATOM     20  N   UNL     1       4.468   3.623  -2.884  0.00  0.00    -0.211 NA
ATOM     21  C   UNL     1       5.699   4.018  -3.240  0.00  0.00    +0.181 A 
ATOM     22  N   UNL     1       5.738   4.147  -4.548  0.00  0.00    -0.152 NA
ATOM     23  N   UNL     1       4.462   3.808  -5.026  0.00  0.00    -0.262 N 
BRANCH  21  24
ATOM     24  C   UNL     1       6.829   4.268  -2.311  0.00  0.00    +0.021 A 
ATOM     25  C   UNL     1       6.659   4.089  -0.940  0.00  0.00    +0.013 A 
ATOM     26  C   UNL     1       7.713   4.322  -0.080  0.00  0.00    +0.021 A 
ATOM     27  C   UNL     1       8.937   4.734  -0.578  0.00  0.00    +0.041 A 
ATOM     28  C   UNL     1       9.110   4.914  -1.940  0.00  0.00    +0.021 A 
ATOM     29  C   UNL     1       8.065   4.676  -2.808  0.00  0.00    +0.013 A 
ATOM     30 CL   UNL     1      10.259   5.027   0.509  0.00  0.00    -0.084 Cl
ENDBRANCH  21  24
ENDBRANCH  17  18
ENDBRANCH  16  17
ENDBRANCH   1  16
TORSDOF 7
