REMARK  Name = ZINC10775633
REMARK  9 active torsions:
REMARK  status: ('A' for Active; 'I' for Inactive)
REMARK    1  A    between atoms: C_1  and  C_2
REMARK    2  A    between atoms: C_8  and  C_10
REMARK    3  A    between atoms: C_10  and  C_12
REMARK    4  A    between atoms: C_10  and  O_18
REMARK    5  A    between atoms: O_18  and  C_19
REMARK    6  A    between atoms: C_19  and  C_21
REMARK    7  A    between atoms: C_23  and  C_32
REMARK    8  A    between atoms: C_27  and  C_31
REMARK    9  A    between atoms: N_29  and  C_30
REMARK                            x       y       z     vdW  Elec       q    Type
REMARK                         _______ _______ _______ _____ _____    ______ ____
ROOT
ATOM      1  C   UNL     1      -1.984   3.467   5.205  0.00  0.00    +0.341 C 
ATOM      2  O   UNL     1      -3.138   3.466   4.825  0.00  0.00    -0.245 OA
ENDROOT
BRANCH   1   3
ATOM      3  C   UNL     1      -0.916   2.947   4.326  0.00  0.00    +0.073 A 
ATOM      4  C   UNL     1       0.332   3.559   4.276  0.00  0.00    +0.044 A 
ATOM      5  C   UNL     1       1.315   3.036   3.431  0.00  0.00    +0.074 A 
ATOM      6  N   UNL     1       1.085   1.972   2.680  0.00  0.00    -0.228 NA
ATOM      7  C   UNL     1      -0.084   1.350   2.687  0.00  0.00    +0.160 A 
ATOM      8  C   UNL     1      -1.131   1.812   3.511  0.00  0.00    +0.055 A 
ATOM      9  C   UNL     1      -2.232   0.956   3.301  0.00  0.00    +0.070 A 
ATOM     10  N   UNL     1      -1.896   0.053   2.424  0.00  0.00    -0.174 NA
ATOM     11  N   UNL     1      -0.571   0.255   2.021  0.00  0.00    -0.249 N 
ATOM     12  C   UNL     1       0.166  -0.558   1.050  0.00  0.00    +0.174 C 
ATOM     13  C   UNL     1      -3.576   1.070   3.974  0.00  0.00    +0.068 C 
BRANCH   5  14
ATOM     14  C   UNL     1       2.646   3.688   3.377  0.00  0.00    +0.000 A 
ATOM     15  C   UNL     1       2.907   4.813   4.158  0.00  0.00    +0.010 A 
ATOM     16  C   UNL     1       4.149   5.412   4.108  0.00  0.00    +0.001 A 
ATOM     17  C   UNL     1       5.131   4.905   3.276  0.00  0.00    +0.000 A 
ATOM     18  C   UNL     1       4.877   3.792   2.495  0.00  0.00    +0.001 A 
ATOM     19  C   UNL     1       3.640   3.181   2.541  0.00  0.00    +0.010 A 
ENDBRANCH   5  14
ENDBRANCH   1   3
BRANCH   1  20
ATOM     20  O   UNL     1      -1.678   3.942   6.428  0.00  0.00    -0.444 OA
BRANCH  20  21
ATOM     21  C   UNL     1      -2.778   4.437   7.237  0.00  0.00    +0.292 C 
BRANCH  21  29
ATOM     22  C   UNL     1      -0.288   9.479  11.368  0.00  0.00    +0.089 C 
ATOM     23  C   UNL     1      -1.418   8.614  10.872  0.00  0.00    +0.136 A 
ATOM     24  C   UNL     1      -1.345   7.655   9.921  0.00  0.00    +0.091 A 
ATOM     25  C   UNL     1      -2.671   7.154   9.836  0.00  0.00    +0.168 A 
ATOM     26  N   UNL     1      -3.375   7.837  10.700  0.00  0.00    -0.063 NA
ATOM     27  O   UNL     1      -2.693   8.646  11.286  0.00  0.00    -0.358 OA
ATOM     28  N   UNL     1      -3.132   6.142   8.994  0.00  0.00    -0.264 N 
ATOM     29  C   UNL     1      -2.280   5.531   8.147  0.00  0.00    +0.264 C 
ATOM     30  O   UNL     1      -1.114   5.861   8.116  0.00  0.00    -0.271 OA
ATOM     31  H   UNL     1      -4.065   5.878   9.019  0.00  0.00    +0.156 HD
ENDBRANCH  21  29
BRANCH  21  32
ATOM     32  C   UNL     1      -3.338   3.310   8.067  0.00  0.00    +0.002 A 
ATOM     33  C   UNL     1      -2.486   2.387   8.644  0.00  0.00    +0.008 A 
ATOM     34  C   UNL     1      -2.999   1.356   9.409  0.00  0.00    +0.000 A 
ATOM     35  C   UNL     1      -4.365   1.242   9.588  0.00  0.00    +0.000 A 
ATOM     36  C   UNL     1      -5.217   2.162   9.006  0.00  0.00    +0.000 A 
ATOM     37  C   UNL     1      -4.704   3.196   8.245  0.00  0.00    +0.008 A 
ENDBRANCH  21  32
ENDBRANCH  20  21
ENDBRANCH   1  20
TORSDOF 6
