REMARK  Name = ZINC04292273
REMARK  9 active torsions:
REMARK  status: ('A' for Active; 'I' for Inactive)
REMARK    1  A    between atoms: C_1  and  C_2
REMARK    2  A    between atoms: C_5  and  C_8
REMARK    3  A    between atoms: C_15  and  S_26
REMARK    4  A    between atoms: C_19  and  C_25
REMARK    5  A    between atoms: C_20  and  C_21
REMARK    6  A    between atoms: C_21  and  O_23
REMARK    7  A    between atoms: O_23  and  C_24
REMARK    8  A    between atoms: S_26  and  C_27
REMARK    9  A    between atoms: C_27  and  C_28
REMARK                            x       y       z     vdW  Elec       q    Type
REMARK                         _______ _______ _______ _____ _____    ______ ____
ROOT
ATOM      1  C   UNL     1       0.160  -2.821   0.043  0.00  0.00    +0.096 C 
ATOM      2  C   UNL     1      -0.084  -4.248  -0.365  0.00  0.00    +0.069 A 
ATOM      3  C   UNL     1      -0.862  -5.087   0.441  0.00  0.00    +0.258 A 
ATOM      4  O   UNL     1      -1.358  -4.671   1.476  0.00  0.00    -0.267 OA
ATOM      5  N   UNL     1      -1.053  -6.366   0.053  0.00  0.00    -0.302 N 
ATOM      6  H   UNL     1      -1.606  -6.981   0.615  0.00  0.00    +0.171 HD
ATOM      7  C   UNL     1      -0.493  -6.820  -1.103  0.00  0.00    +0.171 A 
ATOM      8  N   UNL     1       0.239  -6.034  -1.865  0.00  0.00    -0.208 NA
ATOM      9  C   UNL     1       0.459  -4.757  -1.532  0.00  0.00    +0.135 A 
ATOM     10  N   UNL     1       1.226  -3.948  -2.350  0.00  0.00    -0.302 N 
ATOM     11  C   UNL     1       1.167  -2.589  -2.221  0.00  0.00    +0.017 C 
ATOM     12  C   UNL     1       0.667  -2.013  -1.116  0.00  0.00    +0.065 C 
ATOM     13  C   UNL     1       1.674  -1.718  -3.342  0.00  0.00    +0.061 C 
ATOM     14  H   UNL     1       1.807  -4.346  -3.017  0.00  0.00    +0.153 HD
ENDROOT
BRANCH   1  19
ATOM     15  C   UNL     1       4.061  -2.688   4.304  0.00  0.00    +0.044 C 
ATOM     16  C   UNL     1       3.044  -2.722   3.192  0.00  0.00    -0.050 A 
ATOM     17  C   UNL     1       1.768  -2.238   3.409  0.00  0.00    +0.003 A 
ATOM     18  C   UNL     1       0.834  -2.270   2.390  0.00  0.00    +0.005 A 
ATOM     19  C   UNL     1       1.178  -2.786   1.154  0.00  0.00    -0.035 A 
ATOM     20  C   UNL     1       2.453  -3.275   0.939  0.00  0.00    +0.005 A 
ATOM     21  C   UNL     1       3.388  -3.238   1.957  0.00  0.00    +0.003 A 
ENDBRANCH   1  19
BRANCH  12  22
ATOM     22  C   UNL     1       0.622  -0.603  -1.039  0.00  0.00    +0.337 C 
ATOM     23  O   UNL     1       1.129   0.071  -1.916  0.00  0.00    -0.245 OA
BRANCH  22  24
ATOM     24  O   UNL     1       0.015  -0.003   0.007  0.00  0.00    -0.465 OA
ATOM     25  C   UNL     1       0.007   1.426   0.020  0.00  0.00    +0.280 C 
ENDBRANCH  22  24
ENDBRANCH  12  22
BRANCH   7  26
ATOM     26  S   UNL     1      -0.753  -8.494  -1.587  0.00  0.00    -0.084 S 
BRANCH  26  27
ATOM     27  C   UNL     1       0.189  -8.524  -3.132  0.00  0.00    +0.104 C 
BRANCH  27  28
ATOM     28  C   UNL     1       0.107  -9.899  -3.744  0.00  0.00    -0.023 C 
ATOM     29  C   UNL     1      -0.497 -10.070  -4.894  0.00  0.00    +0.005 C 
ENDBRANCH  27  28
ENDBRANCH  26  27
ENDBRANCH   7  26
TORSDOF 6
