REMARK  Name = ZINC09319942
REMARK  3 active torsions:
REMARK  status: ('A' for Active; 'I' for Inactive)
REMARK    1  A    between atoms: C_1  and  C_2
REMARK    2  A    between atoms: C_4  and  C_33
REMARK    3  A    between atoms: N_20  and  C_23
REMARK                            x       y       z     vdW  Elec       q    Type
REMARK                         _______ _______ _______ _____ _____    ______ ____
ROOT
ATOM      1  C   UNL     1       0.390   6.310  -2.047  0.00  0.00    +0.044 C 
ATOM      2  C   UNL     1       1.113   4.989  -1.985  0.00  0.00    -0.050 A 
ATOM      3  C   UNL     1       2.077   4.681  -2.927  0.00  0.00    +0.008 A 
ATOM      4  C   UNL     1       2.742   3.474  -2.875  0.00  0.00    -0.029 A 
ATOM      5  C   UNL     1       2.447   2.554  -1.871  0.00  0.00    +0.039 A 
ATOM      6  C   UNL     1       1.475   2.874  -0.929  0.00  0.00    -0.027 A 
ATOM      7  C   UNL     1       0.814   4.081  -0.984  0.00  0.00    +0.008 A 
ATOM      8  C   UNL     1       1.395   1.694  -0.002  0.00  0.00    +0.053 C 
ATOM      9  C   UNL     1      -0.013   1.086   0.008  0.00  0.00    +0.089 C 
ATOM     10  C   UNL     1      -0.684   1.671   1.280  0.00  0.00    +0.074 C 
ATOM     11  C   UNL     1       0.384   2.579   1.919  0.00  0.00    -0.054 C 
ATOM     12  C   UNL     1       1.981   0.870   2.195  0.00  0.00    -0.076 C 
ATOM     13  C   UNL     1       1.496   1.206   3.620  0.00  0.00    -0.020 C 
ATOM     14  C   UNL     1       0.439   2.312   3.434  0.00  0.00    -0.016 C 
ATOM     15  C   UNL     1      -1.811   2.513   0.725  0.00  0.00    +0.229 C 
ATOM     16  O   UNL     1      -2.597   3.156   1.386  0.00  0.00    -0.275 OA
ATOM     17  N   UNL     1      -1.805   2.437  -0.611  0.00  0.00    -0.207 N 
ATOM     18  C   UNL     1      -0.825   1.662  -1.130  0.00  0.00    +0.229 C 
ATOM     19  O   UNL     1      -0.626   1.455  -2.308  0.00  0.00    -0.275 OA
ATOM     20  C   UNL     1       2.410   0.716  -0.529  0.00  0.00    +0.212 C 
ATOM     21  O   UNL     1       2.670  -0.376  -0.069  0.00  0.00    -0.277 OA
ATOM     22  N   UNL     1       2.974   1.287  -1.610  0.00  0.00    -0.286 N 
ATOM     23  C   UNL     1       3.791   3.148  -3.907  0.00  0.00    +0.045 C 
ATOM     24  H   UNL     1       3.666   0.868  -2.145  0.00  0.00    +0.155 HD
ATOM     25  N   UNL     1       1.630   2.061   1.403  0.00  0.00    +0.395 N 
ATOM     26  H   UNL     1       2.375   2.764   1.468  0.00  0.00    -0.079 HD
ENDROOT
BRANCH  17  27
ATOM     27  C   UNL     1      -2.736   3.113  -1.414  0.00  0.00    +0.079 A 
ATOM     28  C   UNL     1      -2.465   4.400  -1.858  0.00  0.00    +0.027 A 
ATOM     29  C   UNL     1      -3.381   5.062  -2.652  0.00  0.00    +0.002 A 
ATOM     30  C   UNL     1      -4.572   4.449  -2.997  0.00  0.00    +0.003 A 
ATOM     31  C   UNL     1      -4.848   3.170  -2.553  0.00  0.00    +0.040 A 
ATOM     32  C   UNL     1      -3.933   2.499  -1.762  0.00  0.00    +0.145 A 
ATOM     33  F   UNL     1      -4.202   1.248  -1.327  0.00  0.00    -0.204 F 
ENDBRANCH  17  27
TORSDOF 1
