REMARK  Name = ZINC13647655
REMARK  7 active torsions:
REMARK  status: ('A' for Active; 'I' for Inactive)
REMARK    1  A    between atoms: C_1  and  C_2
REMARK    2  A    between atoms: C_5  and  C_38
REMARK    3  A    between atoms: N_8  and  C_10
REMARK    4  A    between atoms: C_11  and  C_21
REMARK    5  A    between atoms: N_25  and  C_29
REMARK    6  A    between atoms: C_29  and  C_31
REMARK    7  A    between atoms: C_29  and  C_32
REMARK                            x       y       z     vdW  Elec       q    Type
REMARK                         _______ _______ _______ _____ _____    ______ ____
ROOT
ATOM      1  C   UNL     1       1.989  -2.727   1.562  0.00  0.00    +0.136 A 
ATOM      2  C   UNL     1       3.275  -2.145   1.472  0.00  0.00    +0.081 A 
ATOM      3  C   UNL     1       4.404  -2.998   1.534  0.00  0.00    +0.267 A 
ATOM      4  O   UNL     1       5.531  -2.540   1.462  0.00  0.00    -0.267 OA
ATOM      5  N   UNL     1       4.210  -4.327   1.675  0.00  0.00    -0.268 N 
ATOM      6  C   UNL     1       5.291  -5.155   1.735  0.00  0.00    +0.096 A 
ATOM      7  C   UNL     1       5.133  -6.491   1.875  0.00  0.00    +0.018 A 
ATOM      8  C   UNL     1       3.846  -7.041   1.961  0.00  0.00    +0.005 A 
ATOM      9  C   UNL     1       2.759  -6.221   1.902  0.00  0.00    +0.047 A 
ATOM     10  C   UNL     1       2.943  -4.834   1.756  0.00  0.00    +0.142 A 
ATOM     11  N   UNL     1       1.874  -4.039   1.704  0.00  0.00    -0.214 NA
ENDROOT
BRANCH   1  17
ATOM     12  C   UNL     1      -0.636   0.310  -1.149  0.00  0.00    +0.009 C 
ATOM     13  C   UNL     1      -0.475  -0.932  -0.271  0.00  0.00    +0.004 C 
ATOM     14  C   UNL     1      -1.689  -1.066   0.651  0.00  0.00    +0.009 C 
ATOM     15  C   UNL     1      -1.545  -2.327   1.507  0.00  0.00    +0.004 C 
ATOM     16  C   UNL     1      -0.289  -2.208   2.376  0.00  0.00    +0.109 C 
ATOM     17  N   UNL     1       0.864  -1.934   1.507  0.00  0.00    -0.314 N 
ATOM     18  C   UNL     1       0.794  -0.798   0.577  0.00  0.00    +0.109 C 
ATOM     19  C   UNL     1      -2.775  -2.478   2.404  0.00  0.00    +0.009 C 
ENDBRANCH   1  17
BRANCH   2  20
ATOM     20  C   UNL     1       3.430  -0.747   1.325  0.00  0.00    +0.037 C 
ATOM     21  C   UNL     1       3.980  -0.238   0.184  0.00  0.00    +0.077 C 
ATOM     22  C   UNL     1       4.350  -0.904  -1.019  0.00  0.00    +0.259 C 
ATOM     23  O   UNL     1       4.191  -2.106  -1.144  0.00  0.00    -0.269 OA
ATOM     24  N   UNL     1       4.870  -0.182  -1.996  0.00  0.00    -0.248 N 
ATOM     25  C   UNL     1       5.046   1.151  -1.857  0.00  0.00    +0.121 C 
ATOM     26  S   UNL     1       5.695   2.270  -2.978  0.00  0.00    -0.027 S 
ATOM     27  S   UNL     1       4.424   1.448  -0.209  0.00  0.00    -0.061 S 
BRANCH  24  28
ATOM     28  C   UNL     1       5.262  -0.836  -3.247  0.00  0.00    +0.110 C 
ATOM     29  C   UNL     1       5.168  -2.354  -3.080  0.00  0.00    +0.033 C 
BRANCH  28  30
ATOM     30  C   UNL     1       4.341  -0.394  -4.355  0.00  0.00    -0.027 A 
ATOM     31  C   UNL     1       3.004  -0.166  -4.092  0.00  0.00    +0.005 A 
ATOM     32  C   UNL     1       2.159   0.239  -5.108  0.00  0.00    +0.000 A 
ATOM     33  C   UNL     1       2.652   0.417  -6.387  0.00  0.00    +0.000 A 
ATOM     34  C   UNL     1       3.990   0.190  -6.650  0.00  0.00    +0.000 A 
ATOM     35  C   UNL     1       4.836  -0.211  -5.633  0.00  0.00    +0.005 A 
ENDBRANCH  28  30
ENDBRANCH  24  28
ENDBRANCH   2  20
TORSDOF 4
