REMARK  Name = ZINC60217981
REMARK  7 active torsions:
REMARK  status: ('A' for Active; 'I' for Inactive)
REMARK    1  A    between atoms: C_1  and  C_2
REMARK    2  A    between atoms: C_2  and  N_3
REMARK    3  A    between atoms: N_6  and  C_9
REMARK    4  A    between atoms: C_9  and  C_11
REMARK    5  A    between atoms: C_9  and  C_12
REMARK    6  A    between atoms: C_12  and  N_13
REMARK    7  A    between atoms: C_21  and  C_23
REMARK                            x       y       z     vdW  Elec       q    Type
REMARK                         _______ _______ _______ _____ _____    ______ ____
ROOT
ATOM      1  N   UNL     1      -3.957  -4.643  -2.189  0.00  0.00    -0.327 N 
ATOM      2  C   UNL     1      -3.759  -5.999  -2.373  0.00  0.00    +0.131 A 
ATOM      3  C   UNL     1      -3.030  -6.476  -3.498  0.00  0.00    +0.051 A 
ATOM      4  C   UNL     1      -2.409  -5.710  -4.579  0.00  0.00    -0.025 A 
ATOM      5  C   UNL     1      -1.770  -6.411  -5.537  0.00  0.00    -0.004 A 
ATOM      6  S   UNL     1      -1.953  -8.111  -5.066  0.00  0.00    -0.073 S 
ATOM      7  C   UNL     1      -2.892  -7.876  -3.579  0.00  0.00    +0.114 A 
ATOM      8  N   UNL     1      -3.410  -8.675  -2.667  0.00  0.00    -0.224 NA
ATOM      9  C   UNL     1      -4.077  -8.174  -1.645  0.00  0.00    +0.135 A 
ATOM     10  N   UNL     1      -4.240  -6.871  -1.501  0.00  0.00    -0.217 NA
ATOM     11  C   UNL     1      -1.060  -5.867  -6.739  0.00  0.00    +0.043 C 
ATOM     12  C   UNL     1      -1.480  -4.403  -6.929  0.00  0.00    +0.005 C 
ATOM     13  C   UNL     1      -1.375  -3.684  -5.581  0.00  0.00    +0.005 C 
ATOM     14  C   UNL     1      -2.470  -4.186  -4.638  0.00  0.00    +0.037 C 
ATOM     15  H   UNL     1      -3.671  -4.014  -2.871  0.00  0.00    +0.148 HD
ENDROOT
BRANCH   9  16
ATOM     16  C   UNL     1      -4.659  -9.108  -0.616  0.00  0.00    +0.057 C 
ATOM     17  C   UNL     1      -4.273 -10.586  -0.704  0.00  0.00    +0.012 C 
ATOM     18  C   UNL     1      -5.682 -10.139  -1.096  0.00  0.00    +0.012 C 
ENDBRANCH   9  16
BRANCH   1  19
ATOM     19  C   UNL     1      -4.599  -4.155  -0.966  0.00  0.00    +0.121 C 
BRANCH  19  20
ATOM     20  C   UNL     1      -4.696  -2.629  -1.015  0.00  0.00    +0.070 C 
ATOM     21  C   UNL     1      -5.251  -2.110   0.313  0.00  0.00    +0.026 C 
BRANCH  20  25
ATOM     22  N   UNL     1      -1.132  -0.395  -0.596  0.00  0.00    +0.381 N 
ATOM     23  C   UNL     1      -2.031  -0.058  -1.707  0.00  0.00    -0.063 C 
ATOM     24  C   UNL     1      -3.431  -0.602  -1.414  0.00  0.00    +0.066 C 
ATOM     25  N   UNL     1      -3.361  -2.060  -1.242  0.00  0.00    -0.302 NA
ATOM     26  C   UNL     1      -2.444  -2.414  -0.149  0.00  0.00    +0.066 C 
ATOM     27  C   UNL     1      -1.052  -1.855  -0.453  0.00  0.00    -0.063 C 
ATOM     28  H   UNL     1      -1.488   0.008   0.258  0.00  0.00    -0.082 HD
BRANCH  22  30
ATOM     29  C   UNL     1       0.147   1.672  -0.895  0.00  0.00    -0.017 C 
ATOM     30  C   UNL     1       0.207   0.144  -0.870  0.00  0.00    -0.082 C 
ENDBRANCH  22  30
ENDBRANCH  20  25
ENDBRANCH  19  20
ENDBRANCH   1  19
TORSDOF 5
