REMARK  Name = ZINC12364324
REMARK  10 active torsions:
REMARK  status: ('A' for Active; 'I' for Inactive)
REMARK    1  A    between atoms: C_1  and  C_2
REMARK    2  A    between atoms: C_3  and  C_8
REMARK    3  A    between atoms: C_4  and  C_7
REMARK    4  A    between atoms: C_8  and  C_9
REMARK    5  A    between atoms: C_11  and  C_17
REMARK    6  A    between atoms: C_14  and  O_15
REMARK    7  A    between atoms: O_15  and  C_16
REMARK    8  A    between atoms: C_17  and  N_57
REMARK    9  A    between atoms: C_20  and  C_22
REMARK   10  A    between atoms: C_20  and  O_28
REMARK                            x       y       z     vdW  Elec       q    Type
REMARK                         _______ _______ _______ _____ _____    ______ ____
ROOT
ATOM      1  C   UNL     1      -2.037   4.807  -0.143  0.00  0.00    -0.001 A 
ATOM      2  C   UNL     1      -2.072   4.400  -1.463  0.00  0.00    +0.009 A 
ATOM      3  C   UNL     1      -3.112   4.797  -2.283  0.00  0.00    -0.063 A 
ATOM      4  C   UNL     1      -4.121   5.601  -1.784  0.00  0.00    +0.005 A 
ATOM      5  C   UNL     1      -4.091   6.009  -0.465  0.00  0.00    +0.046 A 
ATOM      6  C   UNL     1      -3.050   5.609   0.361  0.00  0.00    +0.124 A 
ENDROOT
BRANCH   6   7
ATOM      7  O   UNL     1      -3.022   6.005   1.661  0.00  0.00    -0.495 OA
ATOM      8  C   UNL     1      -4.098   6.830   2.111  0.00  0.00    +0.277 C 
ENDBRANCH   6   7
BRANCH   1   9
ATOM      9  C   UNL     1      -0.903   4.374   0.750  0.00  0.00    +0.079 C 
BRANCH   9  12
ATOM     10  C   UNL     1      -0.591   1.361  -0.414  0.00  0.00    +0.069 C 
ATOM     11  C   UNL     1      -1.134   1.765   0.932  0.00  0.00    +0.084 A 
ATOM     12  C   UNL     1      -1.267   3.080   1.432  0.00  0.00    +0.021 A 
ATOM     13  C   UNL     1      -1.795   2.909   2.668  0.00  0.00    +0.138 A 
ATOM     14  O   UNL     1      -1.950   1.588   2.835  0.00  0.00    -0.359 OA
ATOM     15  N   UNL     1      -1.579   0.971   1.863  0.00  0.00    -0.083 NA
ATOM     16  C   UNL     1      -2.144   3.991   3.658  0.00  0.00    +0.089 C 
ENDBRANCH   9  12
ENDBRANCH   1   9
BRANCH   3  17
ATOM     17  C   UNL     1      -3.147   4.354  -3.723  0.00  0.00    -0.043 C 
BRANCH  17  22
ATOM     18  C   UNL     1      -3.109   1.980  -3.205  0.00  0.00    -0.075 C 
ATOM     19  C   UNL     1      -3.446   0.734  -4.061  0.00  0.00    +0.019 C 
ATOM     20  C   UNL     1      -3.523   1.343  -5.485  0.00  0.00    +0.075 C 
ATOM     21  C   UNL     1      -4.137   2.736  -5.235  0.00  0.00    -0.038 C 
ATOM     22  N   UNL     1      -3.889   3.070  -3.821  0.00  0.00    +0.385 N 
ATOM     23  H   UNL     1      -4.787   3.163  -3.331  0.00  0.00    -0.081 HD
BRANCH  20  24
ATOM     24  C   UNL     1      -4.419   0.516  -6.370  0.00  0.00    -0.018 A 
ATOM     25  C   UNL     1      -5.692   0.183  -5.947  0.00  0.00    +0.006 A 
ATOM     26  C   UNL     1      -6.517  -0.571  -6.761  0.00  0.00    +0.000 A 
ATOM     27  C   UNL     1      -6.064  -1.001  -7.994  0.00  0.00    +0.000 A 
ATOM     28  C   UNL     1      -4.789  -0.673  -8.415  0.00  0.00    +0.000 A 
ATOM     29  C   UNL     1      -3.967   0.085  -7.604  0.00  0.00    +0.006 A 
ENDBRANCH  20  24
BRANCH  20  30
ATOM     30  O   UNL     1      -2.219   1.461  -6.059  0.00  0.00    -0.386 OA
ATOM     31  H   UNL     1      -1.789   0.614  -6.236  0.00  0.00    +0.211 HD
ENDBRANCH  20  30
ENDBRANCH  17  22
ENDBRANCH   3  17
TORSDOF 7
