REMARK  Name = ZINC42158902
REMARK  14 active torsions:
REMARK  status: ('A' for Active; 'I' for Inactive)
REMARK    1  A    between atoms: C_1  and  C_2
REMARK    2  A    between atoms: C_2  and  C_3
REMARK    3  A    between atoms: C_3  and  C_4
REMARK    4  A    between atoms: C_3  and  C_5
REMARK    5  A    between atoms: C_3  and  C_6
REMARK    6  A    between atoms: N_14  and  C_18
REMARK    7  A    between atoms: C_18  and  C_19
REMARK    8  A    between atoms: N_21  and  C_22
REMARK    9  A    between atoms: C_22  and  C_23
REMARK   10  A    between atoms: C_23  and  C_24
REMARK   11  A    between atoms: C_23  and  C_25
REMARK   12  A    between atoms: C_23  and  N_26
REMARK   13  A    between atoms: N_26  and  C_27
REMARK   14  A    between atoms: N_26  and  C_28
REMARK                            x       y       z     vdW  Elec       q    Type
REMARK                         _______ _______ _______ _____ _____    ______ ____
ROOT
ATOM      1  C   UNL     1      -1.501  -1.204  -0.442  0.00  0.00    -0.005 C 
ATOM      2  C   UNL     1      -0.773  -1.886  -1.602  0.00  0.00    +0.006 C 
ATOM      3  C   UNL     1      -0.861  -3.405  -1.434  0.00  0.00    +0.035 C 
ATOM      4  C   UNL     1      -2.324  -3.833  -1.409  0.00  0.00    +0.113 C 
ATOM      5  C   UNL     1      -3.070  -3.141  -0.273  0.00  0.00    +0.035 C 
ATOM      6  C   UNL     1      -2.973  -1.623  -0.445  0.00  0.00    +0.006 C 
ATOM      7  C   UNL     1      -2.985  -3.533  -2.734  0.00  0.00    +0.247 C 
ATOM      8  O   UNL     1      -3.129  -2.447  -3.253  0.00  0.00    -0.273 OA
ATOM      9  N   UNL     1      -3.383  -4.728  -3.217  0.00  0.00    -0.215 N 
ATOM     10  C   UNL     1      -3.064  -5.727  -2.385  0.00  0.00    +0.310 C 
ATOM     11  O   UNL     1      -3.319  -6.895  -2.603  0.00  0.00    -0.252 OA
ATOM     12  N   UNL     1      -2.431  -5.292  -1.279  0.00  0.00    -0.285 N 
ATOM     13  H   UNL     1      -2.108  -5.835  -0.543  0.00  0.00    +0.151 HD
ENDROOT
BRANCH   1  14
ATOM     14  C   UNL     1      -1.404   0.315  -0.602  0.00  0.00    -0.032 C 
ATOM     15  C   UNL     1      -2.131   0.998   0.558  0.00  0.00    +0.011 C 
ATOM     16  C   UNL     1      -2.050   0.731  -1.925  0.00  0.00    +0.011 C 
BRANCH  14  18
ATOM     17  C   UNL     1       0.165   2.253  -0.759  0.00  0.00    +0.004 C 
ATOM     18  C   UNL     1       0.068   0.735  -0.599  0.00  0.00    +0.003 C 
ENDBRANCH  14  18
ENDBRANCH   1  14
BRANCH   9  19
ATOM     19  C   UNL     1      -4.077  -4.910  -4.495  0.00  0.00    +0.213 C 
BRANCH  19  20
ATOM     20  C   UNL     1      -3.065  -5.122  -5.591  0.00  0.00    +0.231 C 
ATOM     21  O   UNL     1      -1.880  -5.120  -5.331  0.00  0.00    -0.274 OA
ATOM     22  N   UNL     1      -3.476  -5.312  -6.860  0.00  0.00    -0.315 N 
ATOM     23  H   UNL     1      -4.424  -5.313  -7.068  0.00  0.00    +0.149 HD
BRANCH  22  24
ATOM     24  C   UNL     1      -2.492  -5.518  -7.926  0.00  0.00    +0.092 C 
BRANCH  24  25
ATOM     25  C   UNL     1      -3.217  -5.838  -9.235  0.00  0.00    -0.056 C 
ATOM     26  C   UNL     1      -4.032  -4.621  -9.677  0.00  0.00    -0.008 C 
ATOM     27  C   UNL     1      -2.191  -6.184 -10.315  0.00  0.00    -0.008 C 
BRANCH  25  28
ATOM     28  N   UNL     1      -4.116  -6.981  -9.029  0.00  0.00    +0.380 N 
ATOM     29  C   UNL     1      -4.810  -7.291 -10.287  0.00  0.00    -0.096 C 
ATOM     30  C   UNL     1      -3.334  -8.149  -8.601  0.00  0.00    -0.096 C 
ATOM     31  H   UNL     1      -4.795  -6.752  -8.319  0.00  0.00    -0.082 HD
ENDBRANCH  25  28
ENDBRANCH  24  25
ENDBRANCH  22  24
ENDBRANCH  19  20
ENDBRANCH   9  19
TORSDOF 7
