REMARK  Name = ZINC39951264
REMARK  8 active torsions:
REMARK  status: ('A' for Active; 'I' for Inactive)
REMARK    1  A    between atoms: C_1  and  C_2
REMARK    2  A    between atoms: C_2  and  C_3
REMARK    3  A    between atoms: C_3  and  C_4
REMARK    4  A    between atoms: C_9  and  C_28
REMARK    5  A    between atoms: C_15  and  C_17
REMARK    6  A    between atoms: C_18  and  C_27
REMARK    7  A    between atoms: C_28  and  C_29
REMARK    8  A    between atoms: C_29  and  C_30
REMARK                            x       y       z     vdW  Elec       q    Type
REMARK                         _______ _______ _______ _____ _____    ______ ____
ROOT
ATOM      1  C   UNL     1       0.842  -1.903  -1.636  0.00  0.00    +0.044 C 
ATOM      2  C   UNL     1       1.315  -2.450  -0.324  0.00  0.00    +0.031 C 
ATOM      3  C   UNL     1       1.792  -3.859  -0.355  0.00  0.00    +0.087 C 
ATOM      4  N   UNL     1       1.081  -4.747  -1.244  0.00  0.00    -0.281 NA
ATOM      5  C   UNL     1      -0.342  -4.616  -1.382  0.00  0.00    +0.102 C 
ATOM      6  C   UNL     1      -0.850  -3.643  -2.432  0.00  0.00    +0.055 C 
ATOM      7  C   UNL     1      -0.585  -2.239  -1.936  0.00  0.00    +0.149 C 
ATOM      8  O   UNL     1      -1.478  -1.439  -1.794  0.00  0.00    -0.296 OA
ATOM      9  C   UNL     1      -0.030  -3.779  -3.725  0.00  0.00    +0.102 C 
ATOM     10  N   UNL     1       1.385  -3.650  -3.349  0.00  0.00    -0.280 NA
ATOM     11  C   UNL     1       1.738  -2.350  -2.790  0.00  0.00    +0.100 C 
ATOM     12  C   UNL     1       1.789  -4.798  -2.538  0.00  0.00    +0.176 C 
ENDROOT
BRANCH  12  13
ATOM     13  C   UNL     1       1.435  -6.073  -3.257  0.00  0.00    +0.060 A 
ATOM     14  C   UNL     1       1.887  -6.293  -4.510  0.00  0.00    +0.036 A 
ATOM     15  C   UNL     1       1.541  -7.500  -5.166  0.00  0.00    +0.257 A 
ATOM     16  O   UNL     1       1.937  -7.720  -6.296  0.00  0.00    -0.267 OA
ATOM     17  N   UNL     1       0.769  -8.402  -4.526  0.00  0.00    -0.275 N 
ATOM     18  H   UNL     1       0.528  -9.231  -4.969  0.00  0.00    +0.173 HD
ATOM     19  C   UNL     1       0.333  -8.157  -3.277  0.00  0.00    +0.327 A 
ATOM     20  O   UNL     1      -0.362  -8.980  -2.713  0.00  0.00    -0.247 OA
ATOM     21  N   UNL     1       0.659  -7.017  -2.641  0.00  0.00    -0.308 N 
ATOM     22  H   UNL     1       0.337  -6.861  -1.740  0.00  0.00    +0.170 HD
ATOM     23  C   UNL     1       2.747  -5.268  -5.203  0.00  0.00    +0.051 C 
ENDBRANCH  12  13
BRANCH   1  24
ATOM     24  C   UNL     1       0.940  -0.379  -1.554  0.00  0.00    +0.015 C 
BRANCH  24  26
ATOM     25  C   UNL     1       2.518   1.555  -1.441  0.00  0.00    +0.004 C 
ATOM     26  C   UNL     1       2.405   0.030  -1.391  0.00  0.00    -0.002 C 
ENDBRANCH  24  26
ENDBRANCH   1  24
BRANCH   6  27
ATOM     27  C   UNL     1      -2.342  -3.859  -2.694  0.00  0.00    +0.017 C 
BRANCH  27  28
ATOM     28  C   UNL     1      -3.125  -3.640  -1.397  0.00  0.00    -0.002 C 
ATOM     29  C   UNL     1      -4.616  -3.856  -1.659  0.00  0.00    +0.004 C 
ENDBRANCH  27  28
ENDBRANCH   6  27
TORSDOF 5
