REMARK  Name = ZINC32802399
REMARK  7 active torsions:
REMARK  status: ('A' for Active; 'I' for Inactive)
REMARK    1  A    between atoms: C_1  and  C_2
REMARK    2  A    between atoms: C_2  and  C_4
REMARK    3  A    between atoms: C_2  and  N_13
REMARK    4  A    between atoms: N_16  and  C_17
REMARK    5  A    between atoms: C_17  and  C_19
REMARK    6  A    between atoms: C_17  and  C_26
REMARK    7  A    between atoms: N_30  and  C_31
REMARK                            x       y       z     vdW  Elec       q    Type
REMARK                         _______ _______ _______ _____ _____    ______ ____
ROOT
ATOM      1  N   UNL     1       0.711  -0.489   1.189  0.00  0.00    -0.293 N 
ATOM      2  C   UNL     1       2.054  -0.600   1.174  0.00  0.00    +0.301 C 
ATOM      3  O   UNL     1       2.677  -0.297   0.175  0.00  0.00    -0.253 OA
ATOM      4  N   UNL     1       2.706  -1.046   2.266  0.00  0.00    -0.286 N 
ATOM      5  H   UNL     1       0.146  -0.764   2.092  0.00  0.00    +0.151 HD
ATOM      6  H   UNL     1       2.141  -1.321   3.169  0.00  0.00    +0.151 HD
ENDROOT
BRANCH   1   8
ATOM      7  C   UNL     1      -0.019   1.526   0.010  0.00  0.00    +0.033 C 
ATOM      8  C   UNL     1       0.002  -0.004   0.002  0.00  0.00    +0.102 C 
BRANCH   8   9
ATOM      9  C   UNL     1      -1.412  -0.526   0.013  0.00  0.00    -0.024 A 
ATOM     10  C   UNL     1      -2.120  -0.576   1.199  0.00  0.00    +0.009 A 
ATOM     11  C   UNL     1      -3.417  -1.053   1.214  0.00  0.00    +0.050 A 
ATOM     12  C   UNL     1      -4.011  -1.483   0.039  0.00  0.00    +0.166 A 
ATOM     13  C   UNL     1      -3.298  -1.433  -1.157  0.00  0.00    +0.167 A 
ATOM     14  C   UNL     1      -2.000  -0.948  -1.165  0.00  0.00    +0.055 A 
ATOM     15  O   UNL     1      -4.093  -1.906  -2.159  0.00  0.00    -0.453 OA
ATOM     16  C   UNL     1      -5.435  -1.864  -1.638  0.00  0.00    +0.466 C 
ATOM     17  O   UNL     1      -5.253  -1.988  -0.215  0.00  0.00    -0.453 OA
ENDBRANCH   8   9
ENDBRANCH   1   8
BRANCH   4  18
ATOM     18  C   UNL     1       4.166  -1.166   2.249  0.00  0.00    +0.171 C 
BRANCH  18  19
ATOM     19  C   UNL     1       4.693  -1.075   3.658  0.00  0.00    -0.017 A 
ATOM     20  C   UNL     1       5.853  -0.369   3.917  0.00  0.00    +0.006 A 
ATOM     21  C   UNL     1       6.338  -0.285   5.209  0.00  0.00    +0.003 A 
ATOM     22  C   UNL     1       5.664  -0.907   6.243  0.00  0.00    +0.038 A 
ATOM     23  C   UNL     1       4.502  -1.615   5.984  0.00  0.00    +0.124 A 
ATOM     24  C   UNL     1       4.014  -1.693   4.691  0.00  0.00    +0.044 A 
ATOM     25  F   UNL     1       3.842  -2.223   6.994  0.00  0.00    -0.205 F 
ENDBRANCH  18  19
BRANCH  18  26
ATOM     26  C   UNL     1       4.554  -2.494   1.652  0.00  0.00    +0.134 A 
ATOM     27  N   UNL     1       4.011  -3.646   1.940  0.00  0.00    -0.238 NA
ATOM     28  C   UNL     1       4.605  -4.608   1.218  0.00  0.00    +0.130 A 
ATOM     29  C   UNL     1       5.556  -4.032   0.459  0.00  0.00    +0.106 A 
ATOM     30  N   UNL     1       5.524  -2.691   0.734  0.00  0.00    -0.336 N 
ATOM     31  C   UNL     1       6.383  -1.662   0.142  0.00  0.00    +0.150 C 
ENDBRANCH  18  26
ENDBRANCH   4  18
TORSDOF 5
