REMARK  Name = ZINC56894298
REMARK  8 active torsions:
REMARK  status: ('A' for Active; 'I' for Inactive)
REMARK    1  A    between atoms: C_1  and  C_2
REMARK    2  A    between atoms: C_2  and  C_4
REMARK    3  A    between atoms: C_2  and  O_23
REMARK    4  A    between atoms: N_6  and  N_7
REMARK    5  A    between atoms: N_10  and  C_11
REMARK    6  A    between atoms: C_11  and  C_12
REMARK    7  A    between atoms: C_17  and  N_18
REMARK    8  A    between atoms: O_23  and  C_24
REMARK                            x       y       z     vdW  Elec       q    Type
REMARK                         _______ _______ _______ _____ _____    ______ ____
ROOT
ATOM      1  N   UNL     1       2.505  -0.255  -2.807  0.00  0.00    -0.218 N 
ATOM      2  C   UNL     1       3.806   0.027  -3.017  0.00  0.00    +0.316 C 
ATOM      3  O   UNL     1       4.308  -0.193  -4.103  0.00  0.00    -0.251 OA
ATOM      4  N   UNL     1       4.552   0.551  -2.025  0.00  0.00    -0.294 N 
ATOM      5  H   UNL     1       1.969  -0.633  -3.521  0.00  0.00    +0.174 HD
ATOM      6  H   UNL     1       4.152   0.726  -1.158  0.00  0.00    +0.151 HD
ENDROOT
BRANCH   1   9
ATOM      7  C   UNL     1       0.627  -0.284  -1.345  0.00  0.00    +0.270 C 
ATOM      8  O   UNL     1      -0.044  -0.757  -2.238  0.00  0.00    -0.270 OA
ATOM      9  N   UNL     1       1.928  -0.003  -1.555  0.00  0.00    -0.230 N 
ATOM     10  H   UNL     1       2.464   0.375  -0.841  0.00  0.00    +0.173 HD
BRANCH   7  12
ATOM     11  C   UNL     1       0.005   1.494   0.268  0.00  0.00    +0.062 C 
ATOM     12  C   UNL     1       0.005  -0.013   0.001  0.00  0.00    +0.257 C 
BRANCH  12  13
ATOM     13  O   UNL     1      -1.339  -0.499   0.012  0.00  0.00    -0.477 OA
BRANCH  13  14
ATOM     14  C   UNL     1      -1.869  -0.818   1.222  0.00  0.00    +0.157 A 
ATOM     15  C   UNL     1      -1.156  -0.562   2.383  0.00  0.00    +0.048 A 
ATOM     16  C   UNL     1      -1.698  -0.887   3.612  0.00  0.00    +0.004 A 
ATOM     17  C   UNL     1      -2.950  -1.468   3.686  0.00  0.00    +0.003 A 
ATOM     18  C   UNL     1      -3.665  -1.725   2.531  0.00  0.00    +0.042 A 
ATOM     19  C   UNL     1      -3.130  -1.396   1.298  0.00  0.00    +0.165 A 
ATOM     20  F   UNL     1      -3.831  -1.642   0.170  0.00  0.00    -0.202 F 
ENDBRANCH  13  14
ENDBRANCH  12  13
ENDBRANCH   7  12
ENDBRANCH   1   9
BRANCH   4  21
ATOM     21  C   UNL     1       5.966   0.858  -2.254  0.00  0.00    +0.143 C 
BRANCH  21  22
ATOM     22  C   UNL     1       6.566   1.430  -0.995  0.00  0.00    -0.006 A 
ATOM     23  C   UNL     1       6.727   2.796  -0.866  0.00  0.00    +0.007 A 
ATOM     24  C   UNL     1       7.278   3.322   0.288  0.00  0.00    +0.000 A 
ATOM     25  C   UNL     1       7.669   2.483   1.316  0.00  0.00    +0.002 A 
ATOM     26  C   UNL     1       7.510   1.117   1.192  0.00  0.00    +0.026 A 
ATOM     27  C   UNL     1       6.952   0.586   0.036  0.00  0.00    +0.052 A 
BRANCH  27  28
ATOM     28  N   UNL     1       6.784  -0.800  -0.090  0.00  0.00    -0.306 N 
ATOM     29  C   UNL     1       7.733  -1.761   0.148  0.00  0.00    +0.112 A 
ATOM     30  C   UNL     1       7.152  -2.952  -0.094  0.00  0.00    +0.130 A 
ATOM     31  N   UNL     1       5.883  -2.730  -0.470  0.00  0.00    -0.244 NA
ATOM     32  C   UNL     1       5.650  -1.446  -0.466  0.00  0.00    +0.204 A 
ENDBRANCH  27  28
ENDBRANCH  21  22
ENDBRANCH   4  21
TORSDOF 7
