REMARK  Name = ZINC09374925
REMARK  5 active torsions:
REMARK  status: ('A' for Active; 'I' for Inactive)
REMARK    1  A    between atoms: C_1  and  C_2
REMARK    2  A    between atoms: C_12  and  S_13
REMARK    3  A    between atoms: S_13  and  C_14
REMARK    4  A    between atoms: C_14  and  C_16
REMARK    5  A    between atoms: C_14  and  C_22
REMARK                            x       y       z     vdW  Elec       q    Type
REMARK                         _______ _______ _______ _____ _____    ______ ____
ROOT
ATOM      1  C   UNL     1      -4.589  -0.109   0.003  0.00  0.00    +0.138 C 
ENDROOT
BRANCH   1   2
ATOM      2  C   UNL     1      -5.112  -1.515  -0.135  0.00  0.00    +0.124 A 
ATOM      3  C   UNL     1      -4.775  -2.307  -1.323  0.00  0.00    +0.272 A 
ATOM      4  O   UNL     1      -4.075  -1.835  -2.200  0.00  0.00    -0.266 OA
ATOM      5  N   UNL     1      -5.247  -3.569  -1.429  0.00  0.00    -0.319 N 
ATOM      6  H   UNL     1      -4.995  -4.178  -2.310  0.00  0.00    +0.169 HD
ATOM      7  C   UNL     1      -6.043  -4.072  -0.420  0.00  0.00    +0.068 A 
ATOM      8  C   UNL     1      -6.550  -5.365  -0.503  0.00  0.00    +0.028 A 
ATOM      9  C   UNL     1      -7.344  -5.857   0.510  0.00  0.00    +0.002 A 
ATOM     10  C   UNL     1      -7.642  -5.071   1.616  0.00  0.00    +0.002 A 
ATOM     11  C   UNL     1      -7.157  -3.801   1.718  0.00  0.00    +0.030 A 
ATOM     12  C   UNL     1      -6.346  -3.276   0.700  0.00  0.00    +0.088 A 
ATOM     13  N   UNL     1      -5.865  -2.022   0.799  0.00  0.00    -0.243 NA
ENDBRANCH   1   2
BRANCH   1  14
ATOM     14  C   UNL     1      -5.079   0.485   1.298  0.00  0.00    -0.028 A 
ATOM     15  C   UNL     1      -4.755  -0.116   2.501  0.00  0.00    +0.005 A 
ATOM     16  C   UNL     1      -5.202   0.431   3.689  0.00  0.00    +0.000 A 
ATOM     17  C   UNL     1      -5.979   1.574   3.675  0.00  0.00    +0.000 A 
ATOM     18  C   UNL     1      -6.307   2.172   2.472  0.00  0.00    +0.000 A 
ATOM     19  C   UNL     1      -5.857   1.627   1.284  0.00  0.00    +0.005 A 
ENDBRANCH   1  14
BRANCH   1  20
ATOM     20  S   UNL     1      -2.779  -0.135  -0.002  0.00  0.00    -0.073 S 
BRANCH  20  32
ATOM     21  C   UNL     1       0.002  -0.004   0.002  0.00  0.00    +0.113 C 
ATOM     22  C   UNL     1      -0.018   1.503   0.010  0.00  0.00    +0.231 C 
ATOM     23  O   UNL     1       1.023   2.123   0.004  0.00  0.00    -0.273 OA
ATOM     24  N   UNL     1      -1.195   2.161   0.019  0.00  0.00    -0.258 N 
ATOM     25  C   UNL     1      -1.370   3.540   0.028  0.00  0.00    +0.077 A 
ATOM     26  C   UNL     1      -0.500   4.618   0.029  0.00  0.00    +0.028 A 
ATOM     27  C   UNL     1      -1.001   5.905   0.039  0.00  0.00    +0.002 A 
ATOM     28  C   UNL     1      -2.369   6.125   0.047  0.00  0.00    +0.002 A 
ATOM     29  C   UNL     1      -3.248   5.065   0.045  0.00  0.00    +0.030 A 
ATOM     30  C   UNL     1      -2.757   3.757   0.036  0.00  0.00    +0.091 A 
ATOM     31  N   UNL     1      -3.357   2.536   0.032  0.00  0.00    -0.221 NA
ATOM     32  C   UNL     1      -2.447   1.595   0.016  0.00  0.00    +0.177 A 
ENDBRANCH  20  32
ENDBRANCH   1  20
TORSDOF 4
