REMARK  Name = ZINC39716384
REMARK  7 active torsions:
REMARK  status: ('A' for Active; 'I' for Inactive)
REMARK    1  A    between atoms: C_1  and  C_2
REMARK    2  A    between atoms: C_5  and  C_8
REMARK    3  A    between atoms: C_8  and  N_9
REMARK    4  A    between atoms: C_13  and  C_14
REMARK    5  A    between atoms: C_15  and  N_26
REMARK    6  A    between atoms: C_18  and  C_25
REMARK    7  A    between atoms: C_29  and  C_32
REMARK                            x       y       z     vdW  Elec       q    Type
REMARK                         _______ _______ _______ _____ _____    ______ ____
ROOT
ATOM      1  C   UNL     1       3.925  -5.465  -3.573  0.00  0.00    +0.081 A 
ATOM      2  C   UNL     1       4.771  -5.978  -4.584  0.00  0.00    +0.136 A 
ATOM      3  N   UNL     1       4.345  -6.010  -5.839  0.00  0.00    -0.213 NA
ATOM      4  C   UNL     1       3.133  -5.569  -6.177  0.00  0.00    +0.145 A 
ATOM      5  C   UNL     1       2.735  -5.628  -7.525  0.00  0.00    -0.007 A 
ATOM      6  C   UNL     1       1.498  -5.180  -7.881  0.00  0.00    +0.008 A 
ATOM      7  C   UNL     1       0.640  -4.666  -6.899  0.00  0.00    +0.019 A 
ATOM      8  C   UNL     1       1.039  -4.617  -5.608  0.00  0.00    +0.096 A 
ATOM      9  N   UNL     1       2.274  -5.063  -5.242  0.00  0.00    -0.267 N 
ATOM     10  C   UNL     1       2.639  -5.005  -3.943  0.00  0.00    +0.267 A 
ATOM     11  O   UNL     1       1.875  -4.559  -3.104  0.00  0.00    -0.267 OA
ATOM     12  C   UNL     1       3.670  -6.184  -8.568  0.00  0.00    +0.047 C 
ENDROOT
BRANCH   1  17
ATOM     13  N   UNL     1       2.199  -7.714  -0.353  0.00  0.00    -0.251 N 
ATOM     14  C   UNL     1       2.629  -7.078  -1.428  0.00  0.00    +0.259 C 
ATOM     15  O   UNL     1       2.099  -7.251  -2.512  0.00  0.00    -0.269 OA
ATOM     16  C   UNL     1       3.728  -6.184  -1.285  0.00  0.00    +0.077 C 
ATOM     17  C   UNL     1       4.352  -5.418  -2.226  0.00  0.00    +0.037 C 
ATOM     18  S   UNL     1       4.068  -6.340   0.463  0.00  0.00    -0.061 S 
ATOM     19  C   UNL     1       2.782  -7.518   0.851  0.00  0.00    +0.121 C 
ATOM     20  S   UNL     1       2.390  -8.221   2.361  0.00  0.00    -0.027 S 
BRANCH  13  21
ATOM     21  C   UNL     1       1.069  -8.641  -0.465  0.00  0.00    +0.150 C 
BRANCH  21  26
ATOM     22  C   UNL     1      -3.873  -5.774   0.398  0.00  0.00    +0.044 C 
ATOM     23  C   UNL     1      -2.584  -6.521   0.172  0.00  0.00    -0.050 A 
ATOM     24  C   UNL     1      -2.064  -6.634  -1.103  0.00  0.00    +0.003 A 
ATOM     25  C   UNL     1      -0.881  -7.320  -1.310  0.00  0.00    +0.005 A 
ATOM     26  C   UNL     1      -0.219  -7.893  -0.240  0.00  0.00    -0.030 A 
ATOM     27  C   UNL     1      -0.739  -7.779   1.036  0.00  0.00    +0.005 A 
ATOM     28  C   UNL     1      -1.919  -7.090   1.243  0.00  0.00    +0.003 A 
ENDBRANCH  21  26
ENDBRANCH  13  21
ENDBRANCH   1  17
BRANCH   2  29
ATOM     29  N   UNL     1       6.029  -6.442  -4.267  0.00  0.00    -0.315 N 
ATOM     30  C   UNL     1       7.179  -6.133  -5.128  0.00  0.00    +0.107 C 
ATOM     31  C   UNL     1       7.879  -7.443  -5.505  0.00  0.00    +0.022 C 
ATOM     32  C   UNL     1       8.236  -8.211  -4.231  0.00  0.00    -0.011 C 
ATOM     33  C   UNL     1       6.956  -8.550  -3.462  0.00  0.00    +0.022 C 
ATOM     34  C   UNL     1       6.248  -7.248  -3.059  0.00  0.00    +0.107 C 
ATOM     35  C   UNL     1       8.965  -9.504  -4.602  0.00  0.00    +0.007 C 
ENDBRANCH   2  29
TORSDOF 4
