REMARK  Name = ZINC54201441
REMARK  5 active torsions:
REMARK  status: ('A' for Active; 'I' for Inactive)
REMARK    1  A    between atoms: C_4  and  C_7
REMARK    2  A    between atoms: C_10  and  C_13
REMARK    3  A    between atoms: C_18  and  O_19
REMARK    4  A    between atoms: C_25  and  C_26
REMARK    5  A    between atoms: C_31  and  O_32
REMARK                            x       y       z     vdW  Elec       q    Type
REMARK                         _______ _______ _______ _____ _____    ______ ____
ROOT
ATOM      1  C   UNL     1       3.745  -0.734  -0.805  0.00  0.00    +0.069 C 
ATOM      2  N   UNL     1       4.894  -0.167  -0.673  0.00  0.00    -0.182 NA
ATOM      3  N   UNL     1       5.965  -1.057  -0.623  0.00  0.00    -0.195 N 
ATOM      4  C   UNL     1       5.449  -2.430  -0.739  0.00  0.00    +0.139 C 
ATOM      5  C   UNL     1       3.925  -2.234  -0.860  0.00  0.00    +0.087 C 
ATOM      6  C   UNL     1       7.284  -0.710  -0.487  0.00  0.00    +0.174 C 
ATOM      7  N   UNL     1       8.342  -1.505  -0.440  0.00  0.00    -0.152 NA
ATOM      8  C   UNL     1       9.565  -1.043  -0.307  0.00  0.00    +0.276 C 
ATOM      9  O   UNL     1      10.533  -1.786  -0.265  0.00  0.00    -0.267 OA
ATOM     10  C   UNL     1       9.705   0.429  -0.211  0.00  0.00    +0.080 C 
ATOM     11  C   UNL     1      10.822   1.189  -0.071  0.00  0.00    +0.032 C 
ATOM     12  S   UNL     1       7.991   0.923  -0.340  0.00  0.00    -0.050 S 
ENDROOT
BRANCH   1  16
ATOM     13  C   UNL     1       0.025   1.297  -1.034  0.00  0.00    +0.000 A 
ATOM     14  C   UNL     1       1.197   2.020  -0.898  0.00  0.00    +0.001 A 
ATOM     15  C   UNL     1       2.409   1.367  -0.823  0.00  0.00    +0.010 A 
ATOM     16  C   UNL     1       2.452  -0.028  -0.884  0.00  0.00    -0.002 A 
ATOM     17  C   UNL     1       1.265  -0.752  -1.021  0.00  0.00    +0.010 A 
ATOM     18  C   UNL     1       0.060  -0.085  -1.095  0.00  0.00    +0.001 A 
ENDBRANCH   1  16
BRANCH   4  19
ATOM     19  C   UNL     1       5.784  -3.229   0.494  0.00  0.00    +0.017 A 
ATOM     20  C   UNL     1       6.023  -2.583   1.692  0.00  0.00    +0.009 A 
ATOM     21  C   UNL     1       6.331  -3.316   2.823  0.00  0.00    +0.001 A 
ATOM     22  C   UNL     1       6.399  -4.695   2.760  0.00  0.00    +0.004 A 
ATOM     23  C   UNL     1       6.160  -5.345   1.565  0.00  0.00    +0.046 A 
ATOM     24  C   UNL     1       5.846  -4.613   0.429  0.00  0.00    +0.122 A 
BRANCH  24  25
ATOM     25  O   UNL     1       5.605  -5.250  -0.747  0.00  0.00    -0.506 OA
ATOM     26  H   UNL     1       6.394  -5.387  -1.290  0.00  0.00    +0.292 HD
ENDBRANCH  24  25
ENDBRANCH   4  19
BRANCH  11  27
ATOM     27  C   UNL     1      10.730   2.651  -0.159  0.00  0.00    +0.018 A 
ATOM     28  C   UNL     1       9.612   3.252  -0.750  0.00  0.00    +0.011 A 
ATOM     29  C   UNL     1       9.533   4.625  -0.829  0.00  0.00    +0.001 A 
ATOM     30  C   UNL     1      10.555   5.415  -0.326  0.00  0.00    +0.004 A 
ATOM     31  C   UNL     1      11.664   4.835   0.260  0.00  0.00    +0.046 A 
ATOM     32  C   UNL     1      11.760   3.456   0.354  0.00  0.00    +0.124 A 
BRANCH  32  33
ATOM     33  O   UNL     1      12.846   2.887   0.935  0.00  0.00    -0.506 OA
ATOM     34  H   UNL     1      13.568   2.700   0.320  0.00  0.00    +0.292 HD
ENDBRANCH  32  33
ENDBRANCH  11  27
TORSDOF 5
