REMARK  Name = ZINC05643166
REMARK  8 active torsions:
REMARK  status: ('A' for Active; 'I' for Inactive)
REMARK    1  A    between atoms: C_1  and  C_2
REMARK    2  A    between atoms: C_2  and  C_3
REMARK    3  A    between atoms: C_3  and  C_4
REMARK    4  A    between atoms: C_4  and  C_6
REMARK    5  A    between atoms: C_4  and  N_7
REMARK    6  A    between atoms: C_10  and  O_12
REMARK    7  A    between atoms: C_13  and  C_20
REMARK    8  A    between atoms: C_23  and  C_26
REMARK                            x       y       z     vdW  Elec       q    Type
REMARK                         _______ _______ _______ _____ _____    ______ ____
ROOT
ATOM      1  N   UNL     1       1.317  -2.501  -2.525  0.00  0.00    -0.244 N 
ATOM      2  C   UNL     1       0.685  -3.294  -3.453  0.00  0.00    +0.132 A 
ATOM      3  C   UNL     1       1.560  -3.501  -4.461  0.00  0.00    +0.072 A 
ATOM      4  C   UNL     1       2.756  -2.816  -4.141  0.00  0.00    +0.238 A 
ATOM      5  N   UNL     1       2.601  -2.220  -2.991  0.00  0.00    -0.131 NA
ATOM      6  C   UNL     1       1.409  -4.286  -5.726  0.00  0.00    +0.115 C 
ATOM      7  S   UNL     1       0.377  -5.742  -5.540  0.00  0.00    -0.138 S 
ATOM      8  C   UNL     1      -1.287  -5.134  -5.232  0.00  0.00    +0.166 C 
ATOM      9  C   UNL     1      -1.430  -4.485  -3.912  0.00  0.00    +0.228 C 
ATOM     10  O   UNL     1      -2.480  -4.704  -3.347  0.00  0.00    -0.275 OA
ATOM     11  N   UNL     1      -0.608  -3.718  -3.261  0.00  0.00    -0.270 N 
ATOM     12  H   UNL     1      -0.999  -3.360  -2.448  0.00  0.00    +0.156 HD
ENDROOT
BRANCH   6  13
ATOM     13  C   UNL     1       2.775  -4.721  -6.191  0.00  0.00    -0.030 A 
ATOM     14  C   UNL     1       3.557  -5.525  -5.382  0.00  0.00    +0.005 A 
ATOM     15  C   UNL     1       4.810  -5.924  -5.809  0.00  0.00    +0.003 A 
ATOM     16  C   UNL     1       5.281  -5.519  -7.044  0.00  0.00    -0.050 A 
ATOM     17  C   UNL     1       4.499  -4.716  -7.853  0.00  0.00    +0.003 A 
ATOM     18  C   UNL     1       3.244  -4.321  -7.428  0.00  0.00    +0.005 A 
ATOM     19  C   UNL     1       6.647  -5.953  -7.508  0.00  0.00    +0.044 C 
ENDBRANCH   6  13
BRANCH   1  20
ATOM     20  C   UNL     1       0.739  -2.027  -1.265  0.00  0.00    +0.106 C 
ATOM     21  C   UNL     1       1.584  -2.532  -0.094  0.00  0.00    +0.032 C 
BRANCH  20  22
ATOM     22  C   UNL     1       0.718  -0.497  -1.257  0.00  0.00    +0.026 C 
BRANCH  22  24
ATOM     23  C   UNL     1      -0.019   1.526   0.010  0.00  0.00    +0.004 C 
ATOM     24  C   UNL     1       0.002  -0.004   0.002  0.00  0.00    -0.001 C 
ENDBRANCH  22  24
ENDBRANCH  20  22
ENDBRANCH   1  20
BRANCH   4  25
ATOM     25  O   UNL     1       3.879  -2.781  -4.907  0.00  0.00    -0.491 OA
ATOM     26  H   UNL     1       3.901  -2.050  -5.540  0.00  0.00    +0.294 HD
ENDBRANCH   4  25
TORSDOF 5
