REMARK  Name = ZINC02492046
REMARK  6 active torsions:
REMARK  status: ('A' for Active; 'I' for Inactive)
REMARK    1  A    between atoms: C_4  and  C_7
REMARK    2  A    between atoms: C_7  and  C_8
REMARK    3  A    between atoms: C_8  and  C_9
REMARK    4  A    between atoms: N_11  and  C_12
REMARK    5  A    between atoms: C_12  and  C_25
REMARK    6  A    between atoms: N_15  and  C_19
REMARK                            x       y       z     vdW  Elec       q    Type
REMARK                         _______ _______ _______ _____ _____    ______ ____
ROOT
ATOM      1  C   UNL     1       5.456   3.113  -1.823  0.00  0.00    +0.278 C 
ATOM      2  C   UNL     1       3.995   2.879  -2.151  0.00  0.00    +0.274 C 
ATOM      3  O   UNL     1       3.398   3.246  -3.141  0.00  0.00    -0.271 OA
ATOM      4  N   UNL     1       3.496   2.179  -1.113  0.00  0.00    -0.219 N 
ATOM      5  C   UNL     1       4.430   1.935  -0.188  0.00  0.00    +0.311 C 
ATOM      6  O   UNL     1       4.221   1.317   0.837  0.00  0.00    -0.252 OA
ATOM      7  N   UNL     1       5.628   2.450  -0.519  0.00  0.00    -0.263 N 
ATOM      8  H   UNL     1       6.446   2.395  -0.000  0.00  0.00    +0.153 HD
ENDROOT
BRANCH   4   9
ATOM      9  C   UNL     1       2.103   1.735  -1.014  0.00  0.00    +0.086 C 
ATOM     10  C   UNL     1       1.464   2.338   0.239  0.00  0.00    +0.023 C 
ATOM     11  C   UNL     1       0.010   1.875   0.343  0.00  0.00    +0.002 C 
ATOM     12  C   UNL     1      -0.034   0.348   0.433  0.00  0.00    +0.000 C 
ATOM     13  C   UNL     1       0.605  -0.255  -0.820  0.00  0.00    +0.002 C 
ATOM     14  C   UNL     1       2.060   0.208  -0.924  0.00  0.00    +0.023 C 
ENDBRANCH   4   9
BRANCH   1  17
ATOM     15  C   UNL     1       5.471   5.368  -2.748  0.00  0.00    +0.215 C 
ATOM     16  O   UNL     1       4.909   4.938  -3.733  0.00  0.00    -0.276 OA
ATOM     17  N   UNL     1       5.740   4.546  -1.713  0.00  0.00    -0.280 N 
ATOM     18  H   UNL     1       6.122   4.904  -0.897  0.00  0.00    +0.151 HD
BRANCH  15  19
ATOM     19  C   UNL     1       5.870   6.819  -2.680  0.00  0.00    +0.096 C 
BRANCH  19  20
ATOM     20  C   UNL     1       5.452   7.524  -3.973  0.00  0.00    +0.013 C 
BRANCH  20  24
ATOM     21  C   UNL     1       5.168  11.841  -4.062  0.00  0.00    +0.000 C 
ATOM     22  C   UNL     1       5.957  11.147  -5.175  0.00  0.00    +0.000 C 
ATOM     23  C   UNL     1       5.552   9.673  -5.243  0.00  0.00    +0.003 C 
ATOM     24  C   UNL     1       5.856   8.998  -3.904  0.00  0.00    -0.011 C 
ATOM     25  C   UNL     1       5.067   9.692  -2.792  0.00  0.00    +0.003 C 
ATOM     26  C   UNL     1       5.472  11.166  -2.724  0.00  0.00    +0.000 C 
ENDBRANCH  20  24
ENDBRANCH  19  20
ENDBRANCH  15  19
ENDBRANCH   1  17
BRANCH   1  27
ATOM     27  C   UNL     1       6.351   2.465  -2.880  0.00  0.00    +0.436 C 
ATOM     28  F   UNL     1       6.102   1.089  -2.922  0.00  0.00    -0.166 F 
ATOM     29  F   UNL     1       6.078   3.026  -4.131  0.00  0.00    -0.166 F 
ATOM     30  F   UNL     1       7.694   2.685  -2.553  0.00  0.00    -0.166 F 
ENDBRANCH   1  27
TORSDOF 6
