REMARK  Name = ZINC46793748
REMARK  7 active torsions:
REMARK  status: ('A' for Active; 'I' for Inactive)
REMARK    1  A    between atoms: C_1  and  O_2
REMARK    2  A    between atoms: O_2  and  N_3
REMARK    3  A    between atoms: N_3  and  S_4
REMARK    4  A    between atoms: S_4  and  C_7
REMARK    5  A    between atoms: C_10  and  C_13
REMARK    6  A    between atoms: N_15  and  C_16
REMARK    7  A    between atoms: C_19  and  N_23
REMARK                            x       y       z     vdW  Elec       q    Type
REMARK                         _______ _______ _______ _____ _____    ______ ____
ROOT
ATOM      1  C   UNL     1      -0.965  -3.549   6.271  0.00  0.00    +0.248 C 
ATOM      2  O   UNL     1      -1.436  -3.183   7.330  0.00  0.00    -0.270 OA
ATOM      3  N   UNL     1       0.078  -4.401   6.256  0.00  0.00    -0.281 N 
ATOM      4  H   UNL     1       0.411  -4.746   5.413  0.00  0.00    +0.155 HD
ENDROOT
BRANCH   3   5
ATOM      5  C   UNL     1       0.682  -4.790   7.459  0.00  0.00    +0.035 A 
ATOM      6  C   UNL     1       2.054  -5.003   7.510  0.00  0.00    +0.025 A 
ATOM      7  C   UNL     1       2.649  -5.387   8.695  0.00  0.00    +0.026 A 
ATOM      8  C   UNL     1       1.877  -5.559   9.837  0.00  0.00    +0.049 A 
ATOM      9  C   UNL     1       0.505  -5.345   9.786  0.00  0.00    +0.064 A 
ATOM     10  C   UNL     1      -0.090  -4.956   8.602  0.00  0.00    +0.045 A 
ATOM     11 CL   UNL     1      -0.460  -5.559  11.213  0.00  0.00    -0.082 Cl
BRANCH   8  12
ATOM     12  N   UNL     1       2.481  -5.948  11.038  0.00  0.00    -0.318 N 
ATOM     13  C   UNL     1       2.640  -7.369  11.391  0.00  0.00    +0.124 C 
ATOM     14  C   UNL     1       4.135  -7.665  11.523  0.00  0.00    +0.123 C 
ATOM     15  N   UNL     1       4.795  -6.641  12.321  0.00  0.00    -0.313 N 
ATOM     16  C   UNL     1       4.322  -5.409  12.515  0.00  0.00    +0.230 C 
ATOM     17  O   UNL     1       5.001  -4.619  13.135  0.00  0.00    -0.274 OA
ATOM     18  C   UNL     1       2.989  -4.955  11.996  0.00  0.00    +0.200 C 
ATOM     19  H   UNL     1       5.638  -6.871  12.742  0.00  0.00    +0.149 HD
ENDBRANCH   8  12
ENDBRANCH   3   5
BRANCH   1  23
ATOM     20  C   UNL     1      -2.608  -2.140   2.616  0.00  0.00    +0.107 A 
ATOM     21  C   UNL     1      -3.147  -1.722   3.820  0.00  0.00    +0.029 A 
ATOM     22  C   UNL     1      -2.618  -2.176   5.010  0.00  0.00    +0.015 A 
ATOM     23  C   UNL     1      -1.537  -3.059   4.999  0.00  0.00    +0.037 A 
ATOM     24  C   UNL     1      -0.998  -3.477   3.781  0.00  0.00    +0.015 A 
ATOM     25  C   UNL     1      -1.540  -3.020   2.597  0.00  0.00    +0.029 A 
BRANCH  20  26
ATOM     26  S   UNL     1      -3.289  -1.556   1.100  0.00  0.00    +0.080 S 
ATOM     27  O   UNL     1      -2.264  -1.672   0.122  0.00  0.00    -0.151 OA
ATOM     28  O   UNL     1      -3.928  -0.321   1.391  0.00  0.00    -0.151 OA
BRANCH  26  29
ATOM     29  N   UNL     1      -4.484  -2.615   0.660  0.00  0.00    -0.068 NA
ATOM     30  H   UNL     1      -4.390  -3.145  -0.147  0.00  0.00    +0.181 HD
BRANCH  29  32
ATOM     31  C   UNL     1      -6.590  -3.695   0.965  0.00  0.00    +0.223 C 
ATOM     32  O   UNL     1      -5.644  -2.747   1.462  0.00  0.00    -0.282 OA
ENDBRANCH  29  32
ENDBRANCH  26  29
ENDBRANCH  20  26
ENDBRANCH   1  23
TORSDOF 6
