REMARK  Name = ZINC01536414
REMARK  13 active torsions:
REMARK  status: ('A' for Active; 'I' for Inactive)
REMARK    1  A    between atoms: C_1  and  N_63
REMARK    2  A    between atoms: C_5  and  C_7
REMARK    3  A    between atoms: C_8  and  S_12
REMARK    4  A    between atoms: S_12  and  C_13
REMARK    5  A    between atoms: C_13  and  C_14
REMARK    6  A    between atoms: C_14  and  C_15
REMARK    7  A    between atoms: C_15  and  C_16
REMARK    8  A    between atoms: C_16  and  C_17
REMARK    9  A    between atoms: C_17  and  C_18
REMARK   10  A    between atoms: C_18  and  S_19
REMARK   11  A    between atoms: S_19  and  C_20
REMARK   12  A    between atoms: C_21  and  C_25
REMARK   13  A    between atoms: C_30  and  N_65
REMARK                            x       y       z     vdW  Elec       q    Type
REMARK                         _______ _______ _______ _____ _____    ______ ____
ROOT
ATOM      1  C   UNL     1       0.634   1.674  -1.694  0.00  0.00    +0.001 C 
ENDROOT
BRANCH   1   2
ATOM      2  C   UNL     1       0.014   2.315  -0.451  0.00  0.00    +0.011 C 
BRANCH   2   3
ATOM      3  C   UNL     1       0.896   2.027   0.765  0.00  0.00    +0.076 C 
BRANCH   3   4
ATOM      4  S   UNL     1       0.161   2.787   2.239  0.00  0.00    -0.103 S 
BRANCH   4   6
ATOM      5  C   UNL     1       1.085   2.766   4.859  0.00  0.00    +0.107 A 
ATOM      6  C   UNL     1       1.278   2.371   3.536  0.00  0.00    +0.133 A 
ATOM      7  N   UNL     1       2.368   1.654   3.341  0.00  0.00    -0.184 NA
ATOM      8  S   UNL     1       3.053   1.565   4.900  0.00  0.00    +0.117 S 
ATOM      9  N   UNL     1       1.998   2.387   5.731  0.00  0.00    -0.190 NA
BRANCH   5  14
ATOM     10  C   UNL     1      -0.906   7.010   6.503  0.00  0.00    -0.096 C 
ATOM     11  C   UNL     1      -2.198   4.962   6.401  0.00  0.00    -0.075 C 
ATOM     12  C   UNL     1      -2.541   3.803   5.462  0.00  0.00    +0.009 C 
ATOM     13  C   UNL     1      -1.286   3.066   5.086  0.00  0.00    -0.025 C 
ATOM     14  C   UNL     1      -0.085   3.571   5.264  0.00  0.00    -0.039 C 
ATOM     15  C   UNL     1       0.152   4.931   5.856  0.00  0.00    -0.041 C 
ATOM     16  N   UNL     1      -1.090   5.725   5.792  0.00  0.00    +0.381 N 
ATOM     17  H   UNL     1      -1.315   5.917   4.809  0.00  0.00    -0.082 HD
ENDBRANCH   5  14
ENDBRANCH   4   6
ENDBRANCH   3   4
ENDBRANCH   2   3
ENDBRANCH   1   2
BRANCH   1  18
ATOM     18  C   UNL     1      -0.249   1.962  -2.910  0.00  0.00    +0.001 C 
BRANCH  18  19
ATOM     19  C   UNL     1       0.371   1.321  -4.154  0.00  0.00    +0.011 C 
BRANCH  19  20
ATOM     20  C   UNL     1      -0.511   1.609  -5.370  0.00  0.00    +0.076 C 
BRANCH  20  21
ATOM     21  S   UNL     1       0.224   0.849  -6.844  0.00  0.00    -0.103 S 
BRANCH  21  22
ATOM     22  C   UNL     1      -0.893   1.266  -8.141  0.00  0.00    +0.133 A 
ATOM     23  C   UNL     1      -0.701   0.870  -9.464  0.00  0.00    +0.107 A 
ATOM     24  N   UNL     1      -1.613   1.249 -10.335  0.00  0.00    -0.190 NA
ATOM     25  S   UNL     1      -2.668   2.072  -9.504  0.00  0.00    +0.117 S 
ATOM     26  N   UNL     1      -1.988   1.974  -7.944  0.00  0.00    -0.184 NA
BRANCH  23  27
ATOM     27  C   UNL     1       0.470   0.066  -9.869  0.00  0.00    -0.039 C 
ATOM     28  C   UNL     1       0.623  -1.130  -9.342  0.00  0.00    -0.025 C 
ATOM     29  C   UNL     1       1.779  -2.027  -9.686  0.00  0.00    +0.009 C 
ATOM     30  C   UNL     1       2.458  -1.528 -10.964  0.00  0.00    -0.075 C 
ATOM     31  C   UNL     1       1.435   0.654 -10.859  0.00  0.00    -0.041 C 
ATOM     32  C   UNL     1       3.615   0.395 -11.880  0.00  0.00    -0.096 C 
ATOM     33  N   UNL     1       2.712  -0.082 -10.807  0.00  0.00    +0.381 N 
ATOM     34  H   UNL     1       3.158   0.083  -9.897  0.00  0.00    -0.082 HD
ENDBRANCH  23  27
ENDBRANCH  21  22
ENDBRANCH  20  21
ENDBRANCH  19  20
ENDBRANCH  18  19
ENDBRANCH   1  18
TORSDOF 11
