REMARK  Name = ZINC39747981
REMARK  6 active torsions:
REMARK  status: ('A' for Active; 'I' for Inactive)
REMARK    1  A    between atoms: C_1  and  C_2
REMARK    2  A    between atoms: C_4  and  C_9
REMARK    3  A    between atoms: C_5  and  C_8
REMARK    4  A    between atoms: C_9  and  C_10
REMARK    5  A    between atoms: C_10  and  C_11
REMARK    6  A    between atoms: C_16  and  N_19
REMARK                            x       y       z     vdW  Elec       q    Type
REMARK                         _______ _______ _______ _____ _____    ______ ____
ROOT
ATOM      1  C   UNL     1      -4.273   1.240  -1.711  0.00  0.00    +0.216 C 
ATOM      2  O   UNL     1      -4.452   0.432  -2.597  0.00  0.00    -0.276 OA
ATOM      3  N   UNL     1      -5.037   2.349  -1.647  0.00  0.00    -0.301 N 
ATOM      4  C   UNL     1      -4.828   3.341  -0.583  0.00  0.00    +0.110 C 
ATOM      5  C   UNL     1      -4.633   4.718  -1.225  0.00  0.00    +0.044 C 
ATOM      6  C   UNL     1      -5.819   5.021  -2.143  0.00  0.00    +0.095 C 
ATOM      7  C   UNL     1      -5.885   3.974  -3.257  0.00  0.00    +0.044 C 
ATOM      8  C   UNL     1      -6.090   2.591  -2.642  0.00  0.00    +0.110 C 
ENDROOT
BRANCH   6   9
ATOM      9  N   UNL     1      -5.653   6.352  -2.733  0.00  0.00    -0.289 N 
ATOM     10  C   UNL     1      -6.527   7.426  -2.583  0.00  0.00    +0.070 A 
ATOM     11  C   UNL     1      -7.722   7.591  -1.900  0.00  0.00    +0.028 A 
ATOM     12  C   UNL     1      -8.374   8.808  -1.939  0.00  0.00    +0.002 A 
ATOM     13  C   UNL     1      -7.839   9.863  -2.658  0.00  0.00    +0.002 A 
ATOM     14  C   UNL     1      -6.649   9.708  -3.342  0.00  0.00    +0.028 A 
ATOM     15  C   UNL     1      -5.987   8.490  -3.307  0.00  0.00    +0.067 A 
ATOM     16  N   UNL     1      -4.801   8.030  -3.876  0.00  0.00    -0.306 N 
ATOM     17  H   UNL     1      -4.203   8.547  -4.437  0.00  0.00    +0.170 HD
ATOM     18  C   UNL     1      -4.625   6.747  -3.509  0.00  0.00    +0.328 A 
ATOM     19  O   UNL     1      -3.683   6.048  -3.832  0.00  0.00    -0.247 OA
ENDBRANCH   6   9
BRANCH   1  20
ATOM     20  C   UNL     1      -3.197   1.006  -0.682  0.00  0.00    +0.100 C 
BRANCH  20  21
ATOM     21  C   UNL     1      -2.483  -0.314  -0.982  0.00  0.00    +0.044 C 
BRANCH  21  24
ATOM     22  C   UNL     1      -0.019   1.526   0.010  0.00  0.00    +0.045 C 
ATOM     23  C   UNL     1       0.002  -0.004   0.002  0.00  0.00    +0.173 C 
ATOM     24  C   UNL     1      -1.407  -0.548   0.046  0.00  0.00    -0.018 C 
ATOM     25  C   UNL     1      -1.526  -1.263   1.145  0.00  0.00    +0.038 C 
ATOM     26  N   UNL     1      -0.345  -1.271   1.865  0.00  0.00    -0.270 N 
ATOM     27  O   UNL     1       0.636  -0.500   1.190  0.00  0.00    -0.267 OA
ATOM     28  C   UNL     1      -2.784  -1.980   1.564  0.00  0.00    +0.065 C 
ATOM     29  H   UNL     1      -0.208  -1.735   2.706  0.00  0.00    +0.194 HD
ENDBRANCH  21  24
ENDBRANCH  20  21
ENDBRANCH   1  20
TORSDOF 4
