REMARK  Name = ZINC67159717
REMARK  9 active torsions:
REMARK  status: ('A' for Active; 'I' for Inactive)
REMARK    1  A    between atoms: C_1  and  C_2
REMARK    2  A    between atoms: C_2  and  N_3
REMARK    3  A    between atoms: C_4  and  C_6
REMARK    4  A    between atoms: C_6  and  N_7
REMARK    5  A    between atoms: C_13  and  C_15
REMARK    6  A    between atoms: C_15  and  C_16
REMARK    7  A    between atoms: C_16  and  C_17
REMARK    8  A    between atoms: C_17  and  C_18
REMARK    9  A    between atoms: C_18  and  C_19
REMARK                            x       y       z     vdW  Elec       q    Type
REMARK                         _______ _______ _______ _____ _____    ______ ____
ROOT
ATOM      1  N   UNL     1      -2.994  -3.830   0.010  0.00  0.00    -0.291 NA
ATOM      2  C   UNL     1      -2.411  -4.355   1.252  0.00  0.00    +0.104 C 
ATOM      3  C   UNL     1      -2.242  -5.873   1.130  0.00  0.00    +0.123 C 
ATOM      4  N   UNL     1      -3.538  -6.460   0.755  0.00  0.00    -0.299 N 
ATOM      5  C   UNL     1      -4.250  -5.892  -0.400  0.00  0.00    +0.123 C 
ATOM      6  C   UNL     1      -4.340  -4.373  -0.218  0.00  0.00    +0.104 C 
ATOM      7  C   UNL     1      -4.058  -7.489   1.451  0.00  0.00    +0.216 C 
ATOM      8  O   UNL     1      -3.457  -7.945   2.401  0.00  0.00    -0.276 OA
ENDROOT
BRANCH   1   9
ATOM      9  C   UNL     1      -3.014  -2.361   0.018  0.00  0.00    +0.180 C 
BRANCH   9  11
ATOM     10  N   UNL     1      -1.372  -0.511   0.012  0.00  0.00    -0.315 N 
ATOM     11  C   UNL     1      -1.601  -1.839   0.007  0.00  0.00    +0.227 C 
ATOM     12  O   UNL     1      -0.668  -2.615  -0.006  0.00  0.00    -0.274 OA
ATOM     13  H   UNL     1      -2.118   0.109   0.023  0.00  0.00    +0.149 HD
BRANCH  10  15
ATOM     14  C   UNL     1      -0.019   1.526   0.010  0.00  0.00    +0.024 C 
ATOM     15  C   UNL     1       0.002  -0.004   0.002  0.00  0.00    +0.101 C 
ENDBRANCH  10  15
ENDBRANCH   9  11
ENDBRANCH   1   9
BRANCH   7  16
ATOM     16  C   UNL     1      -5.388  -8.075   1.050  0.00  0.00    +0.096 C 
BRANCH  16  17
ATOM     17  C   UNL     1      -5.747  -9.222   1.996  0.00  0.00    +0.009 C 
BRANCH  17  18
ATOM     18  C   UNL     1      -7.096  -9.816   1.588  0.00  0.00    +0.002 C 
BRANCH  18  19
ATOM     19  C   UNL     1      -7.455 -10.964   2.534  0.00  0.00    +0.016 C 
BRANCH  19  20
ATOM     20  C   UNL     1      -8.805 -11.558   2.127  0.00  0.00    +0.069 C 
ATOM     21  C   UNL     1      -9.182 -12.749   3.033  0.00  0.00    +0.108 C 
ATOM     22  C   UNL     1     -10.670 -12.800   3.395  0.00  0.00    +0.105 C 
ATOM     23  C   UNL     1     -11.498 -11.655   2.773  0.00  0.00    +0.093 C 
ATOM     24  S   UNL     1     -10.181 -10.380   2.478  0.00  0.00    -0.154 S 
ATOM     25  N   UNL     1     -11.131 -14.078   2.830  0.00  0.00    -0.294 N 
ATOM     26  C   UNL     1     -10.099 -14.690   2.233  0.00  0.00    +0.300 C 
ATOM     27  O   UNL     1     -10.197 -15.768   1.680  0.00  0.00    -0.253 OA
ATOM     28  N   UNL     1      -8.960 -14.004   2.297  0.00  0.00    -0.294 N 
ATOM     29  H   UNL     1     -12.037 -14.422   2.883  0.00  0.00    +0.151 HD
ATOM     30  H   UNL     1      -8.115 -14.291   1.917  0.00  0.00    +0.151 HD
ENDBRANCH  19  20
ENDBRANCH  18  19
ENDBRANCH  17  18
ENDBRANCH  16  17
ENDBRANCH   7  16
TORSDOF 8
