REMARK  Name = ZINC03669421
REMARK  8 active torsions:
REMARK  status: ('A' for Active; 'I' for Inactive)
REMARK    1  A    between atoms: C_1  and  C_2
REMARK    2  A    between atoms: C_2  and  C_3
REMARK    3  A    between atoms: C_3  and  C_4
REMARK    4  A    between atoms: C_4  and  S_5
REMARK    5  A    between atoms: S_5  and  C_6
REMARK    6  A    between atoms: C_8  and  N_22
REMARK    7  A    between atoms: C_9  and  C_14
REMARK    8  A    between atoms: C_14  and  C_16
REMARK                            x       y       z     vdW  Elec       q    Type
REMARK                         _______ _______ _______ _____ _____    ______ ____
ROOT
ATOM      1  C   UNL     1      -3.528   5.230   0.547  0.00  0.00    +0.116 A 
ATOM      2  C   UNL     1      -2.858   3.921   0.487  0.00  0.00    +0.051 A 
ATOM      3  C   UNL     1      -1.536   3.475   0.222  0.00  0.00    +0.054 A 
ATOM      4  C   UNL     1      -1.249   2.120   0.246  0.00  0.00    +0.082 A 
ATOM      5  S   UNL     1      -2.828   1.397   0.660  0.00  0.00    -0.074 S 
ATOM      6  C   UNL     1      -3.766   2.882   0.769  0.00  0.00    +0.080 A 
ATOM      7  S   UNL     1      -5.297   3.697   1.062  0.00  0.00    +0.020 S 
ATOM      8  N   UNL     1      -4.793   5.313   0.831  0.00  0.00    -0.202 NA
ENDROOT
BRANCH   3   9
ATOM      9  N   UNL     1      -0.538   4.393  -0.065  0.00  0.00    -0.356 N 
ATOM     10  H   UNL     1       0.364   4.086  -0.249  0.00  0.00    +0.142 HD
ATOM     11  H   UNL     1      -0.741   5.341  -0.082  0.00  0.00    +0.142 HD
ENDBRANCH   3   9
BRANCH   4  12
ATOM     12  C   UNL     1      -0.018   1.476   0.010  0.00  0.00    +0.201 C 
ATOM     13  O   UNL     1       0.942   2.118  -0.380  0.00  0.00    -0.286 OA
BRANCH  12  14
ATOM     14  C   UNL     1       0.108   0.018   0.230  0.00  0.00    +0.023 A 
ATOM     15  C   UNL     1       1.071  -0.715  -0.464  0.00  0.00    +0.012 A 
ATOM     16  C   UNL     1       1.186  -2.073  -0.251  0.00  0.00    +0.001 A 
ATOM     17  C   UNL     1       0.342  -2.711   0.640  0.00  0.00    +0.000 A 
ATOM     18  C   UNL     1      -0.619  -1.991   1.328  0.00  0.00    +0.001 A 
ATOM     19  C   UNL     1      -0.741  -0.631   1.128  0.00  0.00    +0.012 A 
ENDBRANCH  12  14
ENDBRANCH   4  12
BRANCH   1  20
ATOM     20  S   UNL     1      -2.605   6.698   0.231  0.00  0.00    -0.105 S 
BRANCH  20  21
ATOM     21  C   UNL     1      -3.823   8.030   0.414  0.00  0.00    +0.076 C 
BRANCH  21  22
ATOM     22  C   UNL     1      -3.146   9.378   0.163  0.00  0.00    +0.011 C 
BRANCH  22  24
ATOM     23  C   UNL     1      -3.496  11.850   0.067  0.00  0.00    +0.004 C 
ATOM     24  C   UNL     1      -4.173  10.502   0.318  0.00  0.00    -0.003 C 
ENDBRANCH  22  24
ENDBRANCH  21  22
ENDBRANCH  20  21
ENDBRANCH   1  20
TORSDOF 7
