REMARK  Name = ZINC63848471
REMARK  3 active torsions:
REMARK  status: ('A' for Active; 'I' for Inactive)
REMARK    1  A    between atoms: C_3  and  C_13
REMARK    2  A    between atoms: C_5  and  C_6
REMARK    3  A    between atoms: N_22  and  C_23
REMARK                            x       y       z     vdW  Elec       q    Type
REMARK                         _______ _______ _______ _____ _____    ______ ____
ROOT
ATOM      1  C   UNL     1       3.599   0.625  -0.029  0.00  0.00    +0.241 C 
ATOM      2  N   UNL     1       4.095  -0.585   0.687  0.00  0.00    -0.265 NA
ATOM      3  C   UNL     1       4.165  -0.080   2.063  0.00  0.00    +0.212 C 
ATOM      4  C   UNL     1       4.525   1.395   1.893  0.00  0.00    +0.094 C 
ATOM      5  N   UNL     1       4.144   1.770   0.718  0.00  0.00    -0.257 NA
ATOM      6  C   UNL     1       5.282   1.676   3.112  0.00  0.00    +0.156 C 
ATOM      7  N   UNL     1       5.678   0.551   3.639  0.00  0.00    -0.189 NA
ATOM      8  N   UNL     1       5.291  -0.574   2.858  0.00  0.00    -0.229 N 
ATOM      9  H   UNL     1       3.436  -1.345   0.613  0.00  0.00    +0.126 HD
ENDROOT
BRANCH   1  12
ATOM     10  C   UNL     1      -0.016   1.341   0.009  0.00  0.00    +0.048 A 
ATOM     11  C   UNL     1       1.331   1.769  -0.001  0.00  0.00    +0.048 A 
ATOM     12  C   UNL     1       2.092   0.660  -0.014  0.00  0.00    +0.144 A 
ATOM     13  O   UNL     1       1.282  -0.411  -0.012  0.00  0.00    -0.458 OA
ATOM     14  C   UNL     1       0.002  -0.004   0.002  0.00  0.00    +0.134 A 
BRANCH  14  15
ATOM     15  C   UNL     1      -1.208  -0.902   0.009  0.00  0.00    +0.184 C 
ATOM     16  C   UNL     1      -1.483  -1.400  -1.412  0.00  0.00    +0.039 C 
ATOM     17  C   UNL     1      -2.677  -2.359  -1.387  0.00  0.00    +0.005 C 
ATOM     18  C   UNL     1      -2.377  -3.506  -0.417  0.00  0.00    +0.028 C 
ATOM     19  C   UNL     1      -2.067  -2.926   0.966  0.00  0.00    +0.161 C 
ATOM     20  O   UNL     1      -0.967  -2.020   0.866  0.00  0.00    -0.369 OA
ENDBRANCH  14  15
ENDBRANCH   1  12
BRANCH   8  21
ATOM     21  C   UNL     1       5.882  -1.914   2.838  0.00  0.00    +0.095 C 
ATOM     22  C   UNL     1       5.843  -2.530   4.252  0.00  0.00    +0.024 C 
ATOM     23  C   UNL     1       7.172  -3.317   4.361  0.00  0.00    +0.002 C 
ATOM     24  C   UNL     1       8.175  -2.397   3.621  0.00  0.00    +0.002 C 
ATOM     25  C   UNL     1       7.365  -1.830   2.437  0.00  0.00    +0.024 C 
ENDBRANCH   8  21
TORSDOF 3
