REMARK  Name = ZINC12512911
REMARK  4 active torsions:
REMARK  status: ('A' for Active; 'I' for Inactive)
REMARK    1  A    between atoms: C_4  and  N_7
REMARK    2  A    between atoms: C_11  and  C_12
REMARK    3  A    between atoms: N_16  and  C_17
REMARK    4  A    between atoms: C_21  and  N_23
REMARK                            x       y       z     vdW  Elec       q    Type
REMARK                         _______ _______ _______ _____ _____    ______ ____
ROOT
ATOM      1  N   UNL     1       5.181  -1.747  -3.138  0.00  0.00    -0.184 N 
ATOM      2  C   UNL     1       4.958  -2.832  -2.373  0.00  0.00    +0.272 C 
ATOM      3  O   UNL     1       4.285  -3.802  -2.669  0.00  0.00    -0.268 OA
ATOM      4  C   UNL     1       5.685  -2.623  -1.109  0.00  0.00    +0.104 C 
ATOM      5  C   UNL     1       5.745  -3.479  -0.019  0.00  0.00    +0.044 C 
ATOM      6  C   UNL     1       6.335  -1.309  -1.253  0.00  0.00    +0.266 C 
ATOM      7  O   UNL     1       7.038  -0.754  -0.429  0.00  0.00    -0.268 OA
ATOM      8  N   UNL     1       6.006  -0.841  -2.472  0.00  0.00    -0.223 N 
ATOM      9  H   UNL     1       6.301   0.009  -2.836  0.00  0.00    +0.174 HD
ENDROOT
BRANCH   1  13
ATOM     10  C   UNL     1       3.639  -1.184  -6.966  0.00  0.00    +0.000 A 
ATOM     11  C   UNL     1       4.314  -0.154  -6.336  0.00  0.00    +0.002 A 
ATOM     12  C   UNL     1       4.827  -0.338  -5.066  0.00  0.00    +0.025 A 
ATOM     13  C   UNL     1       4.663  -1.558  -4.423  0.00  0.00    +0.056 A 
ATOM     14  C   UNL     1       3.985  -2.590  -5.059  0.00  0.00    +0.025 A 
ATOM     15  C   UNL     1       3.475  -2.400  -6.328  0.00  0.00    +0.002 A 
ENDBRANCH   1  13
BRANCH   5  16
ATOM     16  C   UNL     1       4.953  -4.639   0.008  0.00  0.00    +0.047 A 
ATOM     17  C   UNL     1       5.407  -5.943   0.166  0.00  0.00    +0.027 A 
ATOM     18  C   UNL     1       4.287  -6.773   0.133  0.00  0.00    +0.020 A 
ATOM     19  C   UNL     1       3.190  -5.992  -0.040  0.00  0.00    +0.092 A 
ATOM     20  N   UNL     1       3.577  -4.694  -0.111  0.00  0.00    -0.316 N 
BRANCH  20  21
ATOM     21  C   UNL     1       2.726  -3.594  -0.280  0.00  0.00    +0.049 A 
ATOM     22  C   UNL     1       2.752  -2.548   0.632  0.00  0.00    +0.028 A 
ATOM     23  C   UNL     1       1.912  -1.465   0.463  0.00  0.00    +0.024 A 
ATOM     24  C   UNL     1       1.045  -1.422  -0.615  0.00  0.00    +0.071 A 
ATOM     25  C   UNL     1       1.017  -2.464  -1.525  0.00  0.00    +0.146 A 
ATOM     26  C   UNL     1       1.859  -3.546  -1.364  0.00  0.00    +0.060 A 
ATOM     27 CL   UNL     1      -0.010  -0.059  -0.824  0.00  0.00    -0.081 Cl
BRANCH  25  28
ATOM     28  N   UNL     1       0.087  -2.415  -2.676  0.00  0.00    +0.058 N 
ATOM     29  O   UNL     1       0.062  -3.325  -3.472  0.00  0.00    -0.126 OA
ATOM     30  O   UNL     1      -0.646  -1.465  -2.821  0.00  0.00    -0.126 OA
ENDBRANCH  25  28
ENDBRANCH  20  21
ENDBRANCH   5  16
TORSDOF 4
