REMARK  Name = ZINC58223793
REMARK  8 active torsions:
REMARK  status: ('A' for Active; 'I' for Inactive)
REMARK    1  A    between atoms: C_1  and  C_2
REMARK    2  A    between atoms: C_5  and  C_7
REMARK    3  A    between atoms: C_7  and  C_28
REMARK    4  A    between atoms: N_10  and  C_14
REMARK    5  A    between atoms: C_14  and  C_15
REMARK    6  A    between atoms: N_17  and  C_18
REMARK    7  A    between atoms: C_18  and  C_20
REMARK    8  A    between atoms: C_18  and  C_21
REMARK                            x       y       z     vdW  Elec       q    Type
REMARK                         _______ _______ _______ _____ _____    ______ ____
ROOT
ATOM      1  C   UNL     1       1.684  -3.245  -0.023  0.00  0.00    +0.168 C 
ATOM      2  C   UNL     1       2.928  -2.926  -0.828  0.00  0.00    +0.254 C 
ATOM      3  O   UNL     1       3.741  -2.054  -0.605  0.00  0.00    -0.272 OA
ATOM      4  N   UNL     1       2.943  -3.812  -1.843  0.00  0.00    -0.215 N 
ATOM      5  C   UNL     1       1.892  -4.639  -1.791  0.00  0.00    +0.310 C 
ATOM      6  O   UNL     1       1.688  -5.524  -2.599  0.00  0.00    -0.252 OA
ATOM      7  N   UNL     1       1.086  -4.381  -0.745  0.00  0.00    -0.279 N 
ATOM      8  C   UNL     1       2.053  -3.650   1.406  0.00  0.00    +0.050 C 
ATOM      9  H   UNL     1       0.271  -4.852  -0.512  0.00  0.00    +0.152 HD
ENDROOT
BRANCH   1  14
ATOM     10  C   UNL     1      -0.018   1.503   0.010  0.00  0.00    +0.086 C 
ATOM     11  C   UNL     1       0.002  -0.004   0.002  0.00  0.00    +0.102 A 
ATOM     12  C   UNL     1      -1.078  -0.805   0.003  0.00  0.00    +0.045 A 
ATOM     13  C   UNL     1      -0.601  -2.136  -0.007  0.00  0.00    +0.047 A 
ATOM     14  C   UNL     1       0.742  -2.069  -0.013  0.00  0.00    +0.137 A 
ATOM     15  O   UNL     1       1.102  -0.775  -0.013  0.00  0.00    -0.462 OA
ENDBRANCH   1  14
BRANCH   4  16
ATOM     16  C   UNL     1       3.981  -3.864  -2.875  0.00  0.00    +0.213 C 
BRANCH  16  17
ATOM     17  C   UNL     1       5.087  -4.785  -2.429  0.00  0.00    +0.231 C 
ATOM     18  O   UNL     1       5.016  -5.343  -1.355  0.00  0.00    -0.274 OA
ATOM     19  N   UNL     1       6.156  -4.988  -3.225  0.00  0.00    -0.307 N 
ATOM     20  H   UNL     1       6.213  -4.542  -4.084  0.00  0.00    +0.149 HD
BRANCH  19  21
ATOM     21  C   UNL     1       7.232  -5.883  -2.791  0.00  0.00    +0.100 C 
ATOM     22  C   UNL     1       6.872  -7.326  -3.153  0.00  0.00    +0.033 C 
BRANCH  21  23
ATOM     23  C   UNL     1       8.515  -5.497  -3.481  0.00  0.00    -0.027 A 
ATOM     24  C   UNL     1       8.498  -5.117  -4.810  0.00  0.00    +0.008 A 
ATOM     25  C   UNL     1       9.674  -4.763  -5.443  0.00  0.00    +0.038 A 
ATOM     26  C   UNL     1      10.870  -4.788  -4.746  0.00  0.00    +0.123 A 
ATOM     27  C   UNL     1      10.886  -5.169  -3.415  0.00  0.00    +0.038 A 
ATOM     28  C   UNL     1       9.708  -5.518  -2.782  0.00  0.00    +0.008 A 
ATOM     29  F   UNL     1      12.020  -4.442  -5.364  0.00  0.00    -0.205 F 
ENDBRANCH  21  23
ENDBRANCH  19  21
ENDBRANCH  16  17
ENDBRANCH   4  16
TORSDOF 5
