REMARK  Name = ZINC36493789
REMARK  13 active torsions:
REMARK  status: ('A' for Active; 'I' for Inactive)
REMARK    1  A    between atoms: C_1  and  C_2
REMARK    2  A    between atoms: C_2  and  C_3
REMARK    3  A    between atoms: C_2  and  C_4
REMARK    4  A    between atoms: C_2  and  N_5
REMARK    5  A    between atoms: C_6  and  C_8
REMARK    6  A    between atoms: C_8  and  C_10
REMARK    7  A    between atoms: C_8  and  N_17
REMARK    8  A    between atoms: C_14  and  O_16
REMARK    9  A    between atoms: N_17  and  C_18
REMARK   10  A    between atoms: C_18  and  C_19
REMARK   11  A    between atoms: C_24  and  C_26
REMARK   12  A    between atoms: C_26  and  C_34
REMARK   13  A    between atoms: C_27  and  C_28
REMARK                            x       y       z     vdW  Elec       q    Type
REMARK                         _______ _______ _______ _____ _____    ______ ____
ROOT
ATOM      1  N   UNL     1       2.567   0.653  -2.021  0.00  0.00    -0.275 N 
ATOM      2  C   UNL     1       3.462   1.055  -2.944  0.00  0.00    +0.248 C 
ATOM      3  O   UNL     1       4.547   1.479  -2.596  0.00  0.00    -0.270 OA
ENDROOT
BRANCH   2   4
ATOM      4  C   UNL     1       3.126   0.980  -4.376  0.00  0.00    +0.045 C 
ATOM      5  C   UNL     1       3.177  -0.214  -5.025  0.00  0.00    +0.021 C 
BRANCH   5   6
ATOM      6  C   UNL     1       3.727  -1.396  -4.346  0.00  0.00    -0.024 A 
ATOM      7  C   UNL     1       3.203  -2.666  -4.612  0.00  0.00    +0.008 A 
ATOM      8  C   UNL     1       3.725  -3.770  -3.972  0.00  0.00    +0.001 A 
ATOM      9  C   UNL     1       4.763  -3.625  -3.069  0.00  0.00    +0.000 A 
ATOM     10  C   UNL     1       5.286  -2.372  -2.800  0.00  0.00    +0.001 A 
ATOM     11  C   UNL     1       4.780  -1.258  -3.436  0.00  0.00    +0.008 A 
ENDBRANCH   5   6
BRANCH   4  12
ATOM     12  C   UNL     1       2.733   2.205  -5.109  0.00  0.00    -0.013 A 
ATOM     13  C   UNL     1       3.666   3.218  -5.331  0.00  0.00    +0.008 A 
ATOM     14  C   UNL     1       3.293   4.357  -6.014  0.00  0.00    +0.001 A 
ATOM     15  C   UNL     1       1.998   4.496  -6.479  0.00  0.00    +0.000 A 
ATOM     16  C   UNL     1       1.068   3.495  -6.261  0.00  0.00    +0.001 A 
ATOM     17  C   UNL     1       1.430   2.349  -5.585  0.00  0.00    +0.008 A 
ENDBRANCH   4  12
ENDBRANCH   2   4
BRANCH   1  18
ATOM     18  C   UNL     1       1.230   0.219  -2.436  0.00  0.00    +0.193 C 
BRANCH  18  19
ATOM     19  C   UNL     1       1.077  -1.257  -2.169  0.00  0.00    -0.015 A 
ATOM     20  C   UNL     1       1.691  -1.828  -1.070  0.00  0.00    +0.006 A 
ATOM     21  C   UNL     1       1.551  -3.181  -0.823  0.00  0.00    +0.004 A 
ATOM     22  C   UNL     1       0.798  -3.966  -1.674  0.00  0.00    +0.045 A 
ATOM     23  C   UNL     1       0.181  -3.395  -2.778  0.00  0.00    +0.117 A 
ATOM     24  C   UNL     1       0.318  -2.036  -3.020  0.00  0.00    +0.051 A 
BRANCH  23  25
ATOM     25  O   UNL     1      -0.560  -4.165  -3.617  0.00  0.00    -0.507 OA
ATOM     26  H   UNL     1      -1.494  -4.226  -3.374  0.00  0.00    +0.292 HD
ENDBRANCH  23  25
ENDBRANCH  18  19
BRANCH  18  28
ATOM     27  N   UNL     1      -1.120   0.746  -1.872  0.00  0.00    -0.309 N 
ATOM     28  C   UNL     1       0.190   0.981  -1.656  0.00  0.00    +0.239 C 
ATOM     29  O   UNL     1       0.531   1.806  -0.835  0.00  0.00    -0.273 OA
ATOM     30  H   UNL     1      -1.392   0.086  -2.529  0.00  0.00    +0.149 HD
BRANCH  27  32
ATOM     31  C   UNL     1      -1.975   2.985  -1.385  0.00  0.00    +0.031 C 
ATOM     32  C   UNL     1      -2.131   1.487  -1.115  0.00  0.00    +0.026 C 
ATOM     33  C   UNL     1      -1.948   1.217   0.380  0.00  0.00    +0.031 C 
ATOM     34  C   UNL     1      -3.527   1.034  -1.548  0.00  0.00    +0.031 C 
ENDBRANCH  27  32
ENDBRANCH  18  28
ENDBRANCH   1  18
BRANCH   1  35
ATOM     35  C   UNL     1       2.930   0.651  -0.601  0.00  0.00    +0.183 C 
BRANCH  35  36
ATOM     36  C   UNL     1       3.183   2.065  -0.145  0.00  0.00    +0.122 A 
ATOM     37  C   UNL     1       2.305   2.850   0.505  0.00  0.00    +0.046 A 
ATOM     38  C   UNL     1       2.954   4.085   0.736  0.00  0.00    +0.041 A 
ATOM     39  C   UNL     1       4.189   3.980   0.214  0.00  0.00    +0.195 A 
ATOM     40  O   UNL     1       4.324   2.752  -0.313  0.00  0.00    -0.466 OA
ENDBRANCH  35  36
ENDBRANCH   1  35
TORSDOF 10
