REMARK  Name = ZINC05729296
REMARK  7 active torsions:
REMARK  status: ('A' for Active; 'I' for Inactive)
REMARK    1  A    between atoms: C_3  and  C_10
REMARK    2  A    between atoms: C_5  and  N_7
REMARK    3  A    between atoms: C_12  and  C_21
REMARK    4  A    between atoms: N_16  and  C_17
REMARK    5  A    between atoms: C_17  and  C_18
REMARK    6  A    between atoms: C_18  and  O_19
REMARK    7  A    between atoms: C_21  and  C_23
REMARK                            x       y       z     vdW  Elec       q    Type
REMARK                         _______ _______ _______ _____ _____    ______ ____
ROOT
ATOM      1  C   UNL     1      -0.903   3.784   1.500  0.00  0.00    +0.145 C 
ATOM      2  C   UNL     1      -0.716   4.026   2.979  0.00  0.00    +0.076 C 
ATOM      3  C   UNL     1       0.611   3.918   3.227  0.00  0.00    +0.249 C 
ATOM      4  C   UNL     1       1.317   3.606   1.967  0.00  0.00    +0.288 C 
ATOM      5  O   UNL     1       2.517   3.448   1.860  0.00  0.00    -0.266 OA
ATOM      6  N   UNL     1       0.434   3.523   0.955  0.00  0.00    -0.281 N 
ATOM      7  O   UNL     1       1.197   4.071   4.437  0.00  0.00    -0.282 OA
ENDROOT
BRANCH   1  10
ATOM      8  C   UNL     1      -1.287   7.259   0.076  0.00  0.00    +0.003 A 
ATOM      9  C   UNL     1      -0.738   6.142   0.677  0.00  0.00    +0.006 A 
ATOM     10  C   UNL     1      -1.501   5.002   0.844  0.00  0.00    -0.020 A 
ATOM     11  C   UNL     1      -2.812   4.976   0.404  0.00  0.00    +0.038 A 
ATOM     12  C   UNL     1      -3.362   6.095  -0.193  0.00  0.00    +0.127 A 
ATOM     13  C   UNL     1      -2.599   7.236  -0.359  0.00  0.00    +0.033 A 
BRANCH  12  14
ATOM     14  N   UNL     1      -4.767   6.071  -0.658  0.00  0.00    +0.056 N 
ATOM     15  O   UNL     1      -5.262   7.067  -1.153  0.00  0.00    -0.126 OA
ATOM     16  O   UNL     1      -5.428   5.054  -0.545  0.00  0.00    -0.126 OA
ENDBRANCH  12  14
ENDBRANCH   1  10
BRANCH   2  17
ATOM     17  C   UNL     1      -1.766   4.326   3.956  0.00  0.00    +0.195 C 
ATOM     18  O   UNL     1      -1.787   5.406   4.515  0.00  0.00    -0.287 OA
BRANCH  17  19
ATOM     19  C   UNL     1      -2.801   3.316   4.262  0.00  0.00    +0.022 A 
ATOM     20  C   UNL     1      -2.739   2.049   3.677  0.00  0.00    +0.013 A 
ATOM     21  C   UNL     1      -3.704   1.109   3.970  0.00  0.00    +0.021 A 
ATOM     22  C   UNL     1      -4.740   1.423   4.835  0.00  0.00    +0.041 A 
ATOM     23  C   UNL     1      -4.810   2.679   5.415  0.00  0.00    +0.021 A 
ATOM     24  C   UNL     1      -3.848   3.626   5.133  0.00  0.00    +0.013 A 
ATOM     25 CL   UNL     1      -5.956   0.236   5.194  0.00  0.00    -0.084 Cl
ENDBRANCH  17  19
ENDBRANCH   2  17
BRANCH   6  26
ATOM     26  C   UNL     1       0.753   3.231  -0.445  0.00  0.00    +0.137 C 
BRANCH  26  27
ATOM     27  C   UNL     1       0.701   1.719  -0.675  0.00  0.00    +0.175 C 
BRANCH  27  28
ATOM     28  O   UNL     1      -0.638   1.255  -0.487  0.00  0.00    -0.393 OA
ATOM     29  H   UNL     1      -0.872   0.187  -0.611  0.00  0.00    +0.209 HD
ENDBRANCH  27  28
ENDBRANCH  26  27
ENDBRANCH   6  26
TORSDOF 7
