REMARK  Name = ZINC44198750
REMARK  3 active torsions:
REMARK  status: ('A' for Active; 'I' for Inactive)
REMARK    1  A    between atoms: C_1  and  N_2
REMARK    2  A    between atoms: C_13  and  C_16
REMARK    3  A    between atoms: C_16  and  O_17
REMARK                            x       y       z     vdW  Elec       q    Type
REMARK                         _______ _______ _______ _____ _____    ______ ____
ROOT
ATOM      1  C   UNL     1       0.006   1.454   0.002  0.00  0.00    +0.149 C 
ATOM      2  N   UNL     1      -0.000  -0.011  -0.005  0.00  0.00    -0.346 N 
ATOM      3  C   UNL     1      -0.029  -0.797  -1.142  0.00  0.00    +0.050 A 
ATOM      4  C   UNL     1      -0.057  -0.499  -2.500  0.00  0.00    +0.026 A 
ATOM      5  C   UNL     1      -0.081  -1.518  -3.426  0.00  0.00    +0.002 A 
ATOM      6  C   UNL     1      -0.078  -2.844  -3.016  0.00  0.00    +0.001 A 
ATOM      7  C   UNL     1      -0.051  -3.159  -1.687  0.00  0.00    +0.010 A 
ATOM      8  C   UNL     1      -0.025  -2.145  -0.730  0.00  0.00    +0.009 A 
ATOM      9  C   UNL     1       0.008  -2.109   0.727  0.00  0.00    +0.022 A 
ATOM     10  C   UNL     1       0.026  -0.792   1.101  0.00  0.00    +0.028 A 
ATOM     11  C   UNL     1       0.066  -0.401   2.558  0.00  0.00    +0.058 C 
ATOM     12  C   UNL     1      -0.662  -1.468   3.376  0.00  0.00    +0.040 C 
ATOM     13  C   UNL     1      -0.270  -2.861   2.985  0.00  0.00    -0.025 C 
ATOM     14  C   UNL     1       0.029  -3.191   1.730  0.00  0.00    +0.052 C 
ATOM     15 CL   UNL     1       0.442  -4.821   1.296  0.00  0.00    -0.083 Cl
ENDROOT
BRANCH  13  16
ATOM     16  C   UNL     1      -0.221  -3.928   4.049  0.00  0.00    +0.188 C 
BRANCH  16  17
ATOM     17  O   UNL     1      -1.489  -4.006   4.704  0.00  0.00    -0.391 OA
ATOM     18  H   UNL     1      -1.530  -4.674   5.402  0.00  0.00    +0.210 HD
ENDBRANCH  16  17
ENDBRANCH  13  16
TORSDOF 2
