REMARK  Name = ZINC65259541
REMARK  2 active torsions:
REMARK  status: ('A' for Active; 'I' for Inactive)
REMARK    1  A    between atoms: C_5  and  C_7
REMARK    2  A    between atoms: C_16  and  C_18
REMARK                            x       y       z     vdW  Elec       q    Type
REMARK                         _______ _______ _______ _____ _____    ______ ____
ROOT
ATOM      1  C   UNL     1       1.137  -2.247  -0.010  0.00  0.00    +0.068 A 
ATOM      2  C   UNL     1       0.136  -3.059   0.422  0.00  0.00    +0.115 A 
ATOM      3  N   UNL     1       0.456  -4.324   0.021  0.00  0.00    -0.319 N 
ATOM      4  C   UNL     1       1.648  -4.250  -0.646  0.00  0.00    +0.183 A 
ATOM      5  N   UNL     1       2.043  -3.010  -0.666  0.00  0.00    -0.327 N 
ATOM      6  N   UNL     1       2.266  -5.377  -1.187  0.00  0.00    -0.239 N 
ATOM      7  C   UNL     1       1.728  -6.682  -0.759  0.00  0.00    +0.118 C 
ATOM      8  C   UNL     1       0.197  -6.612  -0.782  0.00  0.00    +0.041 C 
ATOM      9  C   UNL     1      -0.290  -5.566   0.229  0.00  0.00    +0.126 C 
ATOM     10  C   UNL     1       3.295  -5.279  -2.052  0.00  0.00    +0.260 C 
ATOM     11  O   UNL     1       3.633  -4.189  -2.475  0.00  0.00    -0.269 OA
ATOM     12  H   UNL     1       2.856  -2.685  -1.082  0.00  0.00    +0.169 HD
ENDROOT
BRANCH   1  17
ATOM     13  C   UNL     1       0.157   1.371   0.279  0.00  0.00    +0.001 A 
ATOM     14  C   UNL     1       1.373   1.959   0.578  0.00  0.00    +0.003 A 
ATOM     15  C   UNL     1       2.514   1.185   0.686  0.00  0.00    +0.039 A 
ATOM     16  C   UNL     1       2.444  -0.182   0.496  0.00  0.00    +0.133 A 
ATOM     17  C   UNL     1       1.220  -0.780   0.195  0.00  0.00    +0.035 A 
ATOM     18  C   UNL     1       0.074   0.007   0.088  0.00  0.00    +0.013 A 
ATOM     19  F   UNL     1       3.559  -0.938   0.602  0.00  0.00    -0.205 F 
ENDBRANCH   1  17
BRANCH  10  20
ATOM     20  C   UNL     1       4.007  -6.485  -2.482  0.00  0.00    +0.074 A 
ATOM     21  C   UNL     1       4.983  -6.622  -3.458  0.00  0.00    +0.021 A 
ATOM     22  C   UNL     1       5.471  -7.894  -3.639  0.00  0.00    +0.008 A 
ATOM     23  C   UNL     1       4.982  -8.903  -2.876  0.00  0.00    +0.046 A 
ATOM     24  S   UNL     1       3.850  -8.157  -1.884  0.00  0.00    -0.092 S 
ENDBRANCH  10  20
TORSDOF 2
