REMARK  Name = ZINC34074927
REMARK  8 active torsions:
REMARK  status: ('A' for Active; 'I' for Inactive)
REMARK    1  A    between atoms: C_1  and  C_2
REMARK    2  A    between atoms: C_3  and  C_4
REMARK    3  A    between atoms: C_3  and  C_5
REMARK    4  A    between atoms: C_5  and  O_7
REMARK    5  A    between atoms: O_7  and  C_8
REMARK    6  A    between atoms: C_10  and  O_27
REMARK    7  A    between atoms: C_24  and  C_25
REMARK    8  A    between atoms: C_24  and  C_26
REMARK                            x       y       z     vdW  Elec       q    Type
REMARK                         _______ _______ _______ _____ _____    ______ ____
ROOT
ATOM      1  C   UNL     1       2.257  -0.036  -4.173  0.00  0.00    +0.253 C 
ATOM      2  C   UNL     1       1.314   0.485  -5.260  0.00  0.00    +0.196 C 
ATOM      3  C   UNL     1       1.011  -0.618  -6.242  0.00  0.00    +0.069 A 
ATOM      4  C   UNL     1       1.803  -1.747  -6.327  0.00  0.00    +0.131 A 
ATOM      5  C   UNL     1       1.500  -2.751  -7.252  0.00  0.00    +0.047 A 
ATOM      6  C   UNL     1       0.423  -2.634  -8.079  0.00  0.00    +0.015 A 
ATOM      7  C   UNL     1      -0.389  -1.497  -8.004  0.00  0.00    +0.018 A 
ATOM      8  C   UNL     1      -0.092  -0.481  -7.078  0.00  0.00    +0.148 A 
ATOM      9  O   UNL     1      -0.871   0.618  -7.000  0.00  0.00    -0.422 OA
ATOM     10  C   UNL     1      -1.934   0.759  -7.801  0.00  0.00    +0.337 A 
ATOM     11  O   UNL     1      -2.612   1.766  -7.704  0.00  0.00    -0.245 OA
ATOM     12  C   UNL     1      -2.298  -0.214  -8.754  0.00  0.00    +0.092 A 
ATOM     13  C   UNL     1      -1.554  -1.345  -8.879  0.00  0.00    +0.018 A 
ATOM     14  O   UNL     1       2.883  -1.923  -5.522  0.00  0.00    -0.482 OA
ATOM     15  C   UNL     1       3.415  -0.777  -4.855  0.00  0.00    +0.144 C 
ATOM     16  C   UNL     1       4.088   0.145  -5.874  0.00  0.00    +0.059 C 
ATOM     17  C   UNL     1       4.436  -1.218  -3.804  0.00  0.00    +0.059 C 
ENDROOT
BRANCH   2  18
ATOM     18  O   UNL     1       0.097   0.932  -4.658  0.00  0.00    -0.383 OA
ATOM     19  H   UNL     1       0.201   1.705  -4.086  0.00  0.00    +0.210 HD
ENDBRANCH   2  18
BRANCH   1  20
ATOM     20  O   UNL     1       1.552  -0.932  -3.312  0.00  0.00    -0.451 OA
BRANCH  20  21
ATOM     21  C   UNL     1       0.954  -0.397  -2.229  0.00  0.00    +0.335 C 
ATOM     22  O   UNL     1       1.030   0.798  -2.022  0.00  0.00    -0.245 OA
BRANCH  21  25
ATOM     23  C   UNL     1      -0.286   0.752   0.027  0.00  0.00    +0.036 C 
ATOM     24  C   UNL     1      -0.379  -0.730  -0.230  0.00  0.00    -0.020 C 
ATOM     25  C   UNL     1       0.211  -1.259  -1.299  0.00  0.00    +0.029 C 
ATOM     26  C   UNL     1       0.118  -2.741  -1.556  0.00  0.00    +0.051 C 
ENDBRANCH  21  25
ENDBRANCH  20  21
ENDBRANCH   1  20
TORSDOF 4
