REMARK  Name = ZINC56681239
REMARK  7 active torsions:
REMARK  status: ('A' for Active; 'I' for Inactive)
REMARK    1  A    between atoms: C_1  and  C_2
REMARK    2  A    between atoms: N_8  and  C_9
REMARK    3  A    between atoms: C_9  and  C_10
REMARK    4  A    between atoms: C_10  and  N_11
REMARK    5  A    between atoms: N_14  and  C_15
REMARK    6  A    between atoms: C_18  and  C_21
REMARK    7  A    between atoms: C_21  and  N_22
REMARK                            x       y       z     vdW  Elec       q    Type
REMARK                         _______ _______ _______ _____ _____    ______ ____
ROOT
ATOM      1  N   UNL     1       0.239   0.190   4.833  0.00  0.00    -0.301 N 
ATOM      2  C   UNL     1       0.776  -0.046   6.047  0.00  0.00    +0.304 C 
ATOM      3  O   UNL     1       1.792  -0.707   6.144  0.00  0.00    -0.253 OA
ATOM      4  N   UNL     1       0.186   0.450   7.152  0.00  0.00    -0.269 N 
ATOM      5  H   UNL     1      -0.572   0.718   4.756  0.00  0.00    +0.150 HD
ATOM      6  H   UNL     1      -0.585   1.033   7.071  0.00  0.00    +0.156 HD
ENDROOT
BRANCH   4   7
ATOM      7  C   UNL     1       0.688   0.125   8.418  0.00  0.00    +0.035 A 
ATOM      8  C   UNL     1      -0.181  -0.042   9.489  0.00  0.00    +0.023 A 
ATOM      9  C   UNL     1       0.316  -0.363  10.736  0.00  0.00    +0.007 A 
ATOM     10  C   UNL     1       1.678  -0.518  10.920  0.00  0.00    -0.028 A 
ATOM     11  C   UNL     1       2.546  -0.352   9.856  0.00  0.00    +0.007 A 
ATOM     12  C   UNL     1       2.054  -0.037   8.605  0.00  0.00    +0.023 A 
BRANCH  10  13
ATOM     13  C   UNL     1       2.217  -0.869  12.283  0.00  0.00    +0.160 C 
BRANCH  13  14
ATOM     14  N   UNL     1       2.280  -2.326  12.424  0.00  0.00    -0.311 N 
ATOM     15  C   UNL     1       1.208  -2.999  12.916  0.00  0.00    +0.089 A 
ATOM     16  C   UNL     1       1.242  -4.345  13.056  0.00  0.00    +0.018 A 
ATOM     17  C   UNL     1       2.392  -5.058  12.689  0.00  0.00    +0.007 A 
ATOM     18  C   UNL     1       3.468  -4.380  12.194  0.00  0.00    +0.070 A 
ATOM     19  C   UNL     1       3.397  -2.983  12.058  0.00  0.00    +0.252 A 
ATOM     20  O   UNL     1       4.350  -2.364  11.612  0.00  0.00    -0.268 OA
ENDBRANCH  13  14
ENDBRANCH  10  13
ENDBRANCH   4   7
BRANCH   1  21
ATOM     21  C   UNL     1       0.879  -0.349   3.631  0.00  0.00    +0.087 C 
BRANCH  21  22
ATOM     22  C   UNL     1       0.075   0.062   2.396  0.00  0.00    -0.059 C 
BRANCH  22  29
ATOM     23  C   UNL     1       0.004   1.544   0.013  0.00  0.00    -0.013 C 
ATOM     24  C   UNL     1       0.014   0.014   0.001  0.00  0.00    -0.072 C 
ATOM     25  C   UNL     1       0.728  -0.481  -1.259  0.00  0.00    -0.016 C 
ATOM     26  C   UNL     1       0.736  -2.012  -1.267  0.00  0.00    -0.003 C 
ATOM     27  C   UNL     1       1.404  -2.516   0.016  0.00  0.00    -0.019 C 
ATOM     28  C   UNL     1       0.665  -1.946   1.228  0.00  0.00    -0.078 C 
ATOM     29  N   UNL     1       0.717  -0.479   1.191  0.00  0.00    +0.382 N 
ATOM     30  H   UNL     1       1.679  -0.178   1.161  0.00  0.00    -0.081 HD
ENDBRANCH  22  29
ENDBRANCH  21  22
ENDBRANCH   1  21
TORSDOF 6
