REMARK  Name = ZINC08766491
REMARK  11 active torsions:
REMARK  status: ('A' for Active; 'I' for Inactive)
REMARK    1  A    between atoms: C_1  and  C_2
REMARK    2  A    between atoms: C_6  and  O_28
REMARK    3  A    between atoms: C_7  and  C_18
REMARK    4  A    between atoms: C_12  and  C_13
REMARK    5  A    between atoms: C_13  and  C_14
REMARK    6  A    between atoms: C_14  and  O_16
REMARK    7  A    between atoms: O_16  and  C_17
REMARK    8  A    between atoms: C_18  and  N_50
REMARK    9  A    between atoms: C_19  and  C_20
REMARK   10  A    between atoms: C_19  and  N_50
REMARK   11  A    between atoms: C_20  and  C_21
REMARK                            x       y       z     vdW  Elec       q    Type
REMARK                         _______ _______ _______ _____ _____    ______ ____
ROOT
ATOM      1  C   UNL     1      -2.413   0.965   2.512  0.00  0.00    +0.045 C 
ATOM      2  C   UNL     1      -2.967   0.489   1.194  0.00  0.00    -0.029 A 
ATOM      3  C   UNL     1      -4.067  -0.477   1.146  0.00  0.00    +0.023 A 
ATOM      4  C   UNL     1      -4.633  -0.985   2.321  0.00  0.00    +0.035 A 
ATOM      5  C   UNL     1      -5.657  -1.884   2.248  0.00  0.00    +0.083 A 
ATOM      6  C   UNL     1      -6.144  -2.300   1.008  0.00  0.00    +0.140 A 
ATOM      7  C   UNL     1      -5.596  -1.807  -0.164  0.00  0.00    +0.021 A 
ATOM      8  C   UNL     1      -4.554  -0.893  -0.107  0.00  0.00    +0.144 A 
ATOM      9  O   UNL     1      -4.006  -0.400  -1.239  0.00  0.00    -0.422 OA
ATOM     10  C   UNL     1      -3.002   0.489  -1.201  0.00  0.00    +0.341 A 
ATOM     11  O   UNL     1      -2.543   0.910  -2.248  0.00  0.00    -0.245 OA
ATOM     12  C   UNL     1      -2.462   0.945   0.019  0.00  0.00    +0.051 A 
ATOM     13 CL   UNL     1      -6.359  -2.514   3.705  0.00  0.00    -0.080 Cl
ENDROOT
BRANCH   6  14
ATOM     14  O   UNL     1      -7.164  -3.194   0.951  0.00  0.00    -0.505 OA
ATOM     15  H   UNL     1      -8.042  -2.790   0.941  0.00  0.00    +0.292 HD
ENDBRANCH   6  14
BRANCH  12  16
ATOM     16  C   UNL     1      -1.329   1.940   0.019  0.00  0.00    +0.163 C 
BRANCH  16  17
ATOM     17  C   UNL     1      -0.014   1.204   0.009  0.00  0.00    +0.311 C 
ATOM     18  O   UNL     1       0.002  -0.004   0.002  0.00  0.00    -0.250 OA
BRANCH  17  19
ATOM     19  O   UNL     1       1.139   1.891   0.001  0.00  0.00    -0.468 OA
ATOM     20  C   UNL     1       2.367   1.117  -0.015  0.00  0.00    +0.280 C 
ENDBRANCH  17  19
ENDBRANCH  16  17
ENDBRANCH  12  16
BRANCH   7  21
ATOM     21  C   UNL     1      -6.130  -2.262  -1.498  0.00  0.00    -0.039 C 
BRANCH  21  22
ATOM     22  N   UNL     1      -7.221  -1.361  -1.915  0.00  0.00    +0.382 N 
ATOM     23  H   UNL     1      -6.858  -0.404  -1.993  0.00  0.00    -0.085 HD
ATOM     24  H   UNL     1      -7.969  -1.387  -1.213  0.00  0.00    -0.085 HD
BRANCH  22  25
ATOM     25  C   UNL     1      -7.763  -1.784  -3.220  0.00  0.00    -0.077 C 
BRANCH  25  26
ATOM     26  C   UNL     1      -8.890  -0.833  -3.626  0.00  0.00    +0.016 C 
BRANCH  26  27
ATOM     27  C   UNL     1      -9.450  -1.258  -4.959  0.00  0.00    -0.049 A 
ATOM     28  C   UNL     1      -8.917  -0.747  -6.128  0.00  0.00    +0.005 A 
ATOM     29  C   UNL     1      -9.427  -1.141  -7.351  0.00  0.00    +0.020 A 
ATOM     30  C   UNL     1     -10.478  -2.039  -7.405  0.00  0.00    +0.041 A 
ATOM     31  C   UNL     1     -11.014  -2.546  -6.235  0.00  0.00    +0.020 A 
ATOM     32  C   UNL     1     -10.500  -2.156  -5.013  0.00  0.00    +0.005 A 
ATOM     33 CL   UNL     1     -11.122  -2.529  -8.941  0.00  0.00    -0.084 Cl
ENDBRANCH  26  27
ENDBRANCH  25  26
ENDBRANCH  22  25
ENDBRANCH  21  22
ENDBRANCH   7  21
TORSDOF 9
