REMARK  Name = ZINC16861082
REMARK  9 active torsions:
REMARK  status: ('A' for Active; 'I' for Inactive)
REMARK    1  A    between atoms: C_1  and  C_2
REMARK    2  A    between atoms: C_2  and  C_4
REMARK    3  A    between atoms: C_2  and  S_15
REMARK    4  A    between atoms: N_6  and  C_7
REMARK    5  A    between atoms: C_10  and  O_13
REMARK    6  A    between atoms: O_13  and  C_14
REMARK    7  A    between atoms: S_15  and  C_16
REMARK    8  A    between atoms: N_29  and  C_30
REMARK    9  A    between atoms: C_30  and  C_31
REMARK                            x       y       z     vdW  Elec       q    Type
REMARK                         _______ _______ _______ _____ _____    ______ ____
ROOT
ATOM      1  C   UNL     1      -2.114   5.818  -4.158  0.00  0.00    +0.173 A 
ATOM      2  N   UNL     1      -1.786   6.233  -2.941  0.00  0.00    -0.216 NA
ATOM      3  C   UNL     1      -1.500   5.304  -2.038  0.00  0.00    +0.117 A 
ATOM      4  C   UNL     1      -1.525   3.915  -2.299  0.00  0.00    +0.076 A 
ATOM      5  C   UNL     1      -1.181   3.048  -1.184  0.00  0.00    -0.023 A 
ATOM      6  C   UNL     1      -0.874   3.656  -0.015  0.00  0.00    -0.004 A 
ATOM      7  S   UNL     1      -1.026   5.394  -0.340  0.00  0.00    -0.073 S 
ATOM      8  C   UNL     1      -0.489   2.999   1.275  0.00  0.00    +0.043 C 
ATOM      9  C   UNL     1      -0.851   1.510   1.189  0.00  0.00    +0.005 C 
ATOM     10  C   UNL     1      -0.333   0.956  -0.142  0.00  0.00    +0.005 C 
ATOM     11  C   UNL     1      -1.159   1.526  -1.296  0.00  0.00    +0.037 C 
ATOM     12  C   UNL     1      -1.883   3.503  -3.624  0.00  0.00    +0.263 A 
ATOM     13  O   UNL     1      -1.932   2.329  -3.946  0.00  0.00    -0.267 OA
ATOM     14  N   UNL     1      -2.163   4.500  -4.497  0.00  0.00    -0.285 N 
ENDROOT
BRANCH   1  15
ATOM     15  S   UNL     1      -2.500   7.021  -5.386  0.00  0.00    -0.075 S 
BRANCH  15  17
ATOM     16  C   UNL     1      -3.330   8.587  -3.306  0.00  0.00    +0.029 C 
ATOM     17  C   UNL     1      -2.282   8.537  -4.420  0.00  0.00    +0.137 C 
BRANCH  17  18
ATOM     18  C   UNL     1      -2.448   9.734  -5.320  0.00  0.00    +0.230 C 
ATOM     19  O   UNL     1      -3.108   9.644  -6.334  0.00  0.00    -0.274 OA
ATOM     20  N   UNL     1      -1.863  10.905  -4.999  0.00  0.00    -0.285 N 
ATOM     21  H   UNL     1      -1.399  10.999  -4.152  0.00  0.00    +0.155 HD
BRANCH  20  22
ATOM     22  C   UNL     1      -1.924  11.986  -5.888  0.00  0.00    +0.034 A 
ATOM     23  C   UNL     1      -1.919  11.759  -7.258  0.00  0.00    +0.027 A 
ATOM     24  C   UNL     1      -1.984  12.825  -8.134  0.00  0.00    +0.047 A 
ATOM     25  C   UNL     1      -2.043  14.122  -7.645  0.00  0.00    +0.120 A 
ATOM     26  C   UNL     1      -2.042  14.349  -6.277  0.00  0.00    +0.047 A 
ATOM     27  C   UNL     1      -1.983  13.284  -5.400  0.00  0.00    +0.027 A 
BRANCH  25  28
ATOM     28  O   UNL     1      -2.100  15.171  -8.508  0.00  0.00    -0.495 OA
ATOM     29  C   UNL     1      -2.097  14.864  -9.904  0.00  0.00    +0.277 C 
ENDBRANCH  25  28
ENDBRANCH  20  22
ENDBRANCH  17  18
ENDBRANCH  15  17
ENDBRANCH   1  15
BRANCH  14  30
ATOM     30  C   UNL     1      -2.535   4.144  -5.868  0.00  0.00    +0.159 C 
BRANCH  30  31
ATOM     31  C   UNL     1      -4.053   3.972  -5.956  0.00  0.00    +0.138 C 
ATOM     32  C   UNL     1      -4.445   3.486  -7.368  0.00  0.00    +0.035 C 
ATOM     33  C   UNL     1      -5.748   4.284  -7.642  0.00  0.00    +0.031 C 
ATOM     34  C   UNL     1      -5.439   5.613  -6.909  0.00  0.00    +0.160 C 
ATOM     35  O   UNL     1      -4.699   5.232  -5.738  0.00  0.00    -0.375 OA
ENDBRANCH  30  31
ENDBRANCH  14  30
TORSDOF 7
