REMARK  Name = ZINC39736527
REMARK  4 active torsions:
REMARK  status: ('A' for Active; 'I' for Inactive)
REMARK    1  A    between atoms: C_1  and  C_2
REMARK    2  A    between atoms: C_5  and  N_9
REMARK    3  A    between atoms: C_6  and  C_8
REMARK    4  A    between atoms: C_13  and  C_14
REMARK                            x       y       z     vdW  Elec       q    Type
REMARK                         _______ _______ _______ _____ _____    ______ ____
ROOT
ATOM      1  N   UNL     1       0.059  -4.171  -0.021  0.00  0.00    -0.223 N 
ATOM      2  C   UNL     1      -1.086  -4.832  -0.024  0.00  0.00    +0.263 C 
ATOM      3  O   UNL     1      -2.158  -4.258  -0.020  0.00  0.00    -0.269 OA
ATOM      4  C   UNL     1      -0.993  -6.314  -0.032  0.00  0.00    +0.077 C 
ATOM      5  C   UNL     1      -1.999  -7.260  -0.036  0.00  0.00    +0.026 C 
ATOM      6  S   UNL     1       0.781  -6.537  -0.035  0.00  0.00    -0.061 S 
ATOM      7  C   UNL     1       1.245  -4.813  -0.031  0.00  0.00    +0.125 C 
ATOM      8  S   UNL     1       2.818  -4.137  -0.037  0.00  0.00    -0.027 S 
ENDROOT
BRANCH   5   9
ATOM      9  C   UNL     1      -1.680  -8.619  -0.044  0.00  0.00    -0.018 C 
ATOM     10  C   UNL     1      -2.568  -9.695  -0.055  0.00  0.00    +0.003 A 
ATOM     11  C   UNL     1      -3.977  -9.769  -0.060  0.00  0.00    +0.010 A 
ATOM     12  C   UNL     1      -4.588 -10.980  -0.071  0.00  0.00    +0.001 A 
ATOM     13  C   UNL     1      -3.855 -12.171  -0.075  0.00  0.00    +0.002 A 
ATOM     14  C   UNL     1      -2.501 -12.178  -0.070  0.00  0.00    +0.026 A 
ATOM     15  C   UNL     1      -1.789 -10.947  -0.060  0.00  0.00    +0.043 A 
ATOM     16  N   UNL     1      -0.500 -10.687  -0.053  0.00  0.00    -0.380 N 
ATOM     17  C   UNL     1      -0.298  -9.235  -0.049  0.00  0.00    +0.149 C 
ATOM     18  H   UNL     1       0.206 -11.352  -0.054  0.00  0.00    +0.160 HD
ENDBRANCH   5   9
BRANCH   1  23
ATOM     19  C   UNL     1      -0.018   1.503   0.010  0.00  0.00    +0.044 C 
ATOM     20  C   UNL     1       0.002  -0.004   0.002  0.00  0.00    -0.050 A 
ATOM     21  C   UNL     1       0.006  -0.688  -1.200  0.00  0.00    +0.005 A 
ATOM     22  C   UNL     1       0.025  -2.068  -1.211  0.00  0.00    +0.024 A 
ATOM     23  C   UNL     1       0.041  -2.771  -0.013  0.00  0.00    +0.046 A 
ATOM     24  C   UNL     1       0.037  -2.082   1.192  0.00  0.00    -0.028 A 
ATOM     25  C   UNL     1       0.023  -0.700   1.196  0.00  0.00    +0.008 A 
ATOM     26  C   UNL     1       0.054  -2.840   2.494  0.00  0.00    +0.046 C 
ENDBRANCH   1  23
TORSDOF 2
