REMARK  Name = ZINC16429479
REMARK  6 active torsions:
REMARK  status: ('A' for Active; 'I' for Inactive)
REMARK    1  A    between atoms: C_3  and  S_25
REMARK    2  A    between atoms: C_6  and  C_7
REMARK    3  A    between atoms: C_10  and  C_12
REMARK    4  A    between atoms: N_13  and  C_14
REMARK    5  A    between atoms: C_15  and  C_23
REMARK    6  A    between atoms: S_25  and  N_28
REMARK                            x       y       z     vdW  Elec       q    Type
REMARK                         _______ _______ _______ _____ _____    ______ ____
ROOT
ATOM      1  C   UNL     1      -1.264  -0.763   0.011  0.00  0.00    +0.136 A 
ATOM      2  C   UNL     1      -1.376  -2.124   0.010  0.00  0.00    +0.050 A 
ATOM      3  C   UNL     1      -2.740  -2.426   0.019  0.00  0.00    +0.051 A 
ATOM      4  C   UNL     1      -3.415  -1.219   0.026  0.00  0.00    +0.147 A 
ATOM      5  O   UNL     1      -2.498  -0.228   0.026  0.00  0.00    -0.454 OA
ENDROOT
BRANCH   1  11
ATOM      6  C   UNL     1      -0.017   1.393   0.010  0.00  0.00    +0.013 A 
ATOM      7  C   UNL     1       1.170   2.095   0.002  0.00  0.00    +0.029 A 
ATOM      8  C   UNL     1       2.378   1.420  -0.013  0.00  0.00    +0.105 A 
ATOM      9  C   UNL     1       2.404   0.036  -0.021  0.00  0.00    +0.029 A 
ATOM     10  C   UNL     1       1.225  -0.679  -0.014  0.00  0.00    +0.013 A 
ATOM     11  C   UNL     1       0.002  -0.004   0.002  0.00  0.00    +0.017 A 
BRANCH   8  12
ATOM     12  S   UNL     1       3.889   2.325  -0.023  0.00  0.00    +0.056 S 
ATOM     13  O   UNL     1       4.872   1.469  -0.587  0.00  0.00    -0.153 OA
ATOM     14  O   UNL     1       3.592   3.605  -0.564  0.00  0.00    -0.153 OA
BRANCH  12  15
ATOM     15  N   UNL     1       4.324   2.569   1.557  0.00  0.00    -0.204 NA
ATOM     16  H   UNL     1       5.261   2.638   1.796  0.00  0.00    +0.144 HD
ATOM     17  H   UNL     1       3.642   2.642   2.242  0.00  0.00    +0.144 HD
ENDBRANCH  12  15
ENDBRANCH   8  12
ENDBRANCH   1  11
BRANCH   4  18
ATOM     18  C   UNL     1      -4.817  -1.052   0.036  0.00  0.00    +0.158 C 
ATOM     19  N   UNL     1      -5.335   0.155   0.041  0.00  0.00    -0.243 NA
BRANCH  19  20
ATOM     20  C   UNL     1      -6.673   0.315   0.051  0.00  0.00    +0.119 A 
ATOM     21  C   UNL     1      -7.422   1.498   0.052  0.00  0.00    +0.088 A 
ATOM     22  C   UNL     1      -8.825   1.405   0.063  0.00  0.00    -0.018 A 
ATOM     23  C   UNL     1      -9.357   0.157   0.072  0.00  0.00    -0.004 A 
ATOM     24  S   UNL     1      -7.955  -0.928   0.058  0.00  0.00    -0.073 S 
ATOM     25  C   UNL     1     -10.807  -0.212   0.085  0.00  0.00    +0.043 C 
ATOM     26  C   UNL     1     -11.622   1.034   0.459  0.00  0.00    +0.005 C 
ATOM     27  C   UNL     1     -11.132   2.212  -0.388  0.00  0.00    +0.005 C 
ATOM     28  C   UNL     1      -9.733   2.632   0.064  0.00  0.00    +0.037 C 
BRANCH  21  29
ATOM     29  C   UNL     1      -6.774   2.775   0.043  0.00  0.00    +0.102 C 
ATOM     30  N   UNL     1      -6.259   3.788   0.036  0.00  0.00    -0.191 NA
ENDBRANCH  21  29
ENDBRANCH  19  20
ENDBRANCH   4  18
TORSDOF 6
