REMARK  Name = ZINC45962128
REMARK  8 active torsions:
REMARK  status: ('A' for Active; 'I' for Inactive)
REMARK    1  A    between atoms: C_1  and  C_2
REMARK    2  A    between atoms: C_2  and  N_3
REMARK    3  A    between atoms: N_3  and  C_4
REMARK    4  A    between atoms: C_14  and  N_15
REMARK    5  A    between atoms: N_15  and  S_16
REMARK    6  A    between atoms: S_16  and  C_19
REMARK    7  A    between atoms: C_21  and  C_26
REMARK    8  A    between atoms: C_24  and  C_25
REMARK                            x       y       z     vdW  Elec       q    Type
REMARK                         _______ _______ _______ _____ _____    ______ ____
ROOT
ATOM      1  C   UNL     1       0.923  -1.831  -1.384  0.00  0.00    +0.068 A 
ATOM      2  C   UNL     1       1.665  -2.326  -2.554  0.00  0.00    +0.040 A 
ATOM      3  C   UNL     1       2.237  -1.441  -3.471  0.00  0.00    +0.013 A 
ATOM      4  C   UNL     1       2.926  -1.936  -4.556  0.00  0.00    +0.001 A 
ATOM      5  C   UNL     1       3.053  -3.305  -4.739  0.00  0.00    +0.004 A 
ATOM      6  C   UNL     1       2.494  -4.189  -3.841  0.00  0.00    +0.047 A 
ATOM      7  C   UNL     1       1.794  -3.712  -2.740  0.00  0.00    +0.141 A 
ATOM      8  O   UNL     1       1.241  -4.567  -1.853  0.00  0.00    -0.421 OA
ATOM      9  C   UNL     1       0.560  -4.135  -0.780  0.00  0.00    +0.362 A 
ATOM     10  O   UNL     1       0.082  -4.952  -0.012  0.00  0.00    -0.243 OA
ATOM     11  C   UNL     1       0.388  -2.764  -0.515  0.00  0.00    +0.154 A 
ENDROOT
BRANCH   1  12
ATOM     12  N   UNL     1       0.770  -0.474  -1.158  0.00  0.00    -0.342 N 
ATOM     13  H   UNL     1       1.099   0.166  -1.808  0.00  0.00    +0.146 HD
BRANCH  12  15
ATOM     14  C   UNL     1       0.238   1.517   0.159  0.00  0.00    +0.024 C 
ATOM     15  C   UNL     1       0.110  -0.005   0.063  0.00  0.00    +0.098 C 
ENDBRANCH  12  15
ENDBRANCH   1  12
BRANCH  11  16
ATOM     16  N   UNL     1      -0.326  -2.346   0.623  0.00  0.00    -0.208 N 
ATOM     17  H   UNL     1      -0.540  -1.407   0.743  0.00  0.00    +0.174 HD
BRANCH  16  18
ATOM     18  S   UNL     1      -0.803  -3.456   1.755  0.00  0.00    +0.073 S 
ATOM     19  O   UNL     1       0.319  -4.291   2.003  0.00  0.00    -0.150 OA
ATOM     20  O   UNL     1      -1.454  -2.729   2.787  0.00  0.00    -0.150 OA
BRANCH  18  21
ATOM     21  C   UNL     1      -2.031  -4.472   1.003  0.00  0.00    +0.112 A 
ATOM     22  C   UNL     1      -1.829  -5.836   0.896  0.00  0.00    +0.032 A 
ATOM     23  C   UNL     1      -2.792  -6.633   0.307  0.00  0.00    -0.049 A 
ATOM     24  C   UNL     1      -3.957  -6.067  -0.175  0.00  0.00    +0.004 A 
ATOM     25  C   UNL     1      -4.160  -4.704  -0.068  0.00  0.00    +0.005 A 
ATOM     26  C   UNL     1      -3.198  -3.907   0.526  0.00  0.00    -0.024 A 
ATOM     27  C   UNL     1      -3.421  -2.422   0.648  0.00  0.00    +0.046 C 
ATOM     28  C   UNL     1      -2.571  -8.119   0.190  0.00  0.00    +0.044 C 
ENDBRANCH  18  21
ENDBRANCH  16  18
ENDBRANCH  11  16
TORSDOF 5
