REMARK  Name = ZINC62425970
REMARK  5 active torsions:
REMARK  status: ('A' for Active; 'I' for Inactive)
REMARK    1  A    between atoms: C_1  and  C_2
REMARK    2  A    between atoms: C_5  and  C_8
REMARK    3  A    between atoms: C_9  and  C_10
REMARK    4  A    between atoms: C_11  and  C_21
REMARK    5  A    between atoms: C_17  and  C_20
REMARK                            x       y       z     vdW  Elec       q    Type
REMARK                         _______ _______ _______ _____ _____    ______ ____
ROOT
ATOM      1  C   UNL     1       0.096  -6.389   1.135  0.00  0.00    +0.107 A 
ATOM      2  C   UNL     1      -0.747  -7.237   0.413  0.00  0.00    +0.189 A 
ATOM      3  N   UNL     1      -0.396  -8.503   0.686  0.00  0.00    -0.118 NA
ATOM      4  N   UNL     1       0.589  -8.524   1.512  0.00  0.00    -0.057 NA
ATOM      5  N   UNL     1       0.949  -7.207   1.830  0.00  0.00    -0.187 N 
ATOM      6  C   UNL     1       1.973  -6.807   2.685  0.00  0.00    +0.196 A 
ATOM      7  N   UNL     1       2.812  -7.560   3.363  0.00  0.00    -0.226 NA
ATOM      8  C   UNL     1       3.735  -7.025   4.138  0.00  0.00    +0.048 A 
ATOM      9  C   UNL     1       3.777  -5.670   4.203  0.00  0.00    +0.071 A 
ATOM     10  S   UNL     1       2.440  -5.244   3.098  0.00  0.00    -0.056 S 
ATOM     11  C   UNL     1       4.700  -7.881   4.918  0.00  0.00    +0.066 C 
ENDROOT
BRANCH   1  13
ATOM     12  C   UNL     1       0.060  -4.246  -0.021  0.00  0.00    +0.010 C 
ATOM     13  C   UNL     1       0.076  -4.926   1.143  0.00  0.00    +0.031 C 
BRANCH  12  18
ATOM     14  C   UNL     1      -0.018   1.503   0.010  0.00  0.00    +0.044 C 
ATOM     15  C   UNL     1       0.002  -0.004   0.002  0.00  0.00    -0.050 A 
ATOM     16  C   UNL     1       0.006  -0.686  -1.202  0.00  0.00    +0.004 A 
ATOM     17  C   UNL     1       0.025  -2.064  -1.218  0.00  0.00    +0.008 A 
ATOM     18  C   UNL     1       0.041  -2.774  -0.013  0.00  0.00    -0.025 A 
ATOM     19  C   UNL     1       0.037  -2.078   1.200  0.00  0.00    +0.008 A 
ATOM     20  C   UNL     1       0.023  -0.699   1.199  0.00  0.00    +0.004 A 
ENDBRANCH  12  18
ENDBRANCH   1  13
BRANCH   2  21
ATOM     21  C   UNL     1      -1.802  -6.827  -0.465  0.00  0.00    +0.123 C 
ATOM     22  N   UNL     1      -2.638  -6.502  -1.161  0.00  0.00    -0.189 NA
ENDBRANCH   2  21
TORSDOF 3
