REMARK  Name = ZINC39387676
REMARK  7 active torsions:
REMARK  status: ('A' for Active; 'I' for Inactive)
REMARK    1  A    between atoms: C_1  and  C_2
REMARK    2  A    between atoms: C_5  and  C_7
REMARK    3  A    between atoms: C_11  and  C_14
REMARK    4  A    between atoms: C_14  and  C_15
REMARK    5  A    between atoms: C_15  and  C_16
REMARK    6  A    between atoms: N_18  and  C_19
REMARK    7  A    between atoms: C_19  and  C_20
REMARK                            x       y       z     vdW  Elec       q    Type
REMARK                         _______ _______ _______ _____ _____    ______ ____
ROOT
ATOM      1  C   UNL     1       1.812  -6.724   3.230  0.00  0.00    +0.099 C 
ENDROOT
BRANCH   1   2
ATOM      2  C   UNL     1       1.511  -8.131   3.680  0.00  0.00    +0.213 C 
ATOM      3  O   UNL     1       1.591  -9.050   2.892  0.00  0.00    -0.276 OA
ATOM      4  N   UNL     1       1.154  -8.368   4.957  0.00  0.00    -0.310 N 
ATOM      5  H   UNL     1       1.090  -7.633   5.587  0.00  0.00    +0.149 HD
BRANCH   4   6
ATOM      6  C   UNL     1       0.862  -9.735   5.395  0.00  0.00    +0.157 C 
BRANCH   6   7
ATOM      7  C   UNL     1       0.491  -9.727   6.855  0.00  0.00    +0.034 A 
ATOM      8  H   UNL     1       2.346  -9.816   7.797  0.00  0.00    +0.166 HD
ATOM      9  C   UNL     1      -0.764  -9.679   7.331  0.00  0.00    +0.032 A 
ATOM     10  C   UNL     1      -0.668  -9.690   8.793  0.00  0.00    -0.000 A 
ATOM     11  C   UNL     1      -1.605  -9.657   9.827  0.00  0.00    +0.010 A 
ATOM     12  C   UNL     1      -1.183  -9.680  11.126  0.00  0.00    +0.001 A 
ATOM     13  C   UNL     1       0.171  -9.736  11.427  0.00  0.00    +0.002 A 
ATOM     14  C   UNL     1       1.113  -9.768  10.421  0.00  0.00    +0.026 A 
ATOM     15  C   UNL     1       0.706  -9.746   9.092  0.00  0.00    +0.047 A 
ATOM     16  N   UNL     1       1.382  -9.773   7.893  0.00  0.00    -0.357 N 
ENDBRANCH   6   7
ENDBRANCH   4   6
ENDBRANCH   1   2
BRANCH   1  17
ATOM     17  C   UNL     1       2.189  -6.733   1.747  0.00  0.00    +0.058 C 
BRANCH  17  21
ATOM     18  C   UNL     1       1.043  -4.062  -0.027  0.00  0.00    +0.240 C 
ATOM     19  N   UNL     1       2.370  -4.106  -0.695  0.00  0.00    -0.223 NA
ATOM     20  N   UNL     1       2.976  -5.315  -0.110  0.00  0.00    -0.227 NA
ATOM     21  C   UNL     1       2.494  -5.305   1.290  0.00  0.00    +0.202 C 
ATOM     22  O   UNL     1       1.294  -4.513   1.316  0.00  0.00    -0.337 OA
ATOM     23  H   UNL     1       2.268  -4.201  -1.695  0.00  0.00    +0.144 HD
ATOM     24  H   UNL     1       3.983  -5.268  -0.146  0.00  0.00    +0.143 HD
BRANCH  18  29
ATOM     25  C   UNL     1      -0.018   1.503   0.010  0.00  0.00    +0.051 C 
ATOM     26  C   UNL     1       0.002  -0.004   0.002  0.00  0.00    -0.013 A 
ATOM     27  C   UNL     1      -1.039  -0.872   0.002  0.00  0.00    +0.011 A 
ATOM     28  C   UNL     1      -0.780  -2.230  -0.007  0.00  0.00    +0.015 A 
ATOM     29  C   UNL     1       0.507  -2.653  -0.016  0.00  0.00    +0.034 A 
ATOM     30  S   UNL     1       1.404  -1.109  -0.018  0.00  0.00    -0.094 S 
ENDBRANCH  18  29
ENDBRANCH  17  21
ENDBRANCH   1  17
TORSDOF 6
