REMARK  Name = ZINC67064173
REMARK  9 active torsions:
REMARK  status: ('A' for Active; 'I' for Inactive)
REMARK    1  A    between atoms: C_1  and  C_2
REMARK    2  A    between atoms: C_6  and  C_8
REMARK    3  A    between atoms: N_10  and  N_11
REMARK    4  A    between atoms: N_14  and  C_15
REMARK    5  A    between atoms: C_15  and  C_17
REMARK    6  A    between atoms: C_15  and  C_18
REMARK    7  A    between atoms: C_18  and  N_19
REMARK    8  A    between atoms: C_20  and  C_25
REMARK    9  A    between atoms: C_22  and  C_24
REMARK                            x       y       z     vdW  Elec       q    Type
REMARK                         _______ _______ _______ _____ _____    ______ ____
ROOT
ATOM      1  N   UNL     1       0.086  -4.905   3.652  0.00  0.00    -0.218 N 
ATOM      2  C   UNL     1       0.103  -6.252   3.639  0.00  0.00    +0.316 C 
ATOM      3  O   UNL     1       0.117  -6.870   4.686  0.00  0.00    -0.251 OA
ATOM      4  N   UNL     1       0.106  -6.915   2.466  0.00  0.00    -0.294 N 
ATOM      5  H   UNL     1       0.083  -4.428   4.496  0.00  0.00    +0.174 HD
ATOM      6  H   UNL     1       0.096  -6.423   1.630  0.00  0.00    +0.151 HD
ENDROOT
BRANCH   1   9
ATOM      7  C   UNL     1       0.053  -2.845   2.458  0.00  0.00    +0.260 C 
ATOM      8  O   UNL     1       0.050  -2.248   3.516  0.00  0.00    -0.269 OA
ATOM      9  N   UNL     1       0.070  -4.193   2.445  0.00  0.00    -0.229 N 
ATOM     10  H   UNL     1       0.073  -4.670   1.601  0.00  0.00    +0.173 HD
BRANCH   7  16
ATOM     11  C   UNL     1      -0.018   1.503   0.010  0.00  0.00    +0.044 C 
ATOM     12  C   UNL     1       0.002  -0.004   0.002  0.00  0.00    -0.050 A 
ATOM     13  C   UNL     1       0.006  -0.688  -1.201  0.00  0.00    +0.003 A 
ATOM     14  C   UNL     1       0.025  -2.071  -1.218  0.00  0.00    +0.001 A 
ATOM     15  C   UNL     1       0.040  -2.778  -0.033  0.00  0.00    +0.013 A 
ATOM     16  C   UNL     1       0.036  -2.095   1.184  0.00  0.00    +0.038 A 
ATOM     17  C   UNL     1       0.023  -0.699   1.194  0.00  0.00    +0.016 A 
ENDBRANCH   7  16
ENDBRANCH   1   9
BRANCH   4  18
ATOM     18  C   UNL     1       0.126  -8.380   2.452  0.00  0.00    +0.093 C 
ATOM     19  C   UNL     1       1.570  -8.872   2.566  0.00  0.00    +0.030 C 
BRANCH  18  20
ATOM     20  C   UNL     1      -0.483  -8.886   1.143  0.00  0.00    +0.165 C 
BRANCH  20  21
ATOM     21  N   UNL     1      -1.900  -8.517   1.089  0.00  0.00    -0.267 N 
ATOM     22  C   UNL     1      -2.931  -9.255   1.551  0.00  0.00    +0.036 A 
ATOM     23  C   UNL     1      -4.071  -8.565   1.312  0.00  0.00    +0.047 A 
ATOM     24  C   UNL     1      -3.725  -7.365   0.683  0.00  0.00    +0.060 A 
ATOM     25  N   UNL     1      -2.423  -7.332   0.554  0.00  0.00    -0.176 NA
ATOM     26  C   UNL     1      -4.684  -6.292   0.237  0.00  0.00    +0.067 C 
ATOM     27  C   UNL     1      -2.831 -10.604   2.213  0.00  0.00    +0.065 C 
ENDBRANCH  20  21
ENDBRANCH  18  20
ENDBRANCH   4  18
TORSDOF 5
