REMARK  Name = ZINC00413959
REMARK  8 active torsions:
REMARK  status: ('A' for Active; 'I' for Inactive)
REMARK    1  A    between atoms: C_1  and  C_2
REMARK    2  A    between atoms: C_4  and  C_25
REMARK    3  A    between atoms: C_5  and  N_9
REMARK    4  A    between atoms: C_6  and  C_8
REMARK    5  A    between atoms: C_10  and  C_12
REMARK    6  A    between atoms: C_12  and  N_13
REMARK    7  A    between atoms: C_15  and  C_18
REMARK    8  A    between atoms: C_21  and  N_24
REMARK                            x       y       z     vdW  Elec       q    Type
REMARK                         _______ _______ _______ _____ _____    ______ ____
ROOT
ATOM      1  C   UNL     1      -0.285   1.482   0.670  0.00  0.00    +0.264 C 
ENDROOT
BRANCH   1   2
ATOM      2  N   UNL     1       0.743   1.957   1.599  0.00  0.00    -0.154 N 
ATOM      3  N   UNL     1       0.558   2.217   2.847  0.00  0.00    -0.130 NA
ATOM      4  C   UNL     1       1.710   2.614   3.352  0.00  0.00    +0.205 A 
ATOM      5  N   UNL     1       2.597   2.591   2.347  0.00  0.00    -0.108 NA
ATOM      6  N   UNL     1       1.973   2.186   1.294  0.00  0.00    -0.045 NA
BRANCH   4   7
ATOM      7  C   UNL     1       1.971   3.015   4.757  0.00  0.00    +0.023 A 
ATOM      8  C   UNL     1       0.938   2.993   5.692  0.00  0.00    +0.013 A 
ATOM      9  C   UNL     1       1.184   3.361   6.998  0.00  0.00    +0.023 A 
ATOM     10  C   UNL     1       2.458   3.765   7.379  0.00  0.00    +0.025 A 
ATOM     11  C   UNL     1       3.489   3.792   6.446  0.00  0.00    +0.023 A 
ATOM     12  C   UNL     1       3.248   3.420   5.141  0.00  0.00    +0.013 A 
BRANCH  10  13
ATOM     13  N   UNL     1       2.704   4.143   8.700  0.00  0.00    -0.358 N 
ATOM     14  H   UNL     1       3.593   4.425   8.966  0.00  0.00    +0.142 HD
ATOM     15  H   UNL     1       1.985   4.124   9.351  0.00  0.00    +0.142 HD
ENDBRANCH  10  13
ENDBRANCH   4   7
ENDBRANCH   1   2
BRANCH   1  17
ATOM     16  N   UNL     1      -1.183  -0.687  -0.109  0.00  0.00    -0.283 N 
ATOM     17  C   UNL     1      -0.309  -0.025   0.674  0.00  0.00    +0.241 C 
ATOM     18  O   UNL     1       0.458  -0.641   1.383  0.00  0.00    -0.273 OA
ATOM     19  H   UNL     1      -1.831  -0.195  -0.636  0.00  0.00    +0.155 HD
BRANCH  16  24
ATOM     20  C   UNL     1      -1.065  -6.355  -0.327  0.00  0.00    +0.044 C 
ATOM     21  C   UNL     1      -1.096  -4.849  -0.269  0.00  0.00    -0.050 A 
ATOM     22  C   UNL     1      -2.284  -4.194  -0.002  0.00  0.00    +0.008 A 
ATOM     23  C   UNL     1      -2.316  -2.814   0.051  0.00  0.00    -0.029 A 
ATOM     24  C   UNL     1      -1.153  -2.085  -0.163  0.00  0.00    +0.039 A 
ATOM     25  C   UNL     1       0.037  -2.746  -0.436  0.00  0.00    -0.029 A 
ATOM     26  C   UNL     1       0.063  -4.127  -0.482  0.00  0.00    +0.008 A 
ATOM     27  C   UNL     1       1.299  -1.959  -0.676  0.00  0.00    +0.045 C 
ATOM     28  C   UNL     1      -3.611  -2.100   0.343  0.00  0.00    +0.045 C 
ENDBRANCH  16  24
ENDBRANCH   1  17
TORSDOF 5
