REMARK  Name = ZINC63491609
REMARK  4 active torsions:
REMARK  status: ('A' for Active; 'I' for Inactive)
REMARK    1  A    between atoms: C_1  and  C_2
REMARK    2  A    between atoms: C_8  and  S_10
REMARK    3  A    between atoms: S_10  and  C_11
REMARK    4  A    between atoms: C_11  and  C_12
REMARK                            x       y       z     vdW  Elec       q    Type
REMARK                         _______ _______ _______ _____ _____    ______ ____
ROOT
ATOM      1  C   UNL     1       5.376  -1.973  -0.035  0.00  0.00    +0.021 C 
ATOM      2  N   UNL     1       5.905  -2.526   1.107  0.00  0.00    -0.319 N 
ATOM      3  C   UNL     1       6.892  -3.603   0.947  0.00  0.00    +0.231 C 
ATOM      4  N   UNL     1       7.858  -3.146  -0.091  0.00  0.00    -0.242 N 
ATOM      5  C   UNL     1       9.197  -3.436   0.197  0.00  0.00    +0.026 C 
ATOM      6  C   UNL     1       9.545  -3.670   1.466  0.00  0.00    +0.006 C 
ATOM      7  S   UNL     1       8.009  -3.620   2.410  0.00  0.00    -0.086 S 
ATOM      8  C   UNL     1      10.916  -3.940   2.003  0.00  0.00    +0.044 C 
ATOM      9  C   UNL     1      11.836  -4.320   0.835  0.00  0.00    +0.006 C 
ATOM     10  C   UNL     1      11.634  -3.303  -0.293  0.00  0.00    +0.006 C 
ATOM     11  C   UNL     1      10.248  -3.483  -0.911  0.00  0.00    +0.052 C 
ATOM     12  C   UNL     1       7.429  -2.459  -1.182  0.00  0.00    +0.247 C 
ATOM     13  O   UNL     1       8.154  -2.301  -2.148  0.00  0.00    -0.270 OA
ATOM     14  C   UNL     1       6.111  -1.937  -1.166  0.00  0.00    +0.087 C 
ATOM     15  H   UNL     1       5.637  -2.216   1.986  0.00  0.00    +0.148 HD
ENDROOT
BRANCH   1  16
ATOM     16  C   UNL     1       3.977  -1.414  -0.025  0.00  0.00    +0.128 C 
BRANCH  16  17
ATOM     17  S   UNL     1       2.781  -2.777  -0.027  0.00  0.00    -0.082 S 
BRANCH  17  25
ATOM     18  C   UNL     1      -0.018   1.503   0.010  0.00  0.00    +0.066 C 
ATOM     19  C   UNL     1       0.002  -0.004   0.002  0.00  0.00    +0.046 A 
ATOM     20  C   UNL     1      -1.171  -0.701   0.004  0.00  0.00    +0.093 A 
ATOM     21  C   UNL     1      -1.128  -2.107  -0.004  0.00  0.00    +0.252 A 
ATOM     22  O   UNL     1      -2.158  -2.761  -0.004  0.00  0.00    -0.268 OA
ATOM     23  N   UNL     1       0.076  -2.718  -0.014  0.00  0.00    -0.302 N 
ATOM     24  H   UNL     1       0.130  -3.687  -0.020  0.00  0.00    +0.171 HD
ATOM     25  C   UNL     1       1.214  -1.970  -0.015  0.00  0.00    +0.170 A 
ATOM     26  N   UNL     1       1.164  -0.652  -0.013  0.00  0.00    -0.228 NA
ENDBRANCH  17  25
ENDBRANCH  16  17
ENDBRANCH   1  16
TORSDOF 3
