REMARK  Name = ZINC40553557
REMARK  8 active torsions:
REMARK  status: ('A' for Active; 'I' for Inactive)
REMARK    1  A    between atoms: C_1  and  C_2
REMARK    2  A    between atoms: C_3  and  C_10
REMARK    3  A    between atoms: C_4  and  C_7
REMARK    4  A    between atoms: C_7  and  C_8
REMARK    5  A    between atoms: C_7  and  C_9
REMARK    6  A    between atoms: N_12  and  C_13
REMARK    7  A    between atoms: C_13  and  C_15
REMARK    8  A    between atoms: C_13  and  C_16
REMARK                            x       y       z     vdW  Elec       q    Type
REMARK                         _______ _______ _______ _____ _____    ______ ____
ROOT
ATOM      1  C   UNL     1      -1.191   0.190  -4.624  0.00  0.00    +0.100 C 
ATOM      2  C   UNL     1      -1.053  -1.029  -5.539  0.00  0.00    +0.033 C 
ENDROOT
BRANCH   1   3
ATOM      3  C   UNL     1      -2.491   0.894  -4.919  0.00  0.00    -0.027 A 
ATOM      4  C   UNL     1      -3.673   0.412  -4.388  0.00  0.00    +0.007 A 
ATOM      5  C   UNL     1      -4.866   1.055  -4.656  0.00  0.00    +0.024 A 
ATOM      6  C   UNL     1      -4.876   2.188  -5.458  0.00  0.00    +0.037 A 
ATOM      7  C   UNL     1      -3.687   2.670  -5.989  0.00  0.00    -0.025 A 
ATOM      8  C   UNL     1      -2.497   2.026  -5.714  0.00  0.00    +0.011 A 
ATOM      9  C   UNL     1      -3.699   3.900  -6.859  0.00  0.00    +0.046 C 
ATOM     10  C   UNL     1      -4.992   3.937  -7.675  0.00  0.00    +0.101 C 
ATOM     11  C   UNL     1      -6.172   3.691  -6.774  0.00  0.00    +0.218 C 
ATOM     12  O   UNL     1      -7.220   4.263  -6.990  0.00  0.00    -0.275 OA
ATOM     13  N   UNL     1      -6.080   2.844  -5.733  0.00  0.00    -0.285 N 
ATOM     14  H   UNL     1      -6.853   2.687  -5.169  0.00  0.00    +0.155 HD
ENDBRANCH   1   3
BRANCH   1  17
ATOM     15  C   UNL     1      -0.005  -0.429  -2.588  0.00  0.00    +0.250 C 
ATOM     16  O   UNL     1       1.043  -0.234  -3.174  0.00  0.00    -0.270 OA
ATOM     17  N   UNL     1      -1.178  -0.245  -3.225  0.00  0.00    -0.305 N 
ATOM     18  H   UNL     1      -2.014  -0.401  -2.758  0.00  0.00    +0.150 HD
BRANCH  15  21
ATOM     19  C   UNL     1      -0.018   1.503   0.010  0.00  0.00    +0.070 C 
ATOM     20  C   UNL     1       0.002  -0.004   0.002  0.00  0.00    +0.093 A 
ATOM     21  C   UNL     1       0.009  -0.867  -1.180  0.00  0.00    +0.102 A 
ATOM     22  C   UNL     1       0.029  -2.155  -0.729  0.00  0.00    +0.152 A 
ATOM     23  O   UNL     1       0.035  -2.126   0.606  0.00  0.00    -0.358 OA
ATOM     24  N   UNL     1       0.023  -0.782   1.044  0.00  0.00    -0.083 NA
BRANCH  22  25
ATOM     25  C   UNL     1       0.042  -3.394  -1.587  0.00  0.00    +0.052 C 
ATOM     26  C   UNL     1       1.304  -4.206  -1.291  0.00  0.00    +0.015 C 
ATOM     27  C   UNL     1      -1.194  -4.242  -1.279  0.00  0.00    +0.015 C 
ENDBRANCH  22  25
ENDBRANCH  15  21
ENDBRANCH   1  17
TORSDOF 4
