REMARK  Name = ZINC13707951
REMARK  8 active torsions:
REMARK  status: ('A' for Active; 'I' for Inactive)
REMARK    1  A    between atoms: C_1  and  C_2
REMARK    2  A    between atoms: C_2  and  C_3
REMARK    3  A    between atoms: C_6  and  O_9
REMARK    4  A    between atoms: O_9  and  C_10
REMARK    5  A    between atoms: C_10  and  C_12
REMARK    6  A    between atoms: C_10  and  C_13
REMARK    7  A    between atoms: N_15  and  C_16
REMARK    8  A    between atoms: C_17  and  C_26
REMARK                            x       y       z     vdW  Elec       q    Type
REMARK                         _______ _______ _______ _____ _____    ______ ____
ROOT
ATOM      1  C   UNL     1      -2.450   4.088   6.740  0.00  0.00    +0.258 C 
ATOM      2  O   UNL     1      -3.056   3.171   7.252  0.00  0.00    -0.271 OA
ATOM      3  N   UNL     1      -1.890   5.040   7.511  0.00  0.00    -0.277 N 
ATOM      4  H   UNL     1      -1.470   5.812   7.101  0.00  0.00    +0.155 HD
ENDROOT
BRANCH   3   5
ATOM      5  C   UNL     1      -1.915   4.915   8.912  0.00  0.00    +0.121 A 
ATOM      6  C   UNL     1      -2.511   5.892   9.687  0.00  0.00    +0.068 A 
ATOM      7  N   UNL     1      -2.523   5.742  11.010  0.00  0.00    -0.226 NA
ATOM      8  C   UNL     1      -1.974   4.699  11.578  0.00  0.00    +0.180 A 
ATOM      9  N   UNL     1      -1.358   3.687  10.891  0.00  0.00    -0.260 N 
ATOM     10  C   UNL     1      -1.331   3.803   9.529  0.00  0.00    +0.280 A 
ATOM     11  O   UNL     1      -0.797   2.937   8.853  0.00  0.00    -0.265 OA
ATOM     12  C   UNL     1      -0.832   2.661  11.639  0.00  0.00    +0.104 A 
ATOM     13  C   UNL     1      -0.922   2.663  12.968  0.00  0.00    +0.067 A 
ATOM     14  S   UNL     1      -1.800   4.187  13.274  0.00  0.00    -0.058 S 
ATOM     15  C   UNL     1      -3.141   7.102   9.046  0.00  0.00    +0.068 C 
ENDBRANCH   3   5
BRANCH   1  16
ATOM     16  C   UNL     1      -2.323   4.163   5.240  0.00  0.00    +0.256 C 
ATOM     17  C   UNL     1      -2.955   5.463   4.739  0.00  0.00    +0.062 C 
BRANCH  16  18
ATOM     18  O   UNL     1      -2.995   3.049   4.649  0.00  0.00    -0.480 OA
BRANCH  18  22
ATOM     19  C   UNL     1      -1.495   1.639   1.074  0.00  0.00    -0.047 A 
ATOM     20  C   UNL     1      -2.545   0.982   1.689  0.00  0.00    +0.007 A 
ATOM     21  C   UNL     1      -3.045   1.449   2.889  0.00  0.00    +0.046 A 
ATOM     22  C   UNL     1      -2.501   2.584   3.471  0.00  0.00    +0.122 A 
ATOM     23  C   UNL     1      -1.451   3.245   2.849  0.00  0.00    +0.046 A 
ATOM     24  C   UNL     1      -0.951   2.771   1.652  0.00  0.00    +0.007 A 
BRANCH  19  26
ATOM     25  C   UNL     1       0.181   0.128   0.046  0.00  0.00    +0.009 C 
ATOM     26  C   UNL     1      -0.947   1.123  -0.232  0.00  0.00    +0.032 C 
ENDBRANCH  19  26
ENDBRANCH  18  22
ENDBRANCH  16  18
ENDBRANCH   1  16
TORSDOF 5
