REMARK  Name = ZINC02780609
REMARK  5 active torsions:
REMARK  status: ('A' for Active; 'I' for Inactive)
REMARK    1  A    between atoms: N_4  and  C_6
REMARK    2  A    between atoms: C_6  and  C_7
REMARK    3  A    between atoms: C_7  and  C_8
REMARK    4  A    between atoms: N_10  and  C_11
REMARK    5  A    between atoms: C_12  and  C_20
REMARK                            x       y       z     vdW  Elec       q    Type
REMARK                         _______ _______ _______ _____ _____    ______ ____
ROOT
ATOM      1  C   UNL     1      -6.836   1.495   2.175  0.00  0.00    +0.084 A 
ATOM      2  C   UNL     1      -7.847   1.801   3.075  0.00  0.00    +0.068 A 
ATOM      3  C   UNL     1      -9.151   1.202   2.849  0.00  0.00    -0.023 A 
ATOM      4  C   UNL     1      -9.232   0.389   1.772  0.00  0.00    -0.004 A 
ATOM      5  S   UNL     1      -7.612   0.419   1.060  0.00  0.00    -0.077 S 
ATOM      6  C   UNL     1     -10.436  -0.365   1.299  0.00  0.00    +0.043 C 
ATOM      7  C   UNL     1     -11.475  -0.378   2.430  0.00  0.00    +0.005 C 
ATOM      8  C   UNL     1     -11.625   1.044   2.978  0.00  0.00    +0.005 C 
ATOM      9  C   UNL     1     -10.361   1.444   3.742  0.00  0.00    +0.037 C 
ENDROOT
BRANCH   2  10
ATOM     10  C   UNL     1      -7.609   2.700   4.209  0.00  0.00    +0.244 C 
ATOM     11  O   UNL     1      -7.790   3.897   4.085  0.00  0.00    -0.270 OA
ATOM     12  N   UNL     1      -7.190   2.200   5.388  0.00  0.00    -0.325 N 
ATOM     13  H   UNL     1      -7.046   1.246   5.487  0.00  0.00    +0.145 HD
ATOM     14  H   UNL     1      -7.033   2.794   6.138  0.00  0.00    +0.145 HD
ENDBRANCH   2  10
BRANCH   1  17
ATOM     15  C   UNL     1      -4.673   1.523   1.210  0.00  0.00    +0.219 C 
ATOM     16  O   UNL     1      -5.059   0.764   0.347  0.00  0.00    -0.275 OA
ATOM     17  N   UNL     1      -5.522   1.937   2.172  0.00  0.00    -0.279 N 
ATOM     18  H   UNL     1      -5.213   2.545   2.863  0.00  0.00    +0.155 HD
BRANCH  15  19
ATOM     19  C   UNL     1      -3.245   2.004   1.208  0.00  0.00    +0.119 C 
BRANCH  19  20
ATOM     20  C   UNL     1      -2.502   1.390   0.019  0.00  0.00    +0.152 C 
BRANCH  20  24
ATOM     21  C   UNL     1       0.614   3.212   0.013  0.00  0.00    +0.149 A 
ATOM     22  C   UNL     1       1.070   1.889   0.002  0.00  0.00    +0.055 A 
ATOM     23  C   UNL     1      -0.013   1.076   0.008  0.00  0.00    +0.123 A 
ATOM     24  N   UNL     1      -1.114   1.857   0.017  0.00  0.00    -0.270 N 
ATOM     25  N   UNL     1      -0.694   3.194   0.026  0.00  0.00    -0.179 NA
ATOM     26 BR   UNL     1       2.878   1.335  -0.017  0.00  0.00    -0.047 Br
ENDBRANCH  20  24
ENDBRANCH  19  20
ENDBRANCH  15  19
ENDBRANCH   1  17
TORSDOF 5
