REMARK  Name = ZINC09641560
REMARK  9 active torsions:
REMARK  status: ('A' for Active; 'I' for Inactive)
REMARK    1  A    between atoms: C_1  and  C_2
REMARK    2  A    between atoms: C_7  and  C_8
REMARK    3  A    between atoms: C_17  and  S_19
REMARK    4  A    between atoms: S_19  and  C_20
REMARK    5  A    between atoms: C_20  and  C_21
REMARK    6  A    between atoms: N_23  and  C_24
REMARK    7  A    between atoms: C_24  and  C_25
REMARK    8  A    between atoms: C_24  and  C_26
REMARK    9  A    between atoms: C_24  and  C_27
REMARK                            x       y       z     vdW  Elec       q    Type
REMARK                         _______ _______ _______ _____ _____    ______ ____
ROOT
ATOM      1  C   UNL     1       0.242   0.025   2.482  0.00  0.00    +0.165 A 
ATOM      2  N   UNL     1       0.117   1.345   2.492  0.00  0.00    -0.208 NA
ATOM      3  C   UNL     1       0.217   2.019   3.642  0.00  0.00    +0.162 A 
ATOM      4  C   UNL     1       0.134   3.367   3.963  0.00  0.00    +0.119 A 
ATOM      5  C   UNL     1       0.319   3.489   5.341  0.00  0.00    +0.267 A 
ATOM      6  O   UNL     1       0.309   4.532   5.973  0.00  0.00    -0.266 OA
ATOM      7  N   UNL     1       0.510   2.258   5.856  0.00  0.00    -0.256 N 
ATOM      8  H   UNL     1       0.663   2.052   6.791  0.00  0.00    +0.191 HD
ATOM      9  N   UNL     1       0.450   1.328   4.814  0.00  0.00    -0.210 N 
ATOM     10  C   UNL     1       0.574  -0.031   4.769  0.00  0.00    +0.192 A 
ATOM     11  N   UNL     1       0.463  -0.657   3.608  0.00  0.00    -0.202 NA
ENDROOT
BRANCH   1  18
ATOM     12  C   UNL     1      -0.519   1.451   0.082  0.00  0.00    +0.044 C 
ATOM     13  C   UNL     1      -0.238  -0.029   0.036  0.00  0.00    -0.040 A 
ATOM     14  C   UNL     1      -0.337  -0.715  -1.157  0.00  0.00    +0.004 A 
ATOM     15  C   UNL     1      -0.080  -2.074  -1.200  0.00  0.00    +0.000 A 
ATOM     16  C   UNL     1       0.279  -2.753  -0.049  0.00  0.00    +0.001 A 
ATOM     17  C   UNL     1       0.381  -2.078   1.150  0.00  0.00    +0.012 A 
ATOM     18  C   UNL     1       0.128  -0.707   1.199  0.00  0.00    +0.022 A 
ENDBRANCH   1  18
BRANCH  10  19
ATOM     19  S   UNL     1       0.873  -0.944   6.246  0.00  0.00    -0.077 S 
BRANCH  19  20
ATOM     20  C   UNL     1       0.959  -2.667   5.687  0.00  0.00    +0.173 C 
BRANCH  20  21
ATOM     21  C   UNL     1       1.214  -3.567   6.869  0.00  0.00    +0.224 C 
ATOM     22  O   UNL     1       1.327  -3.092   7.979  0.00  0.00    -0.275 OA
ATOM     23  N   UNL     1       1.317  -4.899   6.692  0.00  0.00    -0.310 N 
ATOM     24  H   UNL     1       1.226  -5.279   5.804  0.00  0.00    +0.149 HD
BRANCH  23  25
ATOM     25  C   UNL     1       1.565  -5.774   7.840  0.00  0.00    +0.026 C 
ATOM     26  C   UNL     1       0.427  -5.622   8.852  0.00  0.00    +0.031 C 
ATOM     27  C   UNL     1       1.637  -7.228   7.369  0.00  0.00    +0.031 C 
ATOM     28  C   UNL     1       2.889  -5.385   8.500  0.00  0.00    +0.031 C 
ENDBRANCH  23  25
ENDBRANCH  20  21
ENDBRANCH  19  20
ENDBRANCH  10  19
TORSDOF 5
