REMARK  Name = ZINC09059348
REMARK  7 active torsions:
REMARK  status: ('A' for Active; 'I' for Inactive)
REMARK    1  A    between atoms: C_1  and  O_2
REMARK    2  A    between atoms: O_2  and  C_3
REMARK    3  A    between atoms: C_8  and  C_9
REMARK    4  A    between atoms: N_11  and  C_12
REMARK    5  A    between atoms: C_12  and  N_14
REMARK    6  A    between atoms: C_17  and  C_20
REMARK    7  A    between atoms: C_24  and  N_26
REMARK                            x       y       z     vdW  Elec       q    Type
REMARK                         _______ _______ _______ _____ _____    ______ ____
ROOT
ATOM      1  N   UNL     1       2.147   8.207   0.026  0.00  0.00    -0.169 NA
ATOM      2  C   UNL     1       1.069   7.331   0.032  0.00  0.00    +0.162 A 
ATOM      3  N   UNL     1       1.064   6.011   0.025  0.00  0.00    -0.335 N 
ATOM      4  C   UNL     1      -0.070   5.327   0.031  0.00  0.00    +0.055 A 
ATOM      5  C   UNL     1      -1.260   6.001   0.041  0.00  0.00    +0.074 A 
ATOM      6  S   UNL     1      -0.682   7.693   0.050  0.00  0.00    -0.060 S 
ATOM      7  H   UNL     1       2.015   5.458   0.013  0.00  0.00    +0.168 HD
ENDROOT
BRANCH   4   8
ATOM      8  C   UNL     1      -0.050   3.844   0.023  0.00  0.00    +0.001 A 
ATOM      9  C   UNL     1      -1.246   3.128   0.030  0.00  0.00    +0.010 A 
ATOM     10  C   UNL     1      -1.222   1.749   0.017  0.00  0.00    +0.003 A 
ATOM     11  C   UNL     1      -0.013   1.076   0.008  0.00  0.00    +0.033 A 
ATOM     12  C   UNL     1       1.177   1.781   0.000  0.00  0.00    +0.127 A 
ATOM     13  C   UNL     1       1.165   3.161   0.008  0.00  0.00    +0.042 A 
BRANCH  12  14
ATOM     14  N   UNL     1       2.467   1.054  -0.015  0.00  0.00    +0.056 N 
ATOM     15  O   UNL     1       2.479  -0.164  -0.022  0.00  0.00    -0.126 OA
ATOM     16  O   UNL     1       3.515   1.674  -0.022  0.00  0.00    -0.126 OA
ENDBRANCH  12  14
ENDBRANCH   4   8
BRANCH   1  17
ATOM     17  C   UNL     1       1.934   9.537   0.035  0.00  0.00    +0.163 C 
ATOM     18  S   UNL     1       0.335  10.149   0.054  0.00  0.00    -0.016 S 
BRANCH  17  21
ATOM     19  C   UNL     1       2.768  11.718   0.039  0.00  0.00    +0.253 C 
ATOM     20  O   UNL     1       1.633  12.152   0.052  0.00  0.00    -0.270 OA
ATOM     21  N   UNL     1       2.981  10.387   0.030  0.00  0.00    -0.262 N 
ATOM     22  H   UNL     1       4.008   9.994   0.018  0.00  0.00    +0.157 HD
BRANCH  19  28
ATOM     23  C   UNL     1       3.697  14.032   0.042  0.00  0.00    +0.132 A 
ATOM     24  C   UNL     1       4.781  14.897   0.037  0.00  0.00    +0.046 A 
ATOM     25  C   UNL     1       6.067  14.395   0.023  0.00  0.00    +0.004 A 
ATOM     26  C   UNL     1       6.285  13.026   0.014  0.00  0.00    +0.001 A 
ATOM     27  C   UNL     1       5.220  12.152   0.024  0.00  0.00    +0.017 A 
ATOM     28  C   UNL     1       3.913  12.647   0.033  0.00  0.00    +0.079 A 
BRANCH  23  30
ATOM     29  C   UNL     1       2.290  15.946   0.066  0.00  0.00    +0.277 C 
ATOM     30  O   UNL     1       2.433  14.524   0.057  0.00  0.00    -0.494 OA
ENDBRANCH  23  30
ENDBRANCH  19  28
ENDBRANCH  17  21
ENDBRANCH   1  17
TORSDOF 6
