REMARK  Name = ZINC12341997
REMARK  6 active torsions:
REMARK  status: ('A' for Active; 'I' for Inactive)
REMARK    1  A    between atoms: C_1  and  C_2
REMARK    2  A    between atoms: C_6  and  N_8
REMARK    3  A    between atoms: C_9  and  C_11
REMARK    4  A    between atoms: C_18  and  C_21
REMARK    5  A    between atoms: C_19  and  N_20
REMARK    6  A    between atoms: C_21  and  C_23
REMARK                            x       y       z     vdW  Elec       q    Type
REMARK                         _______ _______ _______ _____ _____    ______ ____
ROOT
ATOM      1  C   UNL     1       2.718   1.419  -0.059  0.00  0.00    +0.083 A 
ATOM      2  C   UNL     1       1.371   1.833  -0.176  0.00  0.00    +0.061 A 
ATOM      3  C   UNL     1       0.185   1.107  -0.344  0.00  0.00    +0.027 A 
ATOM      4  C   UNL     1      -1.003   1.775  -0.434  0.00  0.00    +0.003 A 
ATOM      5  C   UNL     1      -1.014   3.172  -0.344  0.00  0.00    +0.018 A 
ATOM      6  C   UNL     1       0.144   3.853  -0.182  0.00  0.00    +0.092 A 
ATOM      7  N   UNL     1       1.334   3.195  -0.098  0.00  0.00    -0.311 N 
ATOM      8  C   UNL     1       2.627   3.669   0.067  0.00  0.00    +0.116 A 
ATOM      9  C   UNL     1       3.497   2.584   0.093  0.00  0.00    +0.067 A 
ENDROOT
BRANCH   1  11
ATOM     10  N   UNL     1       3.316  -0.661   1.054  0.00  0.00    -0.281 N 
ATOM     11  C   UNL     1       3.210   0.043  -0.090  0.00  0.00    +0.252 C 
ATOM     12  O   UNL     1       3.525  -0.468  -1.150  0.00  0.00    -0.270 OA
ATOM     13  H   UNL     1       3.136  -0.233   1.905  0.00  0.00    +0.155 HD
BRANCH  10  19
ATOM     14  C   UNL     1       5.616  -4.483   3.120  0.00  0.00    +0.044 C 
ATOM     15  C   UNL     1       4.798  -3.889   2.002  0.00  0.00    -0.049 A 
ATOM     16  C   UNL     1       4.409  -4.679   0.935  0.00  0.00    +0.003 A 
ATOM     17  C   UNL     1       3.659  -4.138  -0.092  0.00  0.00    +0.002 A 
ATOM     18  C   UNL     1       3.295  -2.806  -0.056  0.00  0.00    +0.023 A 
ATOM     19  C   UNL     1       3.683  -2.010   1.014  0.00  0.00    +0.034 A 
ATOM     20  C   UNL     1       4.441  -2.556   2.042  0.00  0.00    +0.026 A 
ENDBRANCH  10  19
ENDBRANCH   1  11
BRANCH   9  21
ATOM     21  N   UNL     1       4.875   2.639   0.241  0.00  0.00    -0.356 N 
ATOM     22  H   UNL     1       5.386   1.819   0.325  0.00  0.00    +0.142 HD
ATOM     23  H   UNL     1       5.327   3.497   0.260  0.00  0.00    +0.142 HD
ENDBRANCH   9  21
BRANCH   8  24
ATOM     24  C   UNL     1       2.998   5.027   0.188  0.00  0.00    +0.218 C 
ATOM     25  O   UNL     1       3.106   5.534   1.292  0.00  0.00    -0.284 OA
BRANCH  24  26
ATOM     26  C   UNL     1       3.255   5.828  -1.017  0.00  0.00    +0.061 A 
ATOM     27  C   UNL     1       3.717   7.130  -1.117  0.00  0.00    +0.019 A 
ATOM     28  C   UNL     1       3.874   7.643  -2.382  0.00  0.00    +0.008 A 
ATOM     29  C   UNL     1       3.563   6.869  -3.454  0.00  0.00    +0.046 A 
ATOM     30  S   UNL     1       3.044   5.381  -2.731  0.00  0.00    -0.093 S 
ENDBRANCH  24  26
ENDBRANCH   8  24
TORSDOF 5
