REMARK  Name = ZINC13639867
REMARK  5 active torsions:
REMARK  status: ('A' for Active; 'I' for Inactive)
REMARK    1  A    between atoms: C_3  and  C_9
REMARK    2  A    between atoms: C_4  and  O_8
REMARK    3  A    between atoms: C_6  and  O_7
REMARK    4  A    between atoms: C_20  and  S_25
REMARK    5  A    between atoms: S_25  and  N_28
REMARK                            x       y       z     vdW  Elec       q    Type
REMARK                         _______ _______ _______ _____ _____    ______ ____
ROOT
ATOM      1  C   UNL     1       1.225  -2.187  -0.035  0.00  0.00    +0.108 C 
ATOM      2  C   UNL     1       1.227  -2.686  -1.483  0.00  0.00    +0.029 C 
ATOM      3  C   UNL     1      -0.202  -2.466  -2.054  0.00  0.00    +0.033 C 
ATOM      4  C   UNL     1      -0.969  -3.674  -1.552  0.00  0.00    -0.030 C 
ATOM      5  C   UNL     1      -0.146  -4.649  -1.254  0.00  0.00    -0.023 C 
ATOM      6  C   UNL     1       1.281  -4.226  -1.509  0.00  0.00    +0.049 C 
ATOM      7  C   UNL     1       2.210  -4.797  -0.486  0.00  0.00    -0.018 A 
ATOM      8  C   UNL     1       2.541  -6.143  -0.564  0.00  0.00    +0.034 A 
ATOM      9  C   UNL     1       3.397  -6.710   0.358  0.00  0.00    +0.106 A 
ATOM     10  C   UNL     1       3.937  -5.941   1.372  0.00  0.00    +0.030 A 
ATOM     11  C   UNL     1       3.616  -4.602   1.461  0.00  0.00    +0.025 A 
ATOM     12  C   UNL     1       2.753  -4.031   0.534  0.00  0.00    +0.031 A 
ATOM     13  N   UNL     1       2.435  -2.672   0.638  0.00  0.00    -0.336 N 
ATOM     14  H   UNL     1       3.000  -2.067   1.143  0.00  0.00    +0.147 HD
ENDROOT
BRANCH   1  17
ATOM     15  C   UNL     1       0.039   1.376   0.350  0.00  0.00    +0.046 A 
ATOM     16  C   UNL     1       0.057  -0.006   0.336  0.00  0.00    +0.012 A 
ATOM     17  C   UNL     1       1.209  -0.680  -0.020  0.00  0.00    +0.015 A 
ATOM     18  C   UNL     1       2.352   0.029  -0.364  0.00  0.00    +0.125 A 
ATOM     19  C   UNL     1       2.336   1.415  -0.350  0.00  0.00    +0.091 A 
ATOM     20  C   UNL     1       1.179   2.089   0.007  0.00  0.00    +0.120 A 
BRANCH  20  21
ATOM     21  O   UNL     1       1.160   3.448   0.022  0.00  0.00    -0.507 OA
ATOM     22  H   UNL     1       0.897   3.847  -0.819  0.00  0.00    +0.292 HD
ENDBRANCH  20  21
BRANCH  18  23
ATOM     23  O   UNL     1       3.485  -0.635  -0.714  0.00  0.00    -0.506 OA
ATOM     24  H   UNL     1       4.108  -0.761   0.015  0.00  0.00    +0.292 HD
ENDBRANCH  18  23
ENDBRANCH   1  17
BRANCH   9  25
ATOM     25  S   UNL     1       3.802  -8.421   0.242  0.00  0.00    +0.061 S 
ATOM     26  O   UNL     1       4.193  -8.835   1.544  0.00  0.00    -0.153 OA
ATOM     27  O   UNL     1       2.740  -9.043  -0.468  0.00  0.00    -0.153 OA
BRANCH  25  28
ATOM     28  N   UNL     1       5.147  -8.541  -0.717  0.00  0.00    -0.177 NA
ATOM     29  C   UNL     1       5.146  -8.710  -2.177  0.00  0.00    +0.109 C 
ATOM     30  C   UNL     1       6.619  -8.798  -2.629  0.00  0.00    +0.018 C 
ATOM     31  C   UNL     1       7.351  -9.250  -1.337  0.00  0.00    +0.018 C 
ATOM     32  C   UNL     1       6.544  -8.504  -0.246  0.00  0.00    +0.109 C 
ENDBRANCH  25  28
ENDBRANCH   9  25
TORSDOF 5
