REMARK  Name = ZINC36093581
REMARK  10 active torsions:
REMARK  status: ('A' for Active; 'I' for Inactive)
REMARK    1  A    between atoms: C_1  and  C_2
REMARK    2  A    between atoms: C_2  and  C_3
REMARK    3  A    between atoms: C_3  and  N_4
REMARK    4  A    between atoms: N_4  and  C_5
REMARK    5  A    between atoms: N_4  and  C_8
REMARK    6  A    between atoms: C_5  and  C_6
REMARK    7  A    between atoms: C_6  and  C_7
REMARK    8  A    between atoms: C_11  and  C_14
REMARK    9  A    between atoms: N_23  and  C_26
REMARK   10  A    between atoms: C_27  and  O_29
REMARK                            x       y       z     vdW  Elec       q    Type
REMARK                         _______ _______ _______ _____ _____    ______ ____
ROOT
ATOM      1  C   UNL     1      -3.429  -4.882   3.713  0.00  0.00    +0.224 C 
ATOM      2  N   UNL     1      -2.900  -6.171   4.195  0.00  0.00    -0.313 N 
ATOM      3  C   UNL     1      -2.273  -6.153   5.420  0.00  0.00    +0.080 A 
ATOM      4  C   UNL     1      -2.559  -5.179   6.385  0.00  0.00    +0.067 A 
ATOM      5  C   UNL     1      -1.809  -5.283   7.620  0.00  0.00    -0.027 A 
ATOM      6  C   UNL     1      -0.938  -6.320   7.667  0.00  0.00    -0.021 A 
ATOM      7  S   UNL     1      -1.120  -7.130   6.104  0.00  0.00    -0.080 S 
ATOM      8  C   UNL     1      -0.036  -6.666   8.808  0.00  0.00    -0.036 C 
ATOM      9  N   UNL     1       0.037  -5.502   9.711  0.00  0.00    +0.381 N 
ATOM     10  C   UNL     1      -1.320  -5.039  10.029  0.00  0.00    -0.074 C 
ATOM     11  C   UNL     1      -1.940  -4.345   8.812  0.00  0.00    +0.018 C 
ATOM     12  C   UNL     1       0.726  -5.887  10.950  0.00  0.00    -0.096 C 
ATOM     13  C   UNL     1      -3.589  -4.163   6.047  0.00  0.00    +0.220 C 
ATOM     14  N   UNL     1      -3.978  -4.087   4.804  0.00  0.00    -0.223 NA
ATOM     15  H   UNL     1      -2.990  -6.987   3.678  0.00  0.00    +0.149 HD
ATOM     16  H   UNL     1       0.549  -4.758   9.260  0.00  0.00    -0.082 HD
ENDROOT
BRANCH   1  20
ATOM     17  C   UNL     1      -0.270  -2.692   1.844  0.00  0.00    +0.030 A 
ATOM     18  C   UNL     1      -1.319  -2.016   2.455  0.00  0.00    +0.023 A 
ATOM     19  C   UNL     1      -2.338  -2.727   3.058  0.00  0.00    +0.009 A 
ATOM     20  C   UNL     1      -2.315  -4.110   3.054  0.00  0.00    -0.005 A 
ATOM     21  C   UNL     1      -1.272  -4.785   2.447  0.00  0.00    +0.009 A 
ATOM     22  C   UNL     1      -0.253  -4.080   1.838  0.00  0.00    +0.023 A 
BRANCH  17  23
ATOM     23  N   UNL     1       0.762  -1.976   1.234  0.00  0.00    -0.330 N 
BRANCH  23  24
ATOM     24  C   UNL     1       0.742  -0.511   1.242  0.00  0.00    +0.105 C 
BRANCH  24  26
ATOM     25  C   UNL     1      -0.019   1.526   0.010  0.00  0.00    +0.005 C 
ATOM     26  C   UNL     1       0.002  -0.004   0.002  0.00  0.00    +0.015 C 
ENDBRANCH  24  26
ENDBRANCH  23  24
BRANCH  23  27
ATOM     27  C   UNL     1       1.864  -2.690   0.585  0.00  0.00    +0.105 C 
BRANCH  27  28
ATOM     28  C   UNL     1       2.981  -2.935   1.601  0.00  0.00    +0.015 C 
ATOM     29  C   UNL     1       4.133  -3.681   0.924  0.00  0.00    +0.005 C 
ENDBRANCH  27  28
ENDBRANCH  23  27
ENDBRANCH  17  23
ENDBRANCH   1  20
BRANCH  13  30
ATOM     30  O   UNL     1      -4.106  -3.347   6.994  0.00  0.00    -0.492 OA
ATOM     31  H   UNL     1      -4.768  -2.726   6.660  0.00  0.00    +0.294 HD
ENDBRANCH  13  30
TORSDOF 7
