REMARK  Name = ZINC10039957
REMARK  12 active torsions:
REMARK  status: ('A' for Active; 'I' for Inactive)
REMARK    1  A    between atoms: C_1  and  C_2
REMARK    2  A    between atoms: C_5  and  C_8
REMARK    3  A    between atoms: N_10  and  C_11
REMARK    4  A    between atoms: C_11  and  C_13
REMARK    5  A    between atoms: C_11  and  C_16
REMARK    6  A    between atoms: C_13  and  C_14
REMARK    7  A    between atoms: C_13  and  C_15
REMARK    8  A    between atoms: N_18  and  N_19
REMARK    9  A    between atoms: C_20  and  C_21
REMARK   10  A    between atoms: C_23  and  O_29
REMARK   11  A    between atoms: C_24  and  O_28
REMARK   12  A    between atoms: O_29  and  C_30
REMARK                            x       y       z     vdW  Elec       q    Type
REMARK                         _______ _______ _______ _____ _____    ______ ____
ROOT
ATOM      1  C   UNL     1      -0.510   3.572   1.469  0.00  0.00    +0.253 C 
ATOM      2  O   UNL     1      -1.544   4.111   1.803  0.00  0.00    -0.272 OA
ATOM      3  N   UNL     1       0.527   4.314   1.033  0.00  0.00    -0.205 N 
ATOM      4  H   UNL     1       1.377   3.891   0.834  0.00  0.00    +0.177 HD
ENDROOT
BRANCH   3   5
ATOM      5  N   UNL     1       0.378   5.697   0.867  0.00  0.00    -0.188 NA
ATOM      6  C   UNL     1       1.376   6.412   0.447  0.00  0.00    +0.138 C 
BRANCH   6   7
ATOM      7  C   UNL     1       1.219   7.867   0.273  0.00  0.00    -0.001 A 
ATOM      8  C   UNL     1       2.295   8.640  -0.174  0.00  0.00    +0.059 A 
ATOM      9  C   UNL     1       2.140  10.003  -0.342  0.00  0.00    +0.163 A 
ATOM     10  C   UNL     1       0.917  10.606  -0.054  0.00  0.00    +0.172 A 
ATOM     11  C   UNL     1      -0.149   9.841   0.395  0.00  0.00    +0.059 A 
ATOM     12  C   UNL     1      -0.004   8.479   0.559  0.00  0.00    +0.027 A 
ATOM     13  I   UNL     1      -1.984  10.756   0.825  0.00  0.00    -0.040 I 
BRANCH  10  14
ATOM     14  O   UNL     1       0.769  11.948  -0.214  0.00  0.00    -0.503 OA
ATOM     15  H   UNL     1       0.986  12.465   0.574  0.00  0.00    +0.292 HD
ENDBRANCH  10  14
BRANCH   9  16
ATOM     16  O   UNL     1       3.183  10.756  -0.782  0.00  0.00    -0.491 OA
ATOM     17  C   UNL     1       4.407  10.072  -1.058  0.00  0.00    +0.277 C 
ENDBRANCH   9  16
ENDBRANCH   6   7
ENDBRANCH   3   5
BRANCH   1  18
ATOM     18  C   UNL     1      -0.385   2.072   1.542  0.00  0.00    +0.163 C 
BRANCH  18  21
ATOM     19  C   UNL     1      -1.238   0.355   3.046  0.00  0.00    +0.245 C 
ATOM     20  O   UNL     1      -0.209  -0.267   2.873  0.00  0.00    -0.270 OA
ATOM     21  N   UNL     1      -1.424   1.537   2.426  0.00  0.00    -0.300 N 
ATOM     22  H   UNL     1      -2.245   2.034   2.564  0.00  0.00    +0.150 HD
BRANCH  19  27
ATOM     23  C   UNL     1      -5.319  -1.743   6.519  0.00  0.00    +0.044 C 
ATOM     24  C   UNL     1      -4.251  -1.193   5.610  0.00  0.00    -0.050 A 
ATOM     25  C   UNL     1      -3.080  -1.905   5.413  0.00  0.00    +0.004 A 
ATOM     26  C   UNL     1      -2.098  -1.408   4.582  0.00  0.00    +0.013 A 
ATOM     27  C   UNL     1      -2.287  -0.184   3.938  0.00  0.00    +0.037 A 
ATOM     28  C   UNL     1      -3.468   0.531   4.144  0.00  0.00    +0.013 A 
ATOM     29  C   UNL     1      -4.444   0.020   4.974  0.00  0.00    +0.004 A 
ENDBRANCH  19  27
ENDBRANCH  18  21
BRANCH  18  30
ATOM     30  C   UNL     1      -0.550   1.477   0.142  0.00  0.00    +0.012 C 
ATOM     31  C   UNL     1      -1.964   1.762  -0.369  0.00  0.00    +0.009 C 
ATOM     32  C   UNL     1      -0.324  -0.035   0.200  0.00  0.00    +0.009 C 
ENDBRANCH  18  30
ENDBRANCH   1  18
TORSDOF 8
