REMARK  Name = ZINC36027239
REMARK  8 active torsions:
REMARK  status: ('A' for Active; 'I' for Inactive)
REMARK    1  A    between atoms: C_1  and  C_2
REMARK    2  A    between atoms: N_6  and  C_25
REMARK    3  A    between atoms: N_11  and  S_14
REMARK    4  A    between atoms: S_14  and  C_17
REMARK    5  A    between atoms: C_25  and  C_27
REMARK    6  A    between atoms: C_25  and  C_28
REMARK    7  A    between atoms: C_28  and  C_29
REMARK    8  A    between atoms: C_29  and  C_30
REMARK                            x       y       z     vdW  Elec       q    Type
REMARK                         _______ _______ _______ _____ _____    ______ ____
ROOT
ATOM      1  C   UNL     1      -0.944   0.740   0.245  0.00  0.00    -0.004 C 
ATOM      2  C   UNL     1      -0.555  -0.736   0.362  0.00  0.00    +0.016 C 
ATOM      3  C   UNL     1       0.041  -1.228  -0.939  0.00  0.00    +0.200 C 
ATOM      4  O   UNL     1      -0.396  -1.003  -2.048  0.00  0.00    -0.277 OA
ATOM      5  N   UNL     1       1.139  -1.959  -0.657  0.00  0.00    -0.311 N 
ATOM      6  C   UNL     1       1.337  -2.005   0.794  0.00  0.00    +0.006 C 
ATOM      7  N   UNL     1       0.524  -0.907   1.364  0.00  0.00    +0.401 N 
ATOM      8  C   UNL     1       2.810  -1.788   1.135  0.00  0.00    +0.023 C 
ATOM      9  C   UNL     1       3.647  -2.910   0.510  0.00  0.00    +0.109 C 
ATOM     10  N   UNL     1       3.102  -4.203   0.944  0.00  0.00    -0.177 NA
ATOM     11  C   UNL     1       1.674  -4.478   0.727  0.00  0.00    +0.109 C 
ATOM     12  C   UNL     1       0.855  -3.343   1.351  0.00  0.00    +0.023 C 
ATOM     13  H   UNL     1       1.072  -0.064   1.446  0.00  0.00    -0.082 HD
ATOM     14  H   UNL     1       0.141  -1.173   2.259  0.00  0.00    -0.082 HD
ENDROOT
BRANCH  10  15
ATOM     15  S   UNL     1       4.078  -5.331   1.662  0.00  0.00    +0.062 S 
ATOM     16  O   UNL     1       3.559  -6.605   1.303  0.00  0.00    -0.153 OA
ATOM     17  O   UNL     1       5.417  -4.947   1.381  0.00  0.00    -0.153 OA
BRANCH  15  18
ATOM     18  C   UNL     1       3.863  -5.173   3.404  0.00  0.00    +0.125 A 
ATOM     19  C   UNL     1       3.253  -6.186   4.120  0.00  0.00    +0.030 A 
ATOM     20  C   UNL     1       3.084  -6.062   5.487  0.00  0.00    +0.003 A 
ATOM     21  C   UNL     1       3.524  -4.925   6.138  0.00  0.00    +0.021 A 
ATOM     22  C   UNL     1       4.134  -3.910   5.423  0.00  0.00    +0.061 A 
ATOM     23  C   UNL     1       4.309  -4.037   4.055  0.00  0.00    +0.086 A 
ATOM     24 CL   UNL     1       5.081  -2.768   3.157  0.00  0.00    -0.080 Cl
ATOM     25 CL   UNL     1       4.687  -2.482   6.240  0.00  0.00    -0.082 Cl
ENDBRANCH  15  18
ENDBRANCH  10  15
BRANCH   5  26
ATOM     26  C   UNL     1       2.002  -2.606  -1.649  0.00  0.00    +0.072 C 
ATOM     27  C   UNL     1       1.137  -3.336  -2.678  0.00  0.00    +0.028 C 
BRANCH  26  28
ATOM     28  C   UNL     1       2.851  -1.547  -2.355  0.00  0.00    +0.027 C 
BRANCH  28  29
ATOM     29  C   UNL     1       3.805  -0.903  -1.347  0.00  0.00    +0.037 C 
BRANCH  29  30
ATOM     30  C   UNL     1       4.641   0.140  -2.043  0.00  0.00    -0.047 A 
ATOM     31  C   UNL     1       5.848  -0.212  -2.618  0.00  0.00    +0.003 A 
ATOM     32  C   UNL     1       6.615   0.745  -3.256  0.00  0.00    +0.000 A 
ATOM     33  C   UNL     1       6.175   2.054  -3.319  0.00  0.00    +0.000 A 
ATOM     34  C   UNL     1       4.968   2.406  -2.744  0.00  0.00    +0.000 A 
ATOM     35  C   UNL     1       4.199   1.448  -2.110  0.00  0.00    +0.003 A 
ENDBRANCH  29  30
ENDBRANCH  28  29
ENDBRANCH  26  28
ENDBRANCH   5  26
TORSDOF 6
