REMARK  Name = ZINC63637464
REMARK  7 active torsions:
REMARK  status: ('A' for Active; 'I' for Inactive)
REMARK    1  A    between atoms: C_1  and  C_2
REMARK    2  A    between atoms: C_4  and  C_12
REMARK    3  A    between atoms: C_12  and  C_13
REMARK    4  A    between atoms: C_13  and  N_14
REMARK    5  A    between atoms: C_21  and  C_27
REMARK    6  A    between atoms: C_24  and  C_25
REMARK    7  A    between atoms: C_24  and  C_26
REMARK                            x       y       z     vdW  Elec       q    Type
REMARK                         _______ _______ _______ _____ _____    ______ ____
ROOT
ATOM      1  C   UNL     1       1.364  -0.963  -3.578  0.00  0.00    +0.121 C 
ENDROOT
BRANCH   1   2
ATOM      2  N   UNL     1       0.998  -0.729  -4.977  0.00  0.00    -0.241 N 
ATOM      3  C   UNL     1       0.171  -1.597  -5.587  0.00  0.00    +0.225 C 
ATOM      4  O   UNL     1      -0.296  -2.531  -4.971  0.00  0.00    -0.275 OA
ATOM      5  C   UNL     1      -0.175  -1.400  -7.052  0.00  0.00    +0.082 C 
ATOM      6  C   UNL     1      -1.180  -0.224  -7.123  0.00  0.00    +0.014 C 
ATOM      7  C   UNL     1      -0.330   1.060  -7.131  0.00  0.00    +0.017 C 
ATOM      8  C   UNL     1       1.145   0.596  -7.065  0.00  0.00    +0.051 C 
ATOM      9  C   UNL     1       1.497   0.350  -5.608  0.00  0.00    +0.228 C 
ATOM     10  O   UNL     1       2.200   1.136  -5.010  0.00  0.00    -0.275 OA
ATOM     11  C   UNL     1       1.109  -0.837  -7.722  0.00  0.00    -0.010 C 
ATOM     12  C   UNL     1       0.944  -0.742  -9.240  0.00  0.00    +0.012 C 
ATOM     13  C   UNL     1       2.337  -1.672  -7.354  0.00  0.00    +0.012 C 
ATOM     14  C   UNL     1       2.112   1.565  -7.749  0.00  0.00    +0.021 C 
ENDBRANCH   1   2
BRANCH   1  15
ATOM     15  C   UNL     1       0.353  -0.268  -2.664  0.00  0.00    +0.053 C 
BRANCH  15  18
ATOM     16  C   UNL     1      -0.019   1.526   0.010  0.00  0.00    +0.035 C 
ATOM     17  C   UNL     1       0.002  -0.004   0.002  0.00  0.00    +0.103 C 
ATOM     18  C   UNL     1       0.729  -0.509  -1.224  0.00  0.00    -0.037 C 
ATOM     19  C   UNL     1       1.785  -1.220  -0.768  0.00  0.00    -0.001 A 
ATOM     20  C   UNL     1       2.858  -1.954  -1.449  0.00  0.00    +0.010 A 
ATOM     21  C   UNL     1       3.797  -2.583  -0.705  0.00  0.00    +0.001 A 
ATOM     22  C   UNL     1       3.770  -2.551   0.696  0.00  0.00    +0.002 A 
ATOM     23  C   UNL     1       2.817  -1.897   1.393  0.00  0.00    +0.026 A 
ATOM     24  C   UNL     1       1.780  -1.201   0.712  0.00  0.00    +0.043 A 
ATOM     25  N   UNL     1       0.758  -0.506   1.155  0.00  0.00    -0.378 N 
ATOM     26  H   UNL     1       0.540  -0.349   2.087  0.00  0.00    +0.160 HD
ENDBRANCH  15  18
ENDBRANCH   1  15
TORSDOF 3
