REMARK  Name = ZINC39729277
REMARK  7 active torsions:
REMARK  status: ('A' for Active; 'I' for Inactive)
REMARK    1  A    between atoms: C_1  and  C_2
REMARK    2  A    between atoms: C_5  and  C_8
REMARK    3  A    between atoms: C_8  and  N_9
REMARK    4  A    between atoms: C_13  and  C_14
REMARK    5  A    between atoms: C_15  and  N_26
REMARK    6  A    between atoms: C_18  and  C_25
REMARK    7  A    between atoms: C_31  and  C_33
REMARK                            x       y       z     vdW  Elec       q    Type
REMARK                         _______ _______ _______ _____ _____    ______ ____
ROOT
ATOM      1  C   UNL     1       3.607  -5.778  -3.614  0.00  0.00    +0.081 A 
ATOM      2  C   UNL     1       4.481  -5.892  -4.721  0.00  0.00    +0.136 A 
ATOM      3  N   UNL     1       4.056  -5.545  -5.927  0.00  0.00    -0.213 NA
ATOM      4  C   UNL     1       2.820  -5.088  -6.128  0.00  0.00    +0.145 A 
ATOM      5  C   UNL     1       2.424  -4.734  -7.431  0.00  0.00    -0.007 A 
ATOM      6  C   UNL     1       1.162  -4.266  -7.647  0.00  0.00    +0.008 A 
ATOM      7  C   UNL     1       0.276  -4.143  -6.568  0.00  0.00    +0.019 A 
ATOM      8  C   UNL     1       0.673  -4.487  -5.322  0.00  0.00    +0.096 A 
ATOM      9  N   UNL     1       1.933  -4.957  -5.096  0.00  0.00    -0.267 N 
ATOM     10  C   UNL     1       2.296  -5.297  -3.840  0.00  0.00    +0.267 A 
ATOM     11  O   UNL     1       1.508  -5.187  -2.916  0.00  0.00    -0.267 OA
ATOM     12  C   UNL     1       3.389  -4.872  -8.580  0.00  0.00    +0.047 C 
ENDROOT
BRANCH   1  17
ATOM     13  N   UNL     1       4.194  -3.052  -0.351  0.00  0.00    -0.251 N 
ATOM     14  C   UNL     1       4.010  -3.773  -1.443  0.00  0.00    +0.259 C 
ATOM     15  O   UNL     1       3.716  -3.245  -2.501  0.00  0.00    -0.269 OA
ATOM     16  C   UNL     1       4.165  -5.186  -1.348  0.00  0.00    +0.077 C 
ATOM     17  C   UNL     1       4.032  -6.141  -2.315  0.00  0.00    +0.037 C 
ATOM     18  S   UNL     1       4.581  -5.368   0.381  0.00  0.00    -0.061 S 
ATOM     19  C   UNL     1       4.525  -3.637   0.821  0.00  0.00    +0.121 C 
ATOM     20  S   UNL     1       4.815  -2.906   2.342  0.00  0.00    -0.027 S 
BRANCH  13  21
ATOM     21  C   UNL     1       4.042  -1.596  -0.414  0.00  0.00    +0.150 C 
BRANCH  21  26
ATOM     22  C   UNL     1       9.122   0.818  -1.738  0.00  0.00    +0.044 C 
ATOM     23  C   UNL     1       7.798   0.189  -1.393  0.00  0.00    -0.050 A 
ATOM     24  C   UNL     1       6.924  -0.179  -2.399  0.00  0.00    +0.003 A 
ATOM     25  C   UNL     1       5.708  -0.756  -2.082  0.00  0.00    +0.005 A 
ATOM     26  C   UNL     1       5.367  -0.967  -0.759  0.00  0.00    -0.030 A 
ATOM     27  C   UNL     1       6.241  -0.600   0.247  0.00  0.00    +0.005 A 
ATOM     28  C   UNL     1       7.458  -0.027  -0.070  0.00  0.00    +0.003 A 
ENDBRANCH  21  26
ENDBRANCH  13  21
ENDBRANCH   1  17
BRANCH   2  29
ATOM     29  N   UNL     1       5.765  -6.360  -4.546  0.00  0.00    -0.312 N 
ATOM     30  C   UNL     1       6.040  -7.803  -4.533  0.00  0.00    +0.107 C 
ATOM     31  C   UNL     1       7.133  -8.107  -5.562  0.00  0.00    +0.019 C 
ATOM     32  C   UNL     1       8.355  -7.231  -5.274  0.00  0.00    +0.003 C 
ATOM     33  C   UNL     1       7.969  -5.756  -5.400  0.00  0.00    +0.022 C 
ATOM     34  C   UNL     1       6.886  -5.426  -4.376  0.00  0.00    +0.072 C 
ATOM     35  C   UNL     1       6.397  -3.993  -4.593  0.00  0.00    +0.028 C 
ENDBRANCH   2  29
TORSDOF 4
