REMARK  Name = ZINC40282909
REMARK  6 active torsions:
REMARK  status: ('A' for Active; 'I' for Inactive)
REMARK    1  A    between atoms: C_1  and  O_2
REMARK    2  A    between atoms: O_2  and  C_3
REMARK    3  A    between atoms: C_6  and  C_10
REMARK    4  A    between atoms: C_8  and  O_9
REMARK    5  A    between atoms: C_13  and  O_27
REMARK    6  A    between atoms: N_19  and  C_20
REMARK                            x       y       z     vdW  Elec       q    Type
REMARK                         _______ _______ _______ _____ _____    ______ ____
ROOT
ATOM      1  C   UNL     1      -4.987  -2.627   0.035  0.00  0.00    +0.080 C 
ATOM      2  C   UNL     1      -5.798  -2.212  -1.197  0.00  0.00    +0.110 C 
ATOM      3  C   UNL     1      -6.402  -0.849  -1.025  0.00  0.00    +0.190 C 
ATOM      4  N   UNL     1      -6.790  -0.380   0.124  0.00  0.00    -0.197 NA
ATOM      5  C   UNL     1      -6.616  -1.141   1.241  0.00  0.00    +0.165 A 
ATOM      6  C   UNL     1      -5.768  -2.221   1.260  0.00  0.00    +0.094 A 
ATOM      7  N   UNL     1      -5.802  -2.755   2.474  0.00  0.00    -0.237 NA
ATOM      8  C   UNL     1      -6.630  -2.075   3.227  0.00  0.00    +0.206 A 
ATOM      9  N   UNL     1      -7.164  -1.053   2.488  0.00  0.00    -0.282 N 
ENDROOT
BRANCH   9  10
ATOM     10  C   UNL     1      -8.094  -0.099   2.927  0.00  0.00    +0.068 A 
ATOM     11  C   UNL     1      -7.742   0.813   3.912  0.00  0.00    +0.028 A 
ATOM     12  C   UNL     1      -8.659   1.752   4.342  0.00  0.00    +0.002 A 
ATOM     13  C   UNL     1      -9.928   1.783   3.792  0.00  0.00    +0.002 A 
ATOM     14  C   UNL     1     -10.283   0.876   2.812  0.00  0.00    +0.022 A 
ATOM     15  C   UNL     1      -9.367  -0.062   2.373  0.00  0.00    +0.065 A 
ATOM     16 CL   UNL     1      -9.810  -1.196   1.135  0.00  0.00    -0.081 Cl
ENDBRANCH   9  10
BRANCH   1  20
ATOM     17  C   UNL     1      -1.201  -0.638   0.010  0.00  0.00    +0.161 A 
ATOM     18  C   UNL     1      -2.374   0.099   0.019  0.00  0.00    +0.049 A 
ATOM     19  C   UNL     1      -3.596  -0.546   0.027  0.00  0.00    +0.008 A 
ATOM     20  C   UNL     1      -3.652  -1.928   0.026  0.00  0.00    -0.034 A 
ATOM     21  C   UNL     1      -2.485  -2.669   0.017  0.00  0.00    +0.053 A 
ATOM     22  C   UNL     1      -1.257  -2.028   0.003  0.00  0.00    +0.159 A 
BRANCH  17  24
ATOM     23  C   UNL     1      -0.017   1.425   0.010  0.00  0.00    +0.277 C 
ATOM     24  O   UNL     1       0.002  -0.004   0.002  0.00  0.00    -0.491 OA
ENDBRANCH  17  24
BRANCH  22  25
ATOM     25  O   UNL     1      -0.108  -2.756  -0.012  0.00  0.00    -0.503 OA
ATOM     26  H   UNL     1       0.232  -2.972   0.867  0.00  0.00    +0.292 HD
ENDBRANCH  22  25
ENDBRANCH   1  20
BRANCH   3  27
ATOM     27  O   UNL     1      -6.549  -0.070  -2.118  0.00  0.00    -0.495 OA
ATOM     28  H   UNL     1      -6.944   0.793  -1.936  0.00  0.00    +0.293 HD
ENDBRANCH   3  27
TORSDOF 5
