REMARK  Name = ZINC00367889
REMARK  6 active torsions:
REMARK  status: ('A' for Active; 'I' for Inactive)
REMARK    1  A    between atoms: C_1  and  C_2
REMARK    2  A    between atoms: C_5  and  C_8
REMARK    3  A    between atoms: C_8  and  N_9
REMARK    4  A    between atoms: N_17  and  C_23
REMARK    5  A    between atoms: C_20  and  S_21
REMARK    6  A    between atoms: S_21  and  C_22
REMARK                            x       y       z     vdW  Elec       q    Type
REMARK                         _______ _______ _______ _____ _____    ______ ____
ROOT
ATOM      1  N   UNL     1       1.356   2.010  -0.000  0.00  0.00    -0.309 N 
ATOM      2  C   UNL     1       2.142   2.296   1.108  0.00  0.00    +0.152 A 
ATOM      3  C   UNL     1       1.952   2.207   2.498  0.00  0.00    +0.280 A 
ATOM      4  O   UNL     1       0.892   1.813   2.951  0.00  0.00    -0.265 OA
ATOM      5  N   UNL     1       2.955   2.569   3.326  0.00  0.00    -0.273 N 
ATOM      6  H   UNL     1       2.821   2.510   4.315  0.00  0.00    +0.173 HD
ATOM      7  C   UNL     1       4.130   3.006   2.841  0.00  0.00    +0.331 A 
ATOM      8  O   UNL     1       5.010   3.324   3.617  0.00  0.00    -0.246 OA
ATOM      9  N   UNL     1       4.355   3.102   1.517  0.00  0.00    -0.280 N 
ATOM     10  C   UNL     1       3.364   2.745   0.617  0.00  0.00    +0.169 A 
ATOM     11  N   UNL     1       3.292   2.731  -0.715  0.00  0.00    -0.204 NA
ATOM     12  C   UNL     1       2.107   2.297  -1.097  0.00  0.00    +0.172 A 
ATOM     13  C   UNL     1       5.649   3.583   1.028  0.00  0.00    +0.155 C 
ENDROOT
BRANCH  12  14
ATOM     14  S   UNL     1       1.579   2.119  -2.769  0.00  0.00    -0.091 S 
ATOM     15  C   UNL     1       3.070   2.676  -3.631  0.00  0.00    +0.093 C 
ENDBRANCH  12  14
BRANCH   1  16
ATOM     16  C   UNL     1      -0.018   1.503   0.010  0.00  0.00    +0.159 C 
BRANCH  16  21
ATOM     17  C   UNL     1       0.060  -4.275  -0.021  0.00  0.00    +0.044 C 
ATOM     18  C   UNL     1       0.039  -2.768  -0.013  0.00  0.00    -0.050 A 
ATOM     19  C   UNL     1       0.042  -2.084   1.188  0.00  0.00    +0.004 A 
ATOM     20  C   UNL     1       0.023  -0.702   1.195  0.00  0.00    +0.005 A 
ATOM     21  C   UNL     1       0.002  -0.004   0.002  0.00  0.00    -0.028 A 
ATOM     22  C   UNL     1      -0.006  -0.689  -1.199  0.00  0.00    +0.005 A 
ATOM     23  C   UNL     1       0.017  -2.071  -1.206  0.00  0.00    +0.004 A 
ENDBRANCH  16  21
ENDBRANCH   1  16
TORSDOF 3
