REMARK  Name = ZINC15868331
REMARK  2 active torsions:
REMARK  status: ('A' for Active; 'I' for Inactive)
REMARK    1  A    between atoms: C_1  and  C_2
REMARK    2  A    between atoms: C_20  and  C_22
REMARK                            x       y       z     vdW  Elec       q    Type
REMARK                         _______ _______ _______ _____ _____    ______ ____
ROOT
ATOM      1  C   UNL     1      -2.540   5.270  -2.867  0.00  0.00    +0.068 C 
ATOM      2  C   UNL     1      -3.365   4.084  -2.438  0.00  0.00    +0.066 A 
ATOM      3  C   UNL     1      -3.355   3.501  -1.178  0.00  0.00    +0.023 A 
ATOM      4  C   UNL     1      -4.242   2.458  -1.188  0.00  0.00    +0.137 A 
ATOM      5  N   UNL     1      -4.779   2.392  -2.426  0.00  0.00    -0.168 N 
ATOM      6  N   UNL     1      -4.215   3.426  -3.191  0.00  0.00    -0.166 NA
ATOM      7  C   UNL     1      -5.718   1.468  -2.864  0.00  0.00    +0.327 A 
ATOM      8  N   UNL     1      -6.221   1.426  -4.069  0.00  0.00    -0.191 NA
ATOM      9  C   UNL     1      -7.105   0.395  -4.137  0.00  0.00    +0.111 A 
ATOM     10  C   UNL     1      -7.920  -0.111  -5.151  0.00  0.00    +0.031 A 
ATOM     11  C   UNL     1      -8.727  -1.199  -4.901  0.00  0.00    +0.002 A 
ATOM     12  C   UNL     1      -8.734  -1.794  -3.648  0.00  0.00    +0.004 A 
ATOM     13  C   UNL     1      -7.934  -1.304  -2.636  0.00  0.00    +0.048 A 
ATOM     14  C   UNL     1      -7.116  -0.210  -2.871  0.00  0.00    +0.157 A 
ATOM     15  O   UNL     1      -6.238   0.483  -2.111  0.00  0.00    -0.421 OA
ATOM     16  N   UNL     1      -4.478   1.681  -0.056  0.00  0.00    -0.270 N 
ATOM     17  C   UNL     1      -3.965   2.098   1.120  0.00  0.00    +0.219 C 
ATOM     18  O   UNL     1      -3.995   1.348   2.073  0.00  0.00    -0.275 OA
ATOM     19  C   UNL     1      -3.357   3.462   1.286  0.00  0.00    +0.109 C 
ATOM     20  C   UNL     1      -2.554   3.867   0.046  0.00  0.00    +0.063 C 
ATOM     21  H   UNL     1      -4.996   0.862  -0.113  0.00  0.00    +0.156 HD
ENDROOT
BRANCH  20  22
ATOM     22  C   UNL     1      -1.238   3.133   0.030  0.00  0.00    -0.038 A 
ATOM     23  C   UNL     1      -1.219   1.750   0.017  0.00  0.00    +0.006 A 
ATOM     24  C   UNL     1      -0.013   1.076   0.008  0.00  0.00    +0.022 A 
ATOM     25  C   UNL     1       1.176   1.784   0.000  0.00  0.00    +0.059 A 
ATOM     26  C   UNL     1       1.156   3.168   0.008  0.00  0.00    +0.060 A 
ATOM     27  C   UNL     1      -0.052   3.842   0.022  0.00  0.00    +0.025 A 
ATOM     28 CL   UNL     1       2.647   4.058  -0.003  0.00  0.00    -0.082 Cl
ATOM     29 CL   UNL     1       2.691   0.937  -0.019  0.00  0.00    -0.082 Cl
ENDBRANCH  20  22
TORSDOF 1
