REMARK  Name = ZINC12571397
REMARK  8 active torsions:
REMARK  status: ('A' for Active; 'I' for Inactive)
REMARK    1  A    between atoms: C_1  and  O_2
REMARK    2  A    between atoms: O_2  and  C_3
REMARK    3  A    between atoms: N_5  and  N_6
REMARK    4  A    between atoms: N_6  and  C_7
REMARK    5  A    between atoms: C_7  and  N_9
REMARK    6  A    between atoms: C_10  and  C_12
REMARK    7  A    between atoms: C_12  and  O_13
REMARK    8  A    between atoms: O_13  and  C_14
REMARK                            x       y       z     vdW  Elec       q    Type
REMARK                         _______ _______ _______ _____ _____    ______ ____
ROOT
ATOM      1  N   UNL     1       3.909  -2.193  -0.047  0.00  0.00    -0.264 N 
ATOM      2  C   UNL     1       3.713  -0.860  -0.038  0.00  0.00    +0.256 C 
ATOM      3  O   UNL     1       4.663  -0.107  -0.043  0.00  0.00    -0.272 OA
ATOM      4  H   UNL     1       3.149  -2.795  -0.043  0.00  0.00    +0.157 HD
ENDROOT
BRANCH   1   5
ATOM      5  C   UNL     1       5.162  -2.689  -0.062  0.00  0.00    +0.153 C 
ATOM      6  S   UNL     1       6.504  -1.627  -0.069  0.00  0.00    -0.017 S 
BRANCH   5   7
ATOM      7  N   UNL     1       5.358  -4.023  -0.071  0.00  0.00    -0.243 N 
ATOM      8  H   UNL     1       6.260  -4.380  -0.081  0.00  0.00    +0.172 HD
BRANCH   7  11
ATOM      9  C   UNL     1       4.456  -6.226  -0.074  0.00  0.00    +0.416 C 
ATOM     10  O   UNL     1       3.504  -6.980  -0.069  0.00  0.00    -0.225 OA
ATOM     11  N   UNL     1       4.260  -4.893  -0.065  0.00  0.00    -0.200 N 
ATOM     12  H   UNL     1       3.358  -4.535  -0.054  0.00  0.00    +0.176 HD
BRANCH   9  14
ATOM     13  C   UNL     1       5.844  -8.168  -0.097  0.00  0.00    +0.282 C 
ATOM     14  O   UNL     1       5.708  -6.722  -0.088  0.00  0.00    -0.453 OA
ENDBRANCH   9  14
ENDBRANCH   7  11
ENDBRANCH   5   7
ENDBRANCH   1   5
BRANCH   2  15
ATOM     15  C   UNL     1       2.312  -0.304  -0.022  0.00  0.00    +0.325 C 
BRANCH  15  16
ATOM     16  O   UNL     1       2.366   1.124  -0.015  0.00  0.00    -0.482 OA
BRANCH  16  17
ATOM     17  C   UNL     1       1.179   1.786   0.000  0.00  0.00    +0.135 A 
ATOM     18  C   UNL     1      -0.013   1.076   0.008  0.00  0.00    +0.048 A 
ATOM     19  C   UNL     1      -1.218   1.751   0.017  0.00  0.00    +0.019 A 
ATOM     20  C   UNL     1      -1.238   3.134   0.030  0.00  0.00    +0.019 A 
ATOM     21  C   UNL     1      -0.051   3.845   0.022  0.00  0.00    +0.034 A 
ATOM     22  C   UNL     1       1.157   3.174   0.008  0.00  0.00    +0.061 A 
ATOM     23 BR   UNL     1       2.779   4.146  -0.003  0.00  0.00    -0.046 Br
ATOM     24 BR   UNL     1      -2.889   4.054   0.050  0.00  0.00    -0.050 Br
ENDBRANCH  16  17
ENDBRANCH  15  16
ENDBRANCH   2  15
TORSDOF 7
