REMARK  Name = ZINC57521838
REMARK  5 active torsions:
REMARK  status: ('A' for Active; 'I' for Inactive)
REMARK    1  A    between atoms: C_1  and  C_2
REMARK    2  A    between atoms: C_2  and  C_3
REMARK    3  A    between atoms: C_2  and  C_5
REMARK    4  A    between atoms: C_2  and  N_16
REMARK    5  A    between atoms: N_16  and  N_17
REMARK                            x       y       z     vdW  Elec       q    Type
REMARK                         _______ _______ _______ _____ _____    ______ ____
ROOT
ATOM      1  C   UNL     1      -1.412  -0.526   0.013  0.00  0.00    -0.009 A 
ATOM      2  C   UNL     1      -2.413   0.209   0.621  0.00  0.00    +0.010 A 
ATOM      3  C   UNL     1      -3.713  -0.263   0.634  0.00  0.00    +0.050 A 
ATOM      4  C   UNL     1      -4.009  -1.476   0.035  0.00  0.00    +0.162 A 
ATOM      5  C   UNL     1      -3.004  -2.213  -0.575  0.00  0.00    +0.162 A 
ATOM      6  C   UNL     1      -1.705  -1.736  -0.591  0.00  0.00    +0.056 A 
ATOM      7  O   UNL     1      -3.307  -3.407  -1.163  0.00  0.00    -0.488 OA
ATOM      8  C   UNL     1      -3.687  -4.462  -0.277  0.00  0.00    +0.232 C 
ATOM      9  C   UNL     1      -5.168  -4.378   0.056  0.00  0.00    +0.082 C 
ATOM     10  C   UNL     1      -5.516  -3.119   0.834  0.00  0.00    +0.232 C 
ATOM     11  O   UNL     1      -5.287  -1.953   0.040  0.00  0.00    -0.488 OA
ENDROOT
BRANCH   1  13
ATOM     12  C   UNL     1      -0.019   1.526   0.010  0.00  0.00    +0.050 C 
ATOM     13  C   UNL     1       0.002  -0.004   0.002  0.00  0.00    +0.141 C 
BRANCH  13  14
ATOM     14  C   UNL     1       0.714  -0.492   1.195  0.00  0.00    +0.091 C 
ATOM     15  N   UNL     1       1.263  -0.868   2.115  0.00  0.00    -0.194 NA
ENDBRANCH  13  14
BRANCH  13  16
ATOM     16  N   UNL     1       0.690  -0.478  -1.207  0.00  0.00    -0.236 NA
ATOM     17  H   UNL     1       0.184  -0.211  -2.038  0.00  0.00    +0.142 HD
BRANCH  16  18
ATOM     18  N   UNL     1       2.060   0.007  -1.251  0.00  0.00    -0.269 NA
ATOM     19  H   UNL     1       2.532  -0.318  -2.081  0.00  0.00    +0.137 HD
ATOM     20  H   UNL     1       2.089   1.014  -1.189  0.00  0.00    +0.137 HD
ENDBRANCH  16  18
ENDBRANCH  13  16
ENDBRANCH   1  13
TORSDOF 4
