REMARK  Name = ZINC36674265
REMARK  9 active torsions:
REMARK  status: ('A' for Active; 'I' for Inactive)
REMARK    1  A    between atoms: C_1  and  C_2
REMARK    2  A    between atoms: N_11  and  C_15
REMARK    3  A    between atoms: C_15  and  C_16
REMARK    4  A    between atoms: N_18  and  C_19
REMARK    5  A    between atoms: C_19  and  C_20
REMARK    6  A    between atoms: C_20  and  C_22
REMARK    7  A    between atoms: C_20  and  N_29
REMARK    8  A    between atoms: N_29  and  C_30
REMARK    9  A    between atoms: N_29  and  C_31
REMARK                            x       y       z     vdW  Elec       q    Type
REMARK                         _______ _______ _______ _____ _____    ______ ____
ROOT
ATOM      1  C   UNL     1       3.259   3.166   1.629  0.00  0.00    +0.231 C 
ATOM      2  O   UNL     1       2.369   3.676   0.982  0.00  0.00    -0.274 OA
ATOM      3  N   UNL     1       4.236   3.932   2.153  0.00  0.00    -0.315 N 
ATOM      4  H   UNL     1       4.948   3.524   2.670  0.00  0.00    +0.149 HD
ENDROOT
BRANCH   1   5
ATOM      5  C   UNL     1       3.274   1.674   1.845  0.00  0.00    +0.213 C 
BRANCH   5  15
ATOM      6  C   UNL     1       0.044   2.372  -1.111  0.00  0.00    +0.010 C 
ATOM      7  C   UNL     1       0.045   0.882  -1.459  0.00  0.00    +0.018 C 
ATOM      8  C   UNL     1       0.805   0.666  -2.771  0.00  0.00    +0.006 C 
ATOM      9  C   UNL     1       0.824  -0.826  -3.108  0.00  0.00    +0.000 C 
ATOM     10  C   UNL     1       1.530  -1.594  -1.988  0.00  0.00    +0.003 C 
ATOM     11  C   UNL     1       0.773  -1.387  -0.673  0.00  0.00    +0.035 C 
ATOM     12  C   UNL     1       0.725   0.100  -0.341  0.00  0.00    +0.115 C 
ATOM     13  C   UNL     1       2.118   0.632  -0.095  0.00  0.00    +0.247 C 
ATOM     14  O   UNL     1       3.042   0.658  -0.879  0.00  0.00    -0.273 OA
ATOM     15  N   UNL     1       2.116   1.073   1.180  0.00  0.00    -0.215 N 
ATOM     16  C   UNL     1       0.924   0.892   1.762  0.00  0.00    +0.310 C 
ATOM     17  O   UNL     1       0.677   1.209   2.909  0.00  0.00    -0.252 OA
ATOM     18  N   UNL     1       0.030   0.318   0.935  0.00  0.00    -0.285 N 
ATOM     19  H   UNL     1      -0.891   0.094   1.140  0.00  0.00    +0.151 HD
ENDBRANCH   5  15
ENDBRANCH   1   5
BRANCH   3  20
ATOM     20  C   UNL     1       4.221   5.382   1.943  0.00  0.00    +0.093 C 
BRANCH  20  21
ATOM     21  C   UNL     1       5.361   6.024   2.737  0.00  0.00    -0.020 C 
BRANCH  21  22
ATOM     22  C   UNL     1       5.117   5.830   4.211  0.00  0.00    -0.041 A 
ATOM     23  C   UNL     1       5.782   4.831   4.896  0.00  0.00    +0.003 A 
ATOM     24  C   UNL     1       5.559   4.653   6.249  0.00  0.00    +0.000 A 
ATOM     25  C   UNL     1       4.670   5.475   6.917  0.00  0.00    +0.001 A 
ATOM     26  C   UNL     1       4.004   6.474   6.233  0.00  0.00    +0.020 A 
ATOM     27  C   UNL     1       4.232   6.656   4.880  0.00  0.00    +0.043 A 
ATOM     28 CL   UNL     1       3.401   7.916   4.022  0.00  0.00    -0.083 Cl
ENDBRANCH  21  22
BRANCH  21  29
ATOM     29  N   UNL     1       6.634   5.393   2.364  0.00  0.00    +0.382 N 
ATOM     30  C   UNL     1       6.808   5.466   0.907  0.00  0.00    -0.096 C 
ATOM     31  C   UNL     1       7.741   6.095   3.026  0.00  0.00    -0.096 C 
ATOM     32  H   UNL     1       6.628   4.426   2.653  0.00  0.00    -0.082 HD
ENDBRANCH  21  29
ENDBRANCH  20  21
ENDBRANCH   3  20
TORSDOF 6
