REMARK  Name = ZINC67543893
REMARK  7 active torsions:
REMARK  status: ('A' for Active; 'I' for Inactive)
REMARK    1  A    between atoms: C_1  and  C_2
REMARK    2  A    between atoms: C_2  and  C_4
REMARK    3  A    between atoms: C_2  and  N_11
REMARK    4  A    between atoms: C_8  and  O_10
REMARK    5  A    between atoms: N_11  and  C_12
REMARK    6  A    between atoms: N_15  and  C_16
REMARK    7  A    between atoms: C_20  and  N_22
REMARK                            x       y       z     vdW  Elec       q    Type
REMARK                         _______ _______ _______ _____ _____    ______ ____
ROOT
ATOM      1  N   UNL     1      -1.448  -0.516  -0.074  0.00  0.00    -0.282 N 
ATOM      2  C   UNL     1      -2.490  -0.158   0.892  0.00  0.00    +0.134 C 
ATOM      3  C   UNL     1      -1.738  -1.334  -1.105  0.00  0.00    +0.307 C 
ATOM      4  O   UNL     1      -0.874  -1.632  -1.906  0.00  0.00    -0.252 OA
ATOM      5  N   UNL     1      -2.987  -1.822  -1.248  0.00  0.00    -0.269 N 
ATOM      6  H   UNL     1      -3.659  -1.638  -0.573  0.00  0.00    +0.156 HD
ENDROOT
BRANCH   5   7
ATOM      7  C   UNL     1      -3.312  -2.593  -2.369  0.00  0.00    +0.037 A 
ATOM      8  C   UNL     1      -4.577  -2.497  -2.935  0.00  0.00    +0.023 A 
ATOM      9  C   UNL     1      -4.900  -3.258  -4.043  0.00  0.00    +0.004 A 
ATOM     10  C   UNL     1      -3.966  -4.117  -4.590  0.00  0.00    +0.025 A 
ATOM     11  C   UNL     1      -2.700  -4.218  -4.028  0.00  0.00    +0.053 A 
ATOM     12  C   UNL     1      -2.371  -3.450  -2.920  0.00  0.00    +0.048 A 
BRANCH  11  13
ATOM     13  N   UNL     1      -1.757  -5.087  -4.582  0.00  0.00    -0.207 N 
ATOM     14  C   UNL     1      -0.615  -5.715  -3.892  0.00  0.00    +0.133 C 
ATOM     15  C   UNL     1      -0.268  -7.072  -4.533  0.00  0.00    +0.045 C 
ATOM     16  C   UNL     1      -0.283  -6.809  -6.069  0.00  0.00    +0.190 C 
ATOM     17  S   UNL     1      -1.695  -5.635  -6.165  0.00  0.00    +0.046 S 
ATOM     18  O   UNL     1      -2.917  -6.330  -6.373  0.00  0.00    -0.155 OA
ATOM     19  O   UNL     1      -1.351  -4.500  -6.947  0.00  0.00    -0.155 OA
ENDBRANCH  11  13
ENDBRANCH   5   7
BRANCH   1  21
ATOM     20  C   UNL     1      -0.146   1.541   0.157  0.00  0.00    +0.033 C 
ATOM     21  C   UNL     1      -0.091   0.014   0.082  0.00  0.00    +0.104 C 
BRANCH  21  22
ATOM     22  C   UNL     1       0.518  -0.530   1.348  0.00  0.00    -0.024 A 
ATOM     23  C   UNL     1       0.151  -1.780   1.811  0.00  0.00    +0.006 A 
ATOM     24  C   UNL     1       0.708  -2.281   2.972  0.00  0.00    +0.004 A 
ATOM     25  C   UNL     1       1.634  -1.534   3.674  0.00  0.00    +0.045 A 
ATOM     26  C   UNL     1       2.005  -0.280   3.212  0.00  0.00    +0.117 A 
ATOM     27  C   UNL     1       1.448   0.219   2.043  0.00  0.00    +0.050 A 
BRANCH  26  28
ATOM     28  O   UNL     1       2.916   0.458   3.900  0.00  0.00    -0.507 OA
ATOM     29  H   UNL     1       3.831   0.305   3.629  0.00  0.00    +0.292 HD
ENDBRANCH  26  28
ENDBRANCH  21  22
ENDBRANCH   1  21
TORSDOF 5
