REMARK  Name = ZINC41717762
REMARK  7 active torsions:
REMARK  status: ('A' for Active; 'I' for Inactive)
REMARK    1  A    between atoms: C_1  and  C_2
REMARK    2  A    between atoms: N_6  and  C_7
REMARK    3  A    between atoms: C_7  and  C_8
REMARK    4  A    between atoms: C_8  and  C_9
REMARK    5  A    between atoms: C_8  and  C_10
REMARK    6  A    between atoms: C_8  and  C_11
REMARK    7  A    between atoms: C_15  and  O_17
REMARK                            x       y       z     vdW  Elec       q    Type
REMARK                         _______ _______ _______ _____ _____    ______ ____
ROOT
ATOM      1  C   UNL     1      -0.018   1.503   0.010  0.00  0.00    +0.063 C 
ATOM      2  C   UNL     1       0.002  -0.004   0.002  0.00  0.00    +0.016 A 
ATOM      3  C   UNL     1       0.008  -0.789  -1.097  0.00  0.00    +0.029 A 
ATOM      4  C   UNL     1       0.028  -2.121  -0.657  0.00  0.00    +0.002 A 
ATOM      5  C   UNL     1       0.035  -2.105   0.695  0.00  0.00    +0.025 A 
ATOM      6  N   UNL     1       0.024  -0.810   1.104  0.00  0.00    -0.347 N 
ATOM      7  C   UNL     1       0.060  -3.346   1.554  0.00  0.00    +0.054 C 
ATOM      8  C   UNL     1       0.489  -4.531   0.680  0.00  0.00    +0.009 C 
ATOM      9  C   UNL     1      -0.354  -4.557  -0.598  0.00  0.00    +0.036 C 
ATOM     10  C   UNL     1       0.039  -3.375  -1.493  0.00  0.00    +0.146 C 
ENDROOT
BRANCH  10  11
ATOM     11  O   UNL     1      -0.900  -3.249  -2.563  0.00  0.00    -0.387 OA
ATOM     12  H   UNL     1      -0.944  -4.023  -3.141  0.00  0.00    +0.210 HD
ENDBRANCH  10  11
BRANCH   6  13
ATOM     13  C   UNL     1       0.030  -0.353   2.496  0.00  0.00    +0.127 C 
BRANCH  13  14
ATOM     14  C   UNL     1      -1.410  -0.215   2.994  0.00  0.00    -0.020 C 
ATOM     15  C   UNL     1      -2.113  -1.571   2.905  0.00  0.00    +0.012 C 
ATOM     16  C   UNL     1      -1.404   0.262   4.448  0.00  0.00    +0.012 C 
ATOM     17  C   UNL     1      -2.154   0.802   2.127  0.00  0.00    +0.012 C 
ENDBRANCH  13  14
ENDBRANCH   6  13
TORSDOF 3
