REMARK  Name = ZINC13567341
REMARK  9 active torsions:
REMARK  status: ('A' for Active; 'I' for Inactive)
REMARK    1  A    between atoms: C_1  and  C_2
REMARK    2  A    between atoms: C_7  and  C_8
REMARK    3  A    between atoms: C_8  and  O_9
REMARK    4  A    between atoms: O_9  and  C_10
REMARK    5  A    between atoms: C_13  and  C_18
REMARK    6  A    between atoms: C_15  and  O_16
REMARK    7  A    between atoms: O_16  and  C_17
REMARK    8  A    between atoms: C_30  and  S_32
REMARK    9  A    between atoms: S_32  and  C_33
REMARK                            x       y       z     vdW  Elec       q    Type
REMARK                         _______ _______ _______ _____ _____    ______ ____
ROOT
ATOM      1  C   UNL     1       0.053  -0.376   4.845  0.00  0.00    +0.162 A 
ATOM      2  C   UNL     1       0.031   0.996   5.036  0.00  0.00    +0.050 A 
ATOM      3  C   UNL     1       0.035   1.516   6.317  0.00  0.00    +0.008 A 
ATOM      4  C   UNL     1       0.063   0.669   7.409  0.00  0.00    -0.036 A 
ATOM      5  C   UNL     1       0.086  -0.701   7.226  0.00  0.00    +0.053 A 
ATOM      6  C   UNL     1       0.075  -1.228   5.945  0.00  0.00    +0.162 A 
ENDROOT
BRANCH   4   7
ATOM      7  C   UNL     1       0.068   1.241   8.803  0.00  0.00    +0.066 C 
ATOM      8  C   UNL     1      -1.194   2.080   9.016  0.00  0.00    +0.109 C 
ATOM      9  C   UNL     1      -1.092   3.361   8.232  0.00  0.00    +0.219 C 
ATOM     10  O   UNL     1      -2.090   3.840   7.737  0.00  0.00    -0.275 OA
ATOM     11  N   UNL     1       0.091   3.981   8.073  0.00  0.00    -0.270 N 
ATOM     12  C   UNL     1       1.248   3.443   8.613  0.00  0.00    +0.137 A 
ATOM     13  C   UNL     1       1.283   2.110   8.985  0.00  0.00    +0.065 A 
ATOM     14  C   UNL     1       2.459   1.585   9.528  0.00  0.00    +0.258 A 
ATOM     15  O   UNL     1       2.522   0.414   9.864  0.00  0.00    -0.267 OA
ATOM     16  N   UNL     1       3.526   2.402   9.672  0.00  0.00    -0.302 N 
ATOM     17  H   UNL     1       4.352   2.058  10.047  0.00  0.00    +0.171 HD
ATOM     18  C   UNL     1       3.442   3.707   9.292  0.00  0.00    +0.171 A 
ATOM     19  N   UNL     1       2.335   4.205   8.778  0.00  0.00    -0.208 NA
ATOM     20  H   UNL     1       0.135   4.812   7.576  0.00  0.00    +0.156 HD
BRANCH  18  21
ATOM     21  S   UNL     1       4.845   4.754   9.491  0.00  0.00    -0.091 S 
ATOM     22  C   UNL     1       4.285   6.362   8.866  0.00  0.00    +0.093 C 
ENDBRANCH  18  21
ENDBRANCH   4   7
BRANCH   6  23
ATOM     23  O   UNL     1       0.092  -2.576   5.763  0.00  0.00    -0.491 OA
ATOM     24  C   UNL     1       0.114  -3.389   6.937  0.00  0.00    +0.277 C 
ENDBRANCH   6  23
BRANCH   1  25
ATOM     25  O   UNL     1       0.048  -0.889   3.585  0.00  0.00    -0.484 OA
BRANCH  25  26
ATOM     26  C   UNL     1       0.025   0.045   2.504  0.00  0.00    +0.265 C 
BRANCH  26  33
ATOM     27  C   UNL     1      -0.018   1.503   0.010  0.00  0.00    +0.044 C 
ATOM     28  C   UNL     1       0.002  -0.004   0.002  0.00  0.00    -0.044 A 
ATOM     29  C   UNL     1       0.006  -0.689  -1.199  0.00  0.00    +0.004 A 
ATOM     30  C   UNL     1       0.025  -2.071  -1.207  0.00  0.00    +0.000 A 
ATOM     31  C   UNL     1       0.040  -2.768  -0.013  0.00  0.00    +0.000 A 
ATOM     32  C   UNL     1       0.037  -2.084   1.188  0.00  0.00    +0.007 A 
ATOM     33  C   UNL     1       0.023  -0.702   1.195  0.00  0.00    -0.007 A 
ENDBRANCH  26  33
ENDBRANCH  25  26
ENDBRANCH   1  25
TORSDOF 6
