REMARK  Name = ZINC05612893
REMARK  2 active torsions:
REMARK  status: ('A' for Active; 'I' for Inactive)
REMARK    1  A    between atoms: C_7  and  N_9
REMARK    2  A    between atoms: N_10  and  C_11
REMARK                            x       y       z     vdW  Elec       q    Type
REMARK                         _______ _______ _______ _____ _____    ______ ____
ROOT
ATOM      1  N   UNL     1      -3.112   2.244   1.860  0.00  0.00    -0.187 NA
ATOM      2  N   UNL     1      -3.104   1.918   3.056  0.00  0.00    -0.187 NA
ENDROOT
BRANCH   1   9
ATOM      3  C   UNL     1      -0.828   1.631   1.215  0.00  0.00    +0.053 C 
ATOM      4  C   UNL     1      -0.013   1.086   0.008  0.00  0.00    +0.168 C 
ATOM      5  S   UNL     1      -1.006   1.746  -1.397  0.00  0.00    -0.029 S 
ATOM      6  O   UNL     1      -0.474   3.005  -1.787  0.00  0.00    -0.174 OA
ATOM      7  O   UNL     1      -1.167   0.724  -2.370  0.00  0.00    -0.174 OA
ATOM      8  C   UNL     1      -2.609   2.015  -0.537  0.00  0.00    +0.194 C 
ATOM      9  C   UNL     1      -2.324   1.481   0.888  0.00  0.00    +0.150 C 
ENDBRANCH   1   9
BRANCH   2  10
ATOM     10  C   UNL     1      -3.892   2.681   4.028  0.00  0.00    +0.150 C 
ATOM     11  C   UNL     1      -3.321   4.103   4.158  0.00  0.00    +0.053 C 
ATOM     12  C   UNL     1      -3.930   4.805   5.395  0.00  0.00    +0.168 C 
ATOM     13  S   UNL     1      -4.311   3.395   6.513  0.00  0.00    -0.029 S 
ATOM     14  O   UNL     1      -5.715   3.338   6.724  0.00  0.00    -0.174 OA
ATOM     15  O   UNL     1      -3.437   3.443   7.633  0.00  0.00    -0.174 OA
ATOM     16  C   UNL     1      -3.811   1.997   5.422  0.00  0.00    +0.194 C 
ENDBRANCH   2  10
TORSDOF 2
