REMARK  Name = ZINC64478678
REMARK  8 active torsions:
REMARK  status: ('A' for Active; 'I' for Inactive)
REMARK    1  A    between atoms: C_1  and  C_2
REMARK    2  A    between atoms: C_4  and  N_24
REMARK    3  A    between atoms: C_5  and  S_9
REMARK    4  A    between atoms: C_7  and  C_8
REMARK    5  A    between atoms: S_9  and  N_12
REMARK    6  A    between atoms: N_12  and  C_13
REMARK    7  A    between atoms: C_17  and  C_19
REMARK    8  A    between atoms: N_21  and  C_22
REMARK                            x       y       z     vdW  Elec       q    Type
REMARK                         _______ _______ _______ _____ _____    ______ ____
ROOT
ATOM      1  S   UNL     1       0.630  -4.464  -0.211  0.00  0.00    +0.094 S 
ATOM      2  O   UNL     1       1.683  -4.608  -1.155  0.00  0.00    -0.148 OA
ATOM      3  O   UNL     1       0.730  -4.948   1.121  0.00  0.00    -0.148 OA
ENDROOT
BRANCH   1   8
ATOM      4  C   UNL     1      -0.540   1.442   0.183  0.00  0.00    +0.044 C 
ATOM      5  C   UNL     1      -0.247  -0.033   0.085  0.00  0.00    -0.045 A 
ATOM      6  C   UNL     1      -0.166  -0.641  -1.155  0.00  0.00    +0.038 A 
ATOM      7  C   UNL     1       0.102  -1.994  -1.245  0.00  0.00    +0.153 A 
ATOM      8  C   UNL     1       0.289  -2.739  -0.096  0.00  0.00    +0.141 A 
ATOM      9  C   UNL     1       0.209  -2.132   1.143  0.00  0.00    +0.034 A 
ATOM     10  C   UNL     1      -0.055  -0.778   1.233  0.00  0.00    -0.046 A 
ATOM     11  C   UNL     1      -0.138  -0.115   2.584  0.00  0.00    +0.044 C 
BRANCH   7  12
ATOM     12  N   UNL     1       0.188  -2.644  -2.572  0.00  0.00    +0.058 N 
ATOM     13  O   UNL     1       0.153  -1.973  -3.577  0.00  0.00    -0.126 OA
ATOM     14  O   UNL     1       0.294  -3.846  -2.650  0.00  0.00    -0.126 OA
ENDBRANCH   7  12
ENDBRANCH   1   8
BRANCH   1  15
ATOM     15  N   UNL     1      -0.705  -5.184  -0.877  0.00  0.00    -0.098 NA
BRANCH  15  16
ATOM     16  C   UNL     1      -0.721  -6.566  -1.090  0.00  0.00    +0.075 A 
ATOM     17  C   UNL     1       0.382  -7.336  -0.738  0.00  0.00    +0.029 A 
ATOM     18  C   UNL     1       0.372  -8.701  -0.945  0.00  0.00    +0.041 A 
ATOM     19  C   UNL     1      -0.735  -9.312  -1.506  0.00  0.00    +0.136 A 
ATOM     20  C   UNL     1      -1.848  -8.546  -1.864  0.00  0.00    +0.074 A 
ATOM     21  C   UNL     1      -1.838  -7.167  -1.647  0.00  0.00    +0.042 A 
ATOM     22  F   UNL     1      -0.740 -10.648  -1.708  0.00  0.00    -0.205 F 
BRANCH  20  23
ATOM     23  C   UNL     1      -3.033  -9.194  -2.463  0.00  0.00    +0.247 C 
ATOM     24  O   UNL     1      -3.041 -10.395  -2.646  0.00  0.00    -0.270 OA
ATOM     25  N   UNL     1      -4.104  -8.452  -2.806  0.00  0.00    -0.314 N 
ATOM     26  C   UNL     1      -5.279  -9.095  -3.401  0.00  0.00    +0.128 C 
ATOM     27  H   UNL     1      -4.098  -7.493  -2.660  0.00  0.00    +0.149 HD
ENDBRANCH  20  23
ENDBRANCH  15  16
ENDBRANCH   1  15
TORSDOF 5
