REMARK  Name = ZINC36556900
REMARK  14 active torsions:
REMARK  status: ('A' for Active; 'I' for Inactive)
REMARK    1  A    between atoms: C_1  and  C_2
REMARK    2  A    between atoms: C_5  and  C_7
REMARK    3  A    between atoms: C_7  and  N_8
REMARK    4  A    between atoms: N_8  and  C_9
REMARK    5  A    between atoms: C_9  and  C_11
REMARK    6  A    between atoms: C_9  and  C_16
REMARK    7  A    between atoms: N_18  and  C_19
REMARK    8  A    between atoms: C_19  and  C_20
REMARK    9  A    between atoms: C_19  and  C_21
REMARK   10  A    between atoms: C_19  and  C_22
REMARK   11  A    between atoms: C_23  and  C_25
REMARK   12  A    between atoms: C_33  and  C_35
REMARK   13  A    between atoms: C_36  and  C_37
REMARK   14  A    between atoms: C_36  and  C_38
REMARK                            x       y       z     vdW  Elec       q    Type
REMARK                         _______ _______ _______ _____ _____    ______ ____
ROOT
ATOM      1  N   UNL     1       2.411  -3.314  -2.906  0.00  0.00    -0.276 N 
ATOM      2  C   UNL     1       1.886  -4.527  -3.168  0.00  0.00    +0.220 C 
ATOM      3  O   UNL     1       2.577  -5.519  -3.077  0.00  0.00    -0.275 OA
ENDROOT
BRANCH   2   4
ATOM      4  C   UNL     1       0.430  -4.652  -3.577  0.00  0.00    +0.079 C 
ATOM      5  C   UNL     1      -0.398  -4.997  -2.344  0.00  0.00    +0.017 C 
ATOM      6  C   UNL     1      -1.539  -5.966  -2.652  0.00  0.00    -0.004 C 
ATOM      7  C   UNL     1      -1.008  -7.288  -3.247  0.00  0.00    +0.008 C 
ATOM      8  C   UNL     1      -0.987  -6.497  -4.579  0.00  0.00    -0.001 C 
ATOM      9  C   UNL     1       0.316  -5.704  -4.673  0.00  0.00    +0.001 C 
ATOM     10  C   UNL     1       0.463  -5.062  -6.056  0.00  0.00    +0.008 C 
ATOM     11  C   UNL     1      -2.194  -5.742  -4.021  0.00  0.00    -0.029 C 
ATOM     12  C   UNL     1      -3.521  -6.511  -4.186  0.00  0.00    +0.011 C 
ATOM     13  C   UNL     1      -2.358  -4.284  -4.441  0.00  0.00    +0.011 C 
ENDBRANCH   2   4
BRANCH   1  14
ATOM     14  C   UNL     1       1.556  -2.124  -2.932  0.00  0.00    +0.183 C 
BRANCH  14  19
ATOM     15  C   UNL     1       2.745   0.328  -7.176  0.00  0.00    +0.086 C 
ATOM     16  C   UNL     1       1.996  -0.525  -6.185  0.00  0.00    +0.102 A 
ATOM     17  C   UNL     1       0.817  -1.135  -6.405  0.00  0.00    +0.045 A 
ATOM     18  C   UNL     1       0.484  -1.823  -5.215  0.00  0.00    +0.046 A 
ATOM     19  C   UNL     1       1.479  -1.592  -4.340  0.00  0.00    +0.122 A 
ATOM     20  O   UNL     1       2.394  -0.810  -4.935  0.00  0.00    -0.463 OA
ENDBRANCH  14  19
ENDBRANCH   1  14
BRANCH   1  21
ATOM     21  C   UNL     1       3.837  -3.184  -2.595  0.00  0.00    +0.229 C 
BRANCH  21  22
ATOM     22  C   UNL     1       4.463  -2.173  -3.521  0.00  0.00    +0.134 A 
ATOM     23  C   UNL     1       5.340  -2.444  -4.504  0.00  0.00    +0.047 A 
ATOM     24  C   UNL     1       5.664  -1.211  -5.115  0.00  0.00    +0.041 A 
ATOM     25  C   UNL     1       4.965  -0.261  -4.470  0.00  0.00    +0.195 A 
ATOM     26  O   UNL     1       4.235  -0.850  -3.509  0.00  0.00    -0.465 OA
ENDBRANCH  21  22
BRANCH  21  27
ATOM     27  C   UNL     1       4.000  -2.727  -1.168  0.00  0.00    +0.242 C 
ATOM     28  O   UNL     1       3.022  -2.529  -0.479  0.00  0.00    -0.273 OA
ATOM     29  N   UNL     1       5.233  -2.538  -0.658  0.00  0.00    -0.309 N 
ATOM     30  H   UNL     1       6.016  -2.696  -1.210  0.00  0.00    +0.149 HD
BRANCH  29  31
ATOM     31  C   UNL     1       5.392  -2.094   0.729  0.00  0.00    +0.026 C 
ATOM     32  C   UNL     1       4.757  -3.120   1.669  0.00  0.00    +0.031 C 
ATOM     33  C   UNL     1       6.881  -1.959   1.053  0.00  0.00    +0.031 C 
ATOM     34  C   UNL     1       4.705  -0.740   0.912  0.00  0.00    +0.031 C 
ENDBRANCH  29  31
ENDBRANCH  21  27
ENDBRANCH   1  21
TORSDOF 7
