REMARK  Name = ZINC66569735
REMARK  7 active torsions:
REMARK  status: ('A' for Active; 'I' for Inactive)
REMARK    1  A    between atoms: C_1  and  C_2
REMARK    2  A    between atoms: C_6  and  C_8
REMARK    3  A    between atoms: N_10  and  N_11
REMARK    4  A    between atoms: C_12  and  C_14
REMARK    5  A    between atoms: N_16  and  C_21
REMARK    6  A    between atoms: C_23  and  C_28
REMARK    7  A    between atoms: C_26  and  C_27
REMARK                            x       y       z     vdW  Elec       q    Type
REMARK                         _______ _______ _______ _____ _____    ______ ____
ROOT
ATOM      1  N   UNL     1       0.083  -4.905   3.652  0.00  0.00    -0.229 N 
ATOM      2  C   UNL     1       0.100  -6.252   3.639  0.00  0.00    +0.276 C 
ATOM      3  O   UNL     1       0.103  -6.851   2.580  0.00  0.00    -0.267 OA
ATOM      4  H   UNL     1       0.080  -4.428   4.496  0.00  0.00    +0.173 HD
ENDROOT
BRANCH   2   5
ATOM      5  C   UNL     1       0.115  -6.997   4.903  0.00  0.00    +0.123 C 
ATOM      6  N   UNL     1       0.106  -6.351   6.027  0.00  0.00    -0.172 NA
ATOM      7  N   UNL     1       0.122  -7.027   7.251  0.00  0.00    -0.160 N 
ATOM      8  C   UNL     1       0.528  -8.311   7.315  0.00  0.00    +0.240 C 
ATOM      9  O   UNL     1       0.543  -8.892   8.380  0.00  0.00    -0.273 OA
ATOM     10  C   UNL     1       0.961  -9.023   6.059  0.00  0.00    +0.104 C 
ATOM     11  C   UNL     1       0.134  -8.503   4.877  0.00  0.00    +0.072 C 
BRANCH   7  12
ATOM     12  C   UNL     1      -0.286  -6.368   8.417  0.00  0.00    +0.063 A 
ATOM     13  C   UNL     1      -1.285  -6.913   9.212  0.00  0.00    +0.029 A 
ATOM     14  C   UNL     1      -1.685  -6.260  10.361  0.00  0.00    -0.049 A 
ATOM     15  C   UNL     1      -1.092  -5.063  10.720  0.00  0.00    +0.004 A 
ATOM     16  C   UNL     1      -0.097  -4.517   9.930  0.00  0.00    +0.005 A 
ATOM     17  C   UNL     1       0.312  -5.169   8.783  0.00  0.00    -0.027 A 
ATOM     18  C   UNL     1       1.402  -4.577   7.927  0.00  0.00    +0.046 C 
ATOM     19  C   UNL     1      -2.771  -6.851  11.223  0.00  0.00    +0.044 C 
ENDBRANCH   7  12
ENDBRANCH   2   5
BRANCH   1  22
ATOM     20  C   UNL     1       0.051  -2.845   2.458  0.00  0.00    +0.260 C 
ATOM     21  O   UNL     1       0.048  -2.248   3.516  0.00  0.00    -0.269 OA
ATOM     22  N   UNL     1       0.068  -4.193   2.445  0.00  0.00    -0.230 N 
ATOM     23  H   UNL     1       0.071  -4.670   1.601  0.00  0.00    +0.173 HD
BRANCH  20  29
ATOM     24  C   UNL     1      -0.018   1.503   0.010  0.00  0.00    +0.044 C 
ATOM     25  C   UNL     1       0.002  -0.004   0.002  0.00  0.00    -0.050 A 
ATOM     26  C   UNL     1       0.006  -0.688  -1.201  0.00  0.00    +0.003 A 
ATOM     27  C   UNL     1       0.024  -2.071  -1.218  0.00  0.00    +0.001 A 
ATOM     28  C   UNL     1       0.039  -2.778  -0.033  0.00  0.00    +0.013 A 
ATOM     29  C   UNL     1       0.036  -2.095   1.184  0.00  0.00    +0.038 A 
ATOM     30  C   UNL     1       0.023  -0.699   1.194  0.00  0.00    +0.016 A 
ENDBRANCH  20  29
ENDBRANCH   1  22
TORSDOF 4
