REMARK  Name = ZINC43516589
REMARK  6 active torsions:
REMARK  status: ('A' for Active; 'I' for Inactive)
REMARK    1  A    between atoms: C_1  and  C_2
REMARK    2  A    between atoms: C_2  and  C_4
REMARK    3  A    between atoms: C_2  and  O_8
REMARK    4  A    between atoms: N_5  and  O_6
REMARK    5  A    between atoms: O_8  and  C_9
REMARK    6  A    between atoms: C_9  and  C_10
REMARK                            x       y       z     vdW  Elec       q    Type
REMARK                         _______ _______ _______ _____ _____    ______ ____
ROOT
ATOM      1  C   UNL     1      -0.019   1.526   0.010  0.00  0.00    +0.046 C 
ATOM      2  C   UNL     1       0.002  -0.004   0.002  0.00  0.00    +0.181 C 
ENDROOT
BRANCH   2   3
ATOM      3  C   UNL     1       0.731  -0.503   1.223  0.00  0.00    +0.160 C 
ATOM      4  N   UNL     1       0.099  -0.641   2.341  0.00  0.00    -0.074 NA
ATOM      5  N   UNL     1       2.071  -0.812   1.147  0.00  0.00    -0.342 N 
ATOM      6  H   UNL     1       2.546  -0.709   0.307  0.00  0.00    +0.144 HD
ATOM      7  H   UNL     1       2.540  -1.134   1.933  0.00  0.00    +0.144 HD
BRANCH   4   8
ATOM      8  O   UNL     1       0.784  -1.111   3.488  0.00  0.00    -0.408 OA
ATOM      9  H   UNL     1       0.228  -1.181   4.277  0.00  0.00    +0.328 HD
ENDBRANCH   4   8
ENDBRANCH   2   3
BRANCH   2  10
ATOM     10  O   UNL     1       0.671  -0.465  -1.174  0.00  0.00    -0.367 OA
BRANCH  10  11
ATOM     11  C   UNL     1      -0.194  -0.664  -2.294  0.00  0.00    +0.192 C 
BRANCH  11  12
ATOM     12  C   UNL     1       0.625  -1.155  -3.489  0.00  0.00    +0.144 C 
ATOM     13  C   UNL     1      -0.278  -1.258  -4.737  0.00  0.00    +0.036 C 
ATOM     14  C   UNL     1       0.236  -2.559  -5.410  0.00  0.00    +0.031 C 
ATOM     15  C   UNL     1       0.613  -3.405  -4.168  0.00  0.00    +0.160 C 
ATOM     16  O   UNL     1       1.144  -2.463  -3.219  0.00  0.00    -0.374 OA
ENDBRANCH  11  12
ENDBRANCH  10  11
ENDBRANCH   2  10
TORSDOF 5
