REMARK  Name = ZINC41021122
REMARK  9 active torsions:
REMARK  status: ('A' for Active; 'I' for Inactive)
REMARK    1  A    between atoms: C_1  and  C_2
REMARK    2  A    between atoms: C_5  and  C_8
REMARK    3  A    between atoms: C_11  and  C_13
REMARK    4  A    between atoms: C_13  and  C_14
REMARK    5  A    between atoms: C_14  and  C_15
REMARK    6  A    between atoms: N_17  and  C_18
REMARK    7  A    between atoms: C_18  and  C_19
REMARK    8  A    between atoms: C_19  and  C_21
REMARK    9  A    between atoms: C_19  and  N_28
REMARK                            x       y       z     vdW  Elec       q    Type
REMARK                         _______ _______ _______ _____ _____    ______ ____
ROOT
ATOM      1  C   UNL     1       1.619  -9.055   2.769  0.00  0.00    +0.213 C 
ATOM      2  O   UNL     1       0.563  -9.580   3.052  0.00  0.00    -0.276 OA
ATOM      3  N   UNL     1       2.779  -9.628   3.146  0.00  0.00    -0.317 N 
ATOM      4  H   UNL     1       3.623  -9.208   2.919  0.00  0.00    +0.149 HD
ENDROOT
BRANCH   1   5
ATOM      5  C   UNL     1       1.633  -7.761   1.996  0.00  0.00    +0.105 C 
BRANCH   5   6
ATOM      6  C   UNL     1       0.196  -7.330   1.696  0.00  0.00    +0.105 C 
BRANCH   6  10
ATOM      7  C   UNL     1       0.213  -3.916   0.446  0.00  0.00    +0.155 A 
ATOM      8  C   UNL     1       0.247  -4.632  -0.707  0.00  0.00    +0.161 A 
ATOM      9  N   UNL     1       0.244  -5.932  -0.376  0.00  0.00    -0.221 NA
ATOM     10  C   UNL     1       0.211  -6.037   0.923  0.00  0.00    +0.197 A 
ATOM     11  O   UNL     1       0.196  -4.809   1.460  0.00  0.00    -0.440 OA
BRANCH   7  16
ATOM     12  C   UNL     1       0.175   1.818   0.924  0.00  0.00    +0.044 C 
ATOM     13  C   UNL     1       0.185   0.316   0.799  0.00  0.00    -0.050 A 
ATOM     14  C   UNL     1       0.215  -0.270  -0.454  0.00  0.00    +0.004 A 
ATOM     15  C   UNL     1       0.225  -1.644  -0.575  0.00  0.00    +0.012 A 
ATOM     16  C   UNL     1       0.204  -2.443   0.569  0.00  0.00    +0.019 A 
ATOM     17  C   UNL     1       0.174  -1.845   1.830  0.00  0.00    +0.012 A 
ATOM     18  C   UNL     1       0.171  -0.470   1.938  0.00  0.00    +0.004 A 
ENDBRANCH   7  16
ENDBRANCH   6  10
ENDBRANCH   5   6
ENDBRANCH   1   5
BRANCH   3  19
ATOM     19  C   UNL     1       2.765 -10.886   3.897  0.00  0.00    +0.093 C 
BRANCH  19  20
ATOM     20  C   UNL     1       4.199 -11.382   4.087  0.00  0.00    -0.019 C 
BRANCH  20  21
ATOM     21  C   UNL     1       4.952 -10.419   4.969  0.00  0.00    -0.041 A 
ATOM     22  C   UNL     1       5.718  -9.418   4.403  0.00  0.00    +0.003 A 
ATOM     23  C   UNL     1       6.408  -8.534   5.211  0.00  0.00    +0.000 A 
ATOM     24  C   UNL     1       6.332  -8.651   6.587  0.00  0.00    +0.001 A 
ATOM     25  C   UNL     1       5.566  -9.652   7.154  0.00  0.00    +0.020 A 
ATOM     26  C   UNL     1       4.870 -10.533   6.345  0.00  0.00    +0.043 A 
ATOM     27 CL   UNL     1       3.903 -11.786   7.057  0.00  0.00    -0.083 Cl
ENDBRANCH  20  21
BRANCH  20  28
ATOM     28  N   UNL     1       4.864 -11.471   2.780  0.00  0.00    +0.385 N 
ATOM     29  C   UNL     1       4.075 -12.330   1.889  0.00  0.00    -0.078 C 
ATOM     30  C   UNL     1       4.720 -12.361   0.502  0.00  0.00    -0.019 C 
ATOM     31  C   UNL     1       6.143 -12.915   0.619  0.00  0.00    -0.004 C 
ATOM     32  C   UNL     1       6.935 -12.055   1.608  0.00  0.00    -0.019 C 
ATOM     33  C   UNL     1       6.208 -12.035   2.954  0.00  0.00    -0.078 C 
ATOM     34  H   UNL     1       4.937 -10.549   2.378  0.00  0.00    -0.081 HD
ENDBRANCH  20  28
ENDBRANCH  19  20
ENDBRANCH   3  19
TORSDOF 8
