REMARK  Name = ZINC15962789
REMARK  6 active torsions:
REMARK  status: ('A' for Active; 'I' for Inactive)
REMARK    1  A    between atoms: C_1  and  C_2
REMARK    2  A    between atoms: C_2  and  O_3
REMARK    3  A    between atoms: O_3  and  C_4
REMARK    4  A    between atoms: C_11  and  C_39
REMARK    5  A    between atoms: N_18  and  C_19
REMARK    6  A    between atoms: C_23  and  C_25
REMARK                            x       y       z     vdW  Elec       q    Type
REMARK                         _______ _______ _______ _____ _____    ______ ____
ROOT
ATOM      1  C   UNL     1      -5.687  -1.208   2.492  0.00  0.00    +0.042 A 
ATOM      2  C   UNL     1      -5.672   0.081   1.973  0.00  0.00    +0.024 A 
ATOM      3  C   UNL     1      -5.737   1.172   2.818  0.00  0.00    +0.003 A 
ATOM      4  C   UNL     1      -5.818   0.989   4.184  0.00  0.00    +0.013 A 
ATOM      5  C   UNL     1      -5.834  -0.302   4.715  0.00  0.00    +0.039 A 
ATOM      6  C   UNL     1      -5.774  -1.403   3.861  0.00  0.00    +0.036 A 
ENDROOT
BRANCH   1  20
ATOM      7  C   UNL     1      -5.493  -6.008   3.622  0.00  0.00    +0.162 A 
ATOM      8  C   UNL     1      -6.294  -7.130   3.500  0.00  0.00    +0.049 A 
ATOM      9  C   UNL     1      -6.860  -7.446   2.279  0.00  0.00    +0.004 A 
ATOM     10  C   UNL     1      -6.628  -6.639   1.181  0.00  0.00    +0.009 A 
ATOM     11  C   UNL     1      -5.829  -5.515   1.298  0.00  0.00    +0.018 A 
ATOM     12  C   UNL     1      -5.259  -5.191   2.515  0.00  0.00    +0.170 A 
ATOM     13  O   UNL     1      -4.459  -4.104   2.668  0.00  0.00    -0.464 OA
ATOM     14  C   UNL     1      -4.415  -3.133   1.626  0.00  0.00    +0.185 C 
ATOM     15  C   UNL     1      -4.303  -3.861   0.279  0.00  0.00    +0.096 C 
ATOM     16  C   UNL     1      -5.604  -4.647   0.080  0.00  0.00    +0.114 C 
ATOM     17  N   UNL     1      -6.698  -3.662   0.035  0.00  0.00    -0.292 N 
ATOM     18  C   UNL     1      -6.651  -2.578   0.828  0.00  0.00    +0.310 C 
ATOM     19  O   UNL     1      -7.593  -1.809   0.824  0.00  0.00    -0.252 OA
ATOM     20  N   UNL     1      -5.622  -2.310   1.631  0.00  0.00    -0.216 N 
ATOM     21  C   UNL     1      -3.189  -2.238   1.816  0.00  0.00    +0.079 C 
ATOM     22  H   UNL     1      -7.449  -3.795  -0.564  0.00  0.00    +0.151 HD
BRANCH   7  23
ATOM     23  O   UNL     1      -4.938  -5.698   4.824  0.00  0.00    -0.489 OA
BRANCH  23  25
ATOM     24  C   UNL     1      -4.513  -6.069   7.174  0.00  0.00    +0.048 C 
ATOM     25  C   UNL     1      -5.218  -6.577   5.915  0.00  0.00    +0.226 C 
ENDBRANCH  23  25
ENDBRANCH   7  23
ENDBRANCH   1  20
BRANCH   5  26
ATOM     26  C   UNL     1      -5.921  -0.501   6.178  0.00  0.00    +0.247 C 
ATOM     27  O   UNL     1      -5.188  -1.300   6.727  0.00  0.00    -0.270 OA
ATOM     28  N   UNL     1      -6.813   0.204   6.902  0.00  0.00    -0.295 N 
ATOM     29  C   UNL     1      -7.648   1.232   6.266  0.00  0.00    +0.127 C 
ATOM     30  C   UNL     1      -9.120   0.915   6.553  0.00  0.00    +0.125 C 
ATOM     31  N   UNL     1      -9.276   0.668   7.993  0.00  0.00    -0.314 N 
ATOM     32  C   UNL     1      -8.441  -0.361   8.630  0.00  0.00    +0.125 C 
ATOM     33  C   UNL     1      -6.972  -0.047   8.341  0.00  0.00    +0.127 C 
ATOM     34  C   UNL     1     -10.195   1.395   8.740  0.00  0.00    +0.099 A 
ATOM     35  C   UNL     1     -11.072   2.264   8.098  0.00  0.00    +0.042 A 
ATOM     36  C   UNL     1     -11.982   2.981   8.854  0.00  0.00    +0.005 A 
ATOM     37  C   UNL     1     -11.985   2.804  10.232  0.00  0.00    +0.018 A 
ATOM     38  C   UNL     1     -11.086   1.925  10.802  0.00  0.00    +0.084 A 
ATOM     39  N   UNL     1     -10.233   1.250  10.056  0.00  0.00    -0.350 N 
ATOM     40  H   UNL     1      -9.615   0.635  10.482  0.00  0.00    +0.166 HD
ENDBRANCH   5  26
TORSDOF 4
