REMARK  Name = ZINC38517517
REMARK  12 active torsions:
REMARK  status: ('A' for Active; 'I' for Inactive)
REMARK    1  A    between atoms: C_1  and  N_2
REMARK    2  A    between atoms: C_10  and  C_12
REMARK    3  A    between atoms: C_12  and  C_14
REMARK    4  A    between atoms: C_12  and  N_29
REMARK    5  A    between atoms: C_14  and  N_15
REMARK    6  A    between atoms: N_18  and  C_19
REMARK    7  A    between atoms: C_22  and  O_27
REMARK    8  A    between atoms: C_23  and  O_25
REMARK    9  A    between atoms: O_25  and  C_26
REMARK   10  A    between atoms: O_27  and  C_28
REMARK   11  A    between atoms: N_29  and  C_30
REMARK   12  A    between atoms: N_29  and  C_31
REMARK                            x       y       z     vdW  Elec       q    Type
REMARK                         _______ _______ _______ _____ _____    ______ ____
ROOT
ATOM      1  C   UNL     1       5.190  -3.104  -2.095  0.00  0.00    +0.095 C 
ENDROOT
BRANCH   1   2
ATOM      2  N   UNL     1       4.106  -3.936  -2.624  0.00  0.00    -0.300 N 
ATOM      3  C   UNL     1       4.042  -4.199  -3.944  0.00  0.00    +0.304 C 
ATOM      4  O   UNL     1       4.883  -3.747  -4.697  0.00  0.00    -0.253 OA
ATOM      5  N   UNL     1       3.045  -4.965  -4.431  0.00  0.00    -0.269 N 
ATOM      6  H   UNL     1       3.435  -4.297  -2.024  0.00  0.00    +0.150 HD
ATOM      7  H   UNL     1       2.327  -5.255  -3.846  0.00  0.00    +0.156 HD
BRANCH   5   8
ATOM      8  C   UNL     1       3.045  -5.340  -5.781  0.00  0.00    +0.038 A 
ATOM      9  C   UNL     1       4.245  -5.595  -6.431  0.00  0.00    +0.027 A 
ATOM     10  C   UNL     1       4.247  -5.965  -7.762  0.00  0.00    +0.051 A 
ATOM     11  C   UNL     1       3.051  -6.084  -8.451  0.00  0.00    +0.162 A 
ATOM     12  C   UNL     1       1.846  -5.830  -7.803  0.00  0.00    +0.163 A 
ATOM     13  C   UNL     1       1.845  -5.464  -6.467  0.00  0.00    +0.072 A 
BRANCH  12  14
ATOM     14  O   UNL     1       0.672  -5.946  -8.478  0.00  0.00    -0.491 OA
ATOM     15  C   UNL     1      -0.526  -5.670  -7.750  0.00  0.00    +0.277 C 
ENDBRANCH  12  14
BRANCH  11  16
ATOM     16  O   UNL     1       3.055  -6.449  -9.762  0.00  0.00    -0.491 OA
ATOM     17  C   UNL     1       4.327  -6.694 -10.364  0.00  0.00    +0.277 C 
ENDBRANCH  11  16
ENDBRANCH   5   8
ENDBRANCH   1   2
BRANCH   1  18
ATOM     18  C   UNL     1       4.962  -2.857  -0.603  0.00  0.00    -0.021 C 
BRANCH  18  28
ATOM     19  C   UNL     1       0.109   1.430   0.207  0.00  0.00    +0.129 C 
ATOM     20  N   UNL     1       0.097  -0.033   0.128  0.00  0.00    -0.333 N 
ATOM     21  C   UNL     1      -1.167  -0.776   0.228  0.00  0.00    +0.105 C 
ATOM     22  C   UNL     1      -0.938  -1.964   1.172  0.00  0.00    +0.024 C 
ATOM     23  C   UNL     1       0.105  -2.894   0.551  0.00  0.00    +0.038 C 
ATOM     24  C   UNL     1       1.332  -2.117   0.151  0.00  0.00    -0.026 A 
ATOM     25  C   UNL     1       1.288  -0.745  -0.051  0.00  0.00    +0.033 A 
ATOM     26  C   UNL     1       2.436  -0.059  -0.430  0.00  0.00    +0.023 A 
ATOM     27  C   UNL     1       3.623  -0.743  -0.608  0.00  0.00    +0.004 A 
ATOM     28  C   UNL     1       3.667  -2.110  -0.410  0.00  0.00    -0.059 A 
ATOM     29  C   UNL     1       2.526  -2.795  -0.023  0.00  0.00    +0.007 A 
ENDBRANCH  18  28
BRANCH  18  30
ATOM     30  N   UNL     1       6.071  -2.060  -0.063  0.00  0.00    +0.382 N 
ATOM     31  C   UNL     1       5.908  -1.914   1.390  0.00  0.00    -0.096 C 
ATOM     32  C   UNL     1       7.344  -2.736  -0.348  0.00  0.00    -0.096 C 
ATOM     33  H   UNL     1       6.071  -1.148  -0.494  0.00  0.00    -0.082 HD
ENDBRANCH  18  30
ENDBRANCH   1  18
TORSDOF 7
