REMARK  Name = ZINC67295358
REMARK  7 active torsions:
REMARK  status: ('A' for Active; 'I' for Inactive)
REMARK    1  A    between atoms: C_1  and  C_2
REMARK    2  A    between atoms: C_2  and  C_3
REMARK    3  A    between atoms: C_2  and  C_4
REMARK    4  A    between atoms: C_8  and  N_10
REMARK    5  A    between atoms: C_12  and  C_21
REMARK    6  A    between atoms: N_23  and  C_24
REMARK    7  A    between atoms: C_24  and  C_25
REMARK                            x       y       z     vdW  Elec       q    Type
REMARK                         _______ _______ _______ _____ _____    ______ ____
ROOT
ATOM      1  N   UNL     1       3.610  -2.503  -2.162  0.00  0.00    -0.325 N 
ATOM      2  C   UNL     1       3.740  -3.572  -2.917  0.00  0.00    +0.212 A 
ATOM      3  C   UNL     1       4.983  -4.368  -2.902  0.00  0.00    +0.097 A 
ATOM      4  C   UNL     1       4.878  -5.712  -3.233  0.00  0.00    +0.030 A 
ATOM      5  C   UNL     1       3.546  -6.221  -3.568  0.00  0.00    +0.018 A 
ATOM      6  C   UNL     1       3.304  -7.597  -3.651  0.00  0.00    +0.011 A 
ATOM      7  C   UNL     1       2.051  -8.047  -3.962  0.00  0.00    +0.001 A 
ATOM      8  C   UNL     1       1.018  -7.151  -4.195  0.00  0.00    +0.004 A 
ATOM      9  C   UNL     1       1.235  -5.790  -4.118  0.00  0.00    +0.047 A 
ATOM     10  C   UNL     1       2.499  -5.310  -3.807  0.00  0.00    +0.137 A 
ATOM     11  O   UNL     1       2.732  -3.981  -3.730  0.00  0.00    -0.439 OA
ATOM     12  H   UNL     1       4.302  -2.274  -1.523  0.00  0.00    +0.169 HD
ENDROOT
BRANCH   1  17
ATOM     13  C   UNL     1       0.715  -0.469  -1.259  0.00  0.00    -0.043 A 
ATOM     14  C   UNL     1       0.246  -0.120  -2.513  0.00  0.00    +0.004 A 
ATOM     15  C   UNL     1       0.897  -0.564  -3.651  0.00  0.00    +0.002 A 
ATOM     16  C   UNL     1       2.019  -1.359  -3.541  0.00  0.00    +0.026 A 
ATOM     17  C   UNL     1       2.498  -1.715  -2.278  0.00  0.00    +0.042 A 
ATOM     18  C   UNL     1       1.839  -1.258  -1.134  0.00  0.00    +0.029 A 
BRANCH  13  20
ATOM     19  C   UNL     1      -0.007   1.550  -0.013  0.00  0.00    +0.012 C 
ATOM     20  C   UNL     1      -0.001   0.020  -0.026  0.00  0.00    +0.013 C 
ATOM     21  C   UNL     1      -1.441  -0.496  -0.035  0.00  0.00    +0.012 C 
ENDBRANCH  13  20
ENDBRANCH   1  17
BRANCH   3  22
ATOM     22  C   UNL     1       6.279  -3.762  -2.550  0.00  0.00    +0.250 C 
ATOM     23  O   UNL     1       6.328  -2.605  -2.180  0.00  0.00    -0.270 OA
ATOM     24  N   UNL     1       7.409  -4.490  -2.639  0.00  0.00    -0.304 N 
ATOM     25  H   UNL     1       7.380  -5.388  -3.005  0.00  0.00    +0.149 HD
BRANCH  24  26
ATOM     26  C   UNL     1       8.682  -3.925  -2.184  0.00  0.00    +0.179 C 
BRANCH  26  27
ATOM     27  C   UNL     1       9.782  -4.934  -2.391  0.00  0.00    +0.122 A 
ATOM     28  C   UNL     1      10.539  -5.057  -3.496  0.00  0.00    +0.046 A 
ATOM     29  C   UNL     1      11.438  -6.122  -3.261  0.00  0.00    +0.041 A 
ATOM     30  C   UNL     1      11.177  -6.587  -2.026  0.00  0.00    +0.195 A 
ATOM     31  O   UNL     1      10.177  -5.859  -1.502  0.00  0.00    -0.466 OA
ENDBRANCH  26  27
ENDBRANCH  24  26
ENDBRANCH   3  22
TORSDOF 5
