REMARK  Name = ZINC64726075
REMARK  10 active torsions:
REMARK  status: ('A' for Active; 'I' for Inactive)
REMARK    1  A    between atoms: C_1  and  C_2
REMARK    2  A    between atoms: C_2  and  C_4
REMARK    3  A    between atoms: C_2  and  N_17
REMARK    4  A    between atoms: N_6  and  C_7
REMARK    5  A    between atoms: N_17  and  C_18
REMARK    6  A    between atoms: C_18  and  C_19
REMARK    7  A    between atoms: C_19  and  C_21
REMARK    8  A    between atoms: C_19  and  C_29
REMARK    9  A    between atoms: C_24  and  O_27
REMARK   10  A    between atoms: O_27  and  C_28
REMARK                            x       y       z     vdW  Elec       q    Type
REMARK                         _______ _______ _______ _____ _____    ______ ____
ROOT
ATOM      1  C   UNL     1       2.119  -0.072   1.127  0.00  0.00    -0.069 C 
ENDROOT
BRANCH   1   2
ATOM      2  N   UNL     1       0.712  -0.488   1.193  0.00  0.00    +0.387 N 
ATOM      3  H   UNL     1       0.286  -0.103   2.023  0.00  0.00    -0.085 HD
ATOM      4  H   UNL     1       0.660  -1.495   1.225  0.00  0.00    -0.085 HD
BRANCH   2   6
ATOM      5  C   UNL     1      -0.029   1.531   0.022  0.00  0.00    -0.004 C 
ATOM      6  C   UNL     1       0.000   0.002   0.005  0.00  0.00    +0.013 C 
BRANCH   6   7
ATOM      7  C   UNL     1      -1.411  -0.527   0.012  0.00  0.00    +0.203 C 
ATOM      8  O   UNL     1      -1.787  -1.242   0.917  0.00  0.00    -0.277 OA
ATOM      9  N   UNL     1      -2.256  -0.206  -0.988  0.00  0.00    -0.287 N 
ATOM     10  H   UNL     1      -1.977   0.418  -1.677  0.00  0.00    +0.155 HD
BRANCH   9  11
ATOM     11  C   UNL     1      -3.535  -0.774  -1.034  0.00  0.00    +0.037 A 
ATOM     12  C   UNL     1      -4.114  -1.085  -2.257  0.00  0.00    +0.027 A 
ATOM     13  C   UNL     1      -5.376  -1.644  -2.303  0.00  0.00    +0.051 A 
ATOM     14  C   UNL     1      -6.069  -1.898  -1.128  0.00  0.00    +0.162 A 
ATOM     15  C   UNL     1      -5.491  -1.590   0.098  0.00  0.00    +0.164 A 
ATOM     16  C   UNL     1      -4.223  -1.032   0.143  0.00  0.00    +0.072 A 
ATOM     17  O   UNL     1      -6.152  -1.839   1.262  0.00  0.00    -0.485 OA
ATOM     18  C   UNL     1      -7.564  -2.057   1.166  0.00  0.00    +0.270 C 
ATOM     19  C   UNL     1      -7.823  -3.032   0.010  0.00  0.00    +0.270 C 
ATOM     20  O   UNL     1      -7.314  -2.446  -1.193  0.00  0.00    -0.485 OA
ENDBRANCH   9  11
ENDBRANCH   6   7
ENDBRANCH   2   6
ENDBRANCH   1   2
BRANCH   1  21
ATOM     21  C   UNL     1       2.861  -0.582   2.364  0.00  0.00    +0.030 C 
BRANCH  21  22
ATOM     22  C   UNL     1       2.889  -2.089   2.348  0.00  0.00    -0.036 C 
ATOM     23  C   UNL     1       2.367  -2.922   3.276  0.00  0.00    -0.001 A 
ATOM     24  C   UNL     1       1.646  -2.685   4.532  0.00  0.00    +0.010 A 
ATOM     25  C   UNL     1       1.239  -3.746   5.266  0.00  0.00    +0.001 A 
ATOM     26  C   UNL     1       1.489  -5.063   4.858  0.00  0.00    +0.002 A 
ATOM     27  C   UNL     1       2.145  -5.361   3.717  0.00  0.00    +0.026 A 
ATOM     28  C   UNL     1       2.618  -4.323   2.867  0.00  0.00    +0.043 A 
ATOM     29  N   UNL     1       3.269  -4.354   1.730  0.00  0.00    -0.380 N 
ATOM     30  C   UNL     1       3.500  -2.975   1.286  0.00  0.00    +0.145 C 
ATOM     31  H   UNL     1       3.548  -5.155   1.259  0.00  0.00    +0.160 HD
ENDBRANCH  21  22
BRANCH  21  32
ATOM     32  C   UNL     1       4.272  -0.053   2.358  0.00  0.00    -0.042 A 
ATOM     33  C   UNL     1       5.117  -0.356   1.307  0.00  0.00    +0.008 A 
ATOM     34  C   UNL     1       6.412   0.127   1.299  0.00  0.00    +0.046 A 
ATOM     35  C   UNL     1       6.862   0.917   2.347  0.00  0.00    +0.120 A 
ATOM     36  C   UNL     1       6.012   1.220   3.400  0.00  0.00    +0.046 A 
ATOM     37  C   UNL     1       4.717   0.738   3.401  0.00  0.00    +0.008 A 
BRANCH  35  38
ATOM     38  O   UNL     1       8.135   1.393   2.341  0.00  0.00    -0.495 OA
ATOM     39  C   UNL     1       8.531   2.200   3.453  0.00  0.00    +0.277 C 
ENDBRANCH  35  38
ENDBRANCH  21  32
ENDBRANCH   1  21
TORSDOF 8
