REMARK  Name = ZINC09384601
REMARK  10 active torsions:
REMARK  status: ('A' for Active; 'I' for Inactive)
REMARK    1  A    between atoms: C_1  and  C_2
REMARK    2  A    between atoms: C_2  and  S_3
REMARK    3  A    between atoms: S_3  and  C_6
REMARK    4  A    between atoms: C_9  and  C_12
REMARK    5  A    between atoms: C_12  and  N_14
REMARK    6  A    between atoms: N_16  and  C_28
REMARK    7  A    between atoms: C_19  and  O_26
REMARK    8  A    between atoms: C_20  and  O_24
REMARK    9  A    between atoms: O_24  and  C_25
REMARK   10  A    between atoms: O_26  and  C_27
REMARK                            x       y       z     vdW  Elec       q    Type
REMARK                         _______ _______ _______ _____ _____    ______ ____
ROOT
ATOM      1  N   UNL     1       3.151   5.291   0.411  0.00  0.00    -0.152 NA
ATOM      2  C   UNL     1       2.728   4.051   0.184  0.00  0.00    +0.166 A 
ATOM      3  N   UNL     1       1.463   3.627  -0.081  0.00  0.00    -0.324 N 
ATOM      4  C   UNL     1       1.213   2.283  -0.292  0.00  0.00    +0.061 A 
ATOM      5  C   UNL     1      -0.014   1.661  -0.577  0.00  0.00    +0.076 A 
ATOM      6  C   UNL     1      -0.088   0.298  -0.760  0.00  0.00    +0.164 A 
ATOM      7  C   UNL     1       1.049  -0.503  -0.670  0.00  0.00    +0.163 A 
ATOM      8  C   UNL     1       2.271   0.091  -0.390  0.00  0.00    +0.066 A 
ATOM      9  C   UNL     1       2.339   1.452  -0.207  0.00  0.00    +0.043 A 
ATOM     10  S   UNL     1       3.655   2.587   0.157  0.00  0.00    -0.052 S 
ATOM     11  C   UNL     1       0.365   4.595  -0.144  0.00  0.00    +0.151 C 
ENDROOT
BRANCH   1  12
ATOM     12  C   UNL     1       2.268   6.286   0.535  0.00  0.00    +0.269 C 
ATOM     13  O   UNL     1       1.486   6.295   1.470  0.00  0.00    -0.268 OA
BRANCH  12  17
ATOM     14  C   UNL     1       2.185   9.423  -2.332  0.00  0.00    +0.088 A 
ATOM     15  C   UNL     1       1.297   9.435  -1.271  0.00  0.00    +0.027 A 
ATOM     16  C   UNL     1       1.318   8.420  -0.337  0.00  0.00    +0.015 A 
ATOM     17  C   UNL     1       2.239   7.380  -0.464  0.00  0.00    +0.039 A 
ATOM     18  C   UNL     1       3.136   7.376  -1.532  0.00  0.00    +0.015 A 
ATOM     19  C   UNL     1       3.100   8.394  -2.463  0.00  0.00    +0.027 A 
BRANCH  14  20
ATOM     20  S   UNL     1       2.151  10.723  -3.520  0.00  0.00    -0.003 S 
ATOM     21  O   UNL     1       2.674  10.143  -4.707  0.00  0.00    -0.169 OA
ATOM     22  O   UNL     1       0.818  11.215  -3.481  0.00  0.00    -0.169 OA
BRANCH  20  24
ATOM     23  C   UNL     1       3.349  13.162  -3.839  0.00  0.00    +0.028 C 
ATOM     24  C   UNL     1       3.298  11.973  -2.877  0.00  0.00    +0.168 C 
ENDBRANCH  20  24
ENDBRANCH  14  20
ENDBRANCH  12  17
ENDBRANCH   1  12
BRANCH   7  25
ATOM     25  O   UNL     1       0.962  -1.848  -0.853  0.00  0.00    -0.491 OA
ATOM     26  C   UNL     1       2.174  -2.598  -0.744  0.00  0.00    +0.277 C 
ENDBRANCH   7  25
BRANCH   6  27
ATOM     27  O   UNL     1      -1.290  -0.276  -1.036  0.00  0.00    -0.491 OA
ATOM     28  C   UNL     1      -2.421   0.594  -1.117  0.00  0.00    +0.277 C 
ENDBRANCH   6  27
TORSDOF 6
