REMARK  Name = ZINC08876840
REMARK  5 active torsions:
REMARK  status: ('A' for Active; 'I' for Inactive)
REMARK    1  A    between atoms: C_4  and  O_28
REMARK    2  A    between atoms: C_5  and  C_7
REMARK    3  A    between atoms: C_7  and  C_8
REMARK    4  A    between atoms: C_8  and  C_9
REMARK    5  A    between atoms: C_14  and  N_17
REMARK                            x       y       z     vdW  Elec       q    Type
REMARK                         _______ _______ _______ _____ _____    ______ ____
ROOT
ATOM      1  C   UNL     1      -5.137   5.619   0.104  0.00  0.00    +0.216 C 
ATOM      2  O   UNL     1      -5.715   5.850  -0.938  0.00  0.00    -0.276 OA
ATOM      3  N   UNL     1      -3.886   5.120   0.084  0.00  0.00    -0.301 N 
ATOM      4  C   UNL     1      -3.208   4.849  -1.192  0.00  0.00    +0.110 C 
ATOM      5  C   UNL     1      -2.720   3.397  -1.192  0.00  0.00    +0.044 C 
ATOM      6  C   UNL     1      -1.852   3.155   0.045  0.00  0.00    +0.095 C 
ATOM      7  C   UNL     1      -2.685   3.383   1.308  0.00  0.00    +0.044 C 
ATOM      8  C   UNL     1      -3.173   4.835   1.337  0.00  0.00    +0.110 C 
ENDROOT
BRANCH   6   9
ATOM      9  N   UNL     1      -1.355   1.776   0.030  0.00  0.00    -0.289 N 
ATOM     10  C   UNL     1      -0.017   1.392   0.010  0.00  0.00    +0.070 A 
ATOM     11  C   UNL     1       1.176   2.099   0.002  0.00  0.00    +0.028 A 
ATOM     12  C   UNL     1       2.378   1.419  -0.012  0.00  0.00    +0.002 A 
ATOM     13  C   UNL     1       2.397   0.035  -0.020  0.00  0.00    +0.002 A 
ATOM     14  C   UNL     1       1.214  -0.678  -0.013  0.00  0.00    +0.028 A 
ATOM     15  C   UNL     1       0.002  -0.004   0.002  0.00  0.00    +0.067 A 
ATOM     16  N   UNL     1      -1.326  -0.425   0.012  0.00  0.00    -0.306 N 
ATOM     17  H   UNL     1      -1.629  -1.346   0.011  0.00  0.00    +0.170 HD
ATOM     18  C   UNL     1      -2.116   0.665   0.026  0.00  0.00    +0.328 A 
ATOM     19  O   UNL     1      -3.333   0.649   0.037  0.00  0.00    -0.247 OA
ENDBRANCH   6   9
BRANCH   1  20
ATOM     20  C   UNL     1      -5.819   5.891   1.420  0.00  0.00    +0.101 C 
BRANCH  20  21
ATOM     21  C   UNL     1      -7.220   6.450   1.163  0.00  0.00    +0.048 C 
BRANCH  21  26
ATOM     22  C   UNL     1      -9.368   6.023   4.238  0.00  0.00    +0.000 A 
ATOM     23  C   UNL     1      -9.155   7.221   4.896  0.00  0.00    +0.004 A 
ATOM     24  C   UNL     1      -8.317   8.172   4.348  0.00  0.00    +0.045 A 
ATOM     25  C   UNL     1      -7.687   7.925   3.136  0.00  0.00    +0.120 A 
ATOM     26  C   UNL     1      -7.902   6.722   2.479  0.00  0.00    -0.005 A 
ATOM     27  C   UNL     1      -8.746   5.777   3.029  0.00  0.00    +0.007 A 
BRANCH  25  28
ATOM     28  O   UNL     1      -6.862   8.859   2.595  0.00  0.00    -0.506 OA
ATOM     29  H   UNL     1      -7.309   9.486   2.010  0.00  0.00    +0.292 HD
ENDBRANCH  25  28
ENDBRANCH  21  26
ENDBRANCH  20  21
ENDBRANCH   1  20
TORSDOF 5
