REMARK  Name = ZINC12381365
REMARK  5 active torsions:
REMARK  status: ('A' for Active; 'I' for Inactive)
REMARK    1  A    between atoms: C_1  and  C_2
REMARK    2  A    between atoms: C_2  and  C_3
REMARK    3  A    between atoms: C_2  and  C_4
REMARK    4  A    between atoms: C_2  and  C_5
REMARK    5  A    between atoms: C_8  and  N_52
REMARK                            x       y       z     vdW  Elec       q    Type
REMARK                         _______ _______ _______ _____ _____    ______ ____
ROOT
ATOM      1  C   UNL     1       0.624   5.100  -1.255  0.00  0.00    -0.059 C 
ATOM      2  C   UNL     1       2.072   5.590  -1.185  0.00  0.00    +0.089 C 
ATOM      3  N   UNL     1       2.828   5.040  -2.319  0.00  0.00    -0.303 N 
ATOM      4  C   UNL     1       2.809   3.571  -2.298  0.00  0.00    +0.089 C 
ATOM      5  C   UNL     1       1.360   3.081  -2.368  0.00  0.00    -0.059 C 
ATOM      6  C   UNL     1       4.126   5.519  -2.329  0.00  0.00    +0.218 A 
ATOM      7  N   UNL     1       5.133   4.658  -2.313  0.00  0.00    -0.223 NA
ATOM      8  C   UNL     1       6.386   5.083  -2.327  0.00  0.00    +0.116 A 
ATOM      9  C   UNL     1       6.638   6.446  -2.348  0.00  0.00    +0.039 A 
ATOM     10  C   UNL     1       5.561   7.318  -2.357  0.00  0.00    +0.116 A 
ATOM     11  N   UNL     1       4.333   6.828  -2.348  0.00  0.00    -0.223 NA
ATOM     12  N   UNL     1       0.618   3.623  -1.210  0.00  0.00    +0.384 N 
ATOM     13  H   UNL     1       1.076   3.313  -0.345  0.00  0.00    -0.081 HD
ENDROOT
BRANCH  12  17
ATOM     14  C   UNL     1      -0.776   1.708   1.342  0.00  0.00    -0.006 C 
ATOM     15  C   UNL     1      -0.036   1.152   0.124  0.00  0.00    +0.002 C 
ATOM     16  C   UNL     1      -0.753   1.594  -1.153  0.00  0.00    -0.015 C 
ATOM     17  C   UNL     1      -0.773   3.123  -1.223  0.00  0.00    -0.068 C 
ATOM     18  C   UNL     1      -1.513   3.679  -0.005  0.00  0.00    -0.015 C 
ATOM     19  C   UNL     1      -0.796   3.236   1.273  0.00  0.00    +0.002 C 
BRANCH  14  21
ATOM     20  C   UNL     1       1.376   1.795   2.609  0.00  0.00    +0.011 C 
ATOM     21  C   UNL     1      -0.059   1.265   2.620  0.00  0.00    -0.035 C 
ATOM     22  C   UNL     1      -0.799   1.821   3.838  0.00  0.00    +0.011 C 
ATOM     23  C   UNL     1      -0.038  -0.263   2.689  0.00  0.00    +0.011 C 
ENDBRANCH  14  21
ENDBRANCH  12  17
TORSDOF 2
