REMARK  Name = ZINC04479199
REMARK  8 active torsions:
REMARK  status: ('A' for Active; 'I' for Inactive)
REMARK    1  A    between atoms: C_1  and  C_2
REMARK    2  A    between atoms: C_6  and  N_9
REMARK    3  A    between atoms: C_7  and  C_8
REMARK    4  A    between atoms: N_16  and  C_19
REMARK    5  A    between atoms: C_19  and  C_20
REMARK    6  A    between atoms: N_22  and  C_23
REMARK    7  A    between atoms: C_26  and  O_29
REMARK    8  A    between atoms: O_29  and  C_30
REMARK                            x       y       z     vdW  Elec       q    Type
REMARK                         _______ _______ _______ _____ _____    ______ ____
ROOT
ATOM      1  N   UNL     1       3.382   1.865   0.018  0.00  0.00    -0.214 N 
ATOM      2  C   UNL     1       4.630   1.327   0.102  0.00  0.00    +0.170 A 
ATOM      3  C   UNL     1       5.530   2.405   0.115  0.00  0.00    +0.103 A 
ATOM      4  C   UNL     1       4.769   3.586   0.037  0.00  0.00    +0.150 A 
ATOM      5  N   UNL     1       3.507   3.260  -0.026  0.00  0.00    -0.172 NA
ATOM      6  C   UNL     1       6.960   2.107   0.201  0.00  0.00    +0.265 A 
ATOM      7  O   UNL     1       7.791   2.997   0.217  0.00  0.00    -0.267 OA
ATOM      8  N   UNL     1       7.324   0.805   0.262  0.00  0.00    -0.290 N 
ATOM      9  C   UNL     1       6.382  -0.172   0.243  0.00  0.00    +0.204 A 
ATOM     10  N   UNL     1       5.107   0.075   0.167  0.00  0.00    -0.217 NA
ENDROOT
BRANCH   1  16
ATOM     11  C   UNL     1      -1.015   1.087  -2.041  0.00  0.00    +0.044 C 
ATOM     12  C   UNL     1       0.030   0.752  -1.010  0.00  0.00    -0.046 A 
ATOM     13  C   UNL     1      -0.194  -0.271  -0.106  0.00  0.00    +0.004 A 
ATOM     14  C   UNL     1       0.765  -0.586   0.839  0.00  0.00    +0.002 A 
ATOM     15  C   UNL     1       1.952   0.121   0.882  0.00  0.00    +0.028 A 
ATOM     16  C   UNL     1       2.180   1.147  -0.024  0.00  0.00    +0.071 A 
ATOM     17  C   UNL     1       1.214   1.462  -0.971  0.00  0.00    -0.022 A 
ATOM     18  C   UNL     1       1.458   2.576  -1.956  0.00  0.00    +0.046 C 
ENDBRANCH   1  16
BRANCH   8  19
ATOM     19  C   UNL     1       8.742   0.448   0.349  0.00  0.00    +0.222 C 
BRANCH  19  20
ATOM     20  C   UNL     1       9.154   0.371   1.797  0.00  0.00    +0.237 C 
ATOM     21  O   UNL     1       8.342   0.592   2.670  0.00  0.00    -0.274 OA
ATOM     22  N   UNL     1      10.423   0.056   2.121  0.00  0.00    -0.284 N 
ATOM     23  H   UNL     1      11.090  -0.050   1.424  0.00  0.00    +0.155 HD
BRANCH  22  24
ATOM     24  C   UNL     1      10.780  -0.119   3.464  0.00  0.00    +0.034 A 
ATOM     25  C   UNL     1      12.053   0.231   3.896  0.00  0.00    +0.027 A 
ATOM     26  C   UNL     1      12.402   0.062   5.221  0.00  0.00    +0.047 A 
ATOM     27  C   UNL     1      11.486  -0.467   6.119  0.00  0.00    +0.120 A 
ATOM     28  C   UNL     1      10.217  -0.821   5.687  0.00  0.00    +0.047 A 
ATOM     29  C   UNL     1       9.864  -0.648   4.363  0.00  0.00    +0.027 A 
BRANCH  27  30
ATOM     30  O   UNL     1      11.833  -0.637   7.423  0.00  0.00    -0.495 OA
ATOM     31  C   UNL     1      13.157  -0.251   7.798  0.00  0.00    +0.277 C 
ENDBRANCH  27  30
ENDBRANCH  22  24
ENDBRANCH  19  20
ENDBRANCH   8  19
TORSDOF 5
