REMARK  Name = ZINC40852977
REMARK  10 active torsions:
REMARK  status: ('A' for Active; 'I' for Inactive)
REMARK    1  A    between atoms: C_1  and  C_2
REMARK    2  A    between atoms: C_2  and  C_3
REMARK    3  A    between atoms: C_2  and  C_4
REMARK    4  A    between atoms: C_2  and  C_5
REMARK    5  A    between atoms: C_8  and  O_11
REMARK    6  A    between atoms: O_11  and  C_12
REMARK    7  A    between atoms: C_12  and  C_13
REMARK    8  A    between atoms: N_15  and  N_16
REMARK    9  A    between atoms: C_17  and  C_18
REMARK   10  A    between atoms: C_22  and  N_25
REMARK                            x       y       z     vdW  Elec       q    Type
REMARK                         _______ _______ _______ _____ _____    ______ ____
ROOT
ATOM      1  C   UNL     1       4.536  -2.000  -6.087  0.00  0.00    +0.270 C 
ATOM      2  O   UNL     1       3.822  -2.685  -6.788  0.00  0.00    -0.270 OA
ATOM      3  N   UNL     1       5.809  -1.755  -6.457  0.00  0.00    -0.204 N 
ATOM      4  H   UNL     1       6.380  -1.207  -5.896  0.00  0.00    +0.177 HD
ENDROOT
BRANCH   3   5
ATOM      5  N   UNL     1       6.306  -2.291  -7.651  0.00  0.00    -0.188 NA
ATOM      6  C   UNL     1       7.532  -2.055  -8.008  0.00  0.00    +0.142 C 
BRANCH   6   7
ATOM      7  C   UNL     1       8.056  -2.619  -9.264  0.00  0.00    +0.045 A 
ATOM      8  C   UNL     1       9.376  -2.372  -9.649  0.00  0.00    +0.028 A 
ATOM      9  C   UNL     1       9.860  -2.903 -10.826  0.00  0.00    +0.021 A 
ATOM     10  C   UNL     1       9.041  -3.681 -11.630  0.00  0.00    +0.052 A 
ATOM     11  C   UNL     1       7.734  -3.932 -11.260  0.00  0.00    +0.174 A 
ATOM     12  C   UNL     1       7.234  -3.411 -10.078  0.00  0.00    +0.218 A 
ATOM     13  O   UNL     1       5.951  -3.663  -9.710  0.00  0.00    -0.285 OA
ATOM     14 BR   UNL     1      11.646  -2.568 -11.347  0.00  0.00    -0.050 Br
BRANCH  11  15
ATOM     15  N   UNL     1       6.868  -4.764 -12.125  0.00  0.00    +0.060 N 
ATOM     16  O   UNL     1       7.304  -5.223 -13.155  0.00  0.00    -0.126 OA
ATOM     17  O   UNL     1       5.724  -4.984 -11.803  0.00  0.00    -0.126 OA
ENDBRANCH  11  15
ENDBRANCH   6   7
ENDBRANCH   3   5
BRANCH   1  18
ATOM     18  C   UNL     1       4.000  -1.423  -4.801  0.00  0.00    +0.326 C 
BRANCH  18  19
ATOM     19  O   UNL     1       2.639  -1.822  -4.631  0.00  0.00    -0.483 OA
BRANCH  19  23
ATOM     20  C   UNL     1       0.707  -0.490  -1.238  0.00  0.00    -0.042 A 
ATOM     21  C   UNL     1       0.035  -1.284  -2.148  0.00  0.00    +0.008 A 
ATOM     22  C   UNL     1       0.679  -1.732  -3.285  0.00  0.00    +0.046 A 
ATOM     23  C   UNL     1       2.002  -1.383  -3.514  0.00  0.00    +0.121 A 
ATOM     24  C   UNL     1       2.675  -0.585  -2.599  0.00  0.00    +0.046 A 
ATOM     25  C   UNL     1       2.024  -0.136  -1.466  0.00  0.00    +0.008 A 
BRANCH  20  27
ATOM     26  C   UNL     1      -0.019   1.526   0.010  0.00  0.00    +0.015 C 
ATOM     27  C   UNL     1       0.002  -0.004   0.002  0.00  0.00    -0.013 C 
ATOM     28  C   UNL     1       0.742  -0.511   1.242  0.00  0.00    +0.015 C 
ATOM     29  C   UNL     1      -1.433  -0.534   0.013  0.00  0.00    +0.015 C 
ENDBRANCH  20  27
ENDBRANCH  19  23
ENDBRANCH  18  19
ENDBRANCH   1  18
TORSDOF 7
