REMARK  Name = ZINC05088129
REMARK  6 active torsions:
REMARK  status: ('A' for Active; 'I' for Inactive)
REMARK    1  A    between atoms: C_1  and  C_2
REMARK    2  A    between atoms: C_2  and  C_3
REMARK    3  A    between atoms: C_3  and  N_4
REMARK    4  A    between atoms: C_8  and  C_10
REMARK    5  A    between atoms: C_10  and  N_11
REMARK    6  A    between atoms: C_13  and  C_16
REMARK                            x       y       z     vdW  Elec       q    Type
REMARK                         _______ _______ _______ _____ _____    ______ ____
ROOT
ATOM      1  C   UNL     1       1.943  -6.138  -3.321  0.00  0.00    +0.264 C 
ENDROOT
BRANCH   1   6
ATOM      2  N   UNL     1       0.738  -1.962  -1.265  0.00  0.00    -0.299 N 
ATOM      3  C   UNL     1       1.321  -2.623  -2.285  0.00  0.00    +0.306 C 
ATOM      4  O   UNL     1       1.830  -2.003  -3.198  0.00  0.00    -0.252 OA
ATOM      5  N   UNL     1       1.339  -3.970  -2.292  0.00  0.00    -0.239 N 
ATOM      6  C   UNL     1       1.922  -4.631  -3.312  0.00  0.00    +0.244 C 
ATOM      7  O   UNL     1       2.430  -4.013  -4.223  0.00  0.00    -0.273 OA
ATOM      8  H   UNL     1       0.332  -2.457  -0.536  0.00  0.00    +0.150 HD
ATOM      9  H   UNL     1       0.933  -4.465  -1.563  0.00  0.00    +0.159 HD
BRANCH   2  10
ATOM     10  C   UNL     1       0.718  -0.497  -1.257  0.00  0.00    +0.105 C 
BRANCH  10  12
ATOM     11  C   UNL     1      -0.019   1.526   0.010  0.00  0.00    +0.005 C 
ATOM     12  C   UNL     1       0.002  -0.004   0.002  0.00  0.00    +0.015 C 
ENDBRANCH  10  12
ENDBRANCH   2  10
ENDBRANCH   1   6
BRANCH   1  13
ATOM     13  N   UNL     1       2.628  -6.610  -4.526  0.00  0.00    -0.154 N 
ATOM     14  N   UNL     1       2.063  -6.855  -5.658  0.00  0.00    -0.130 NA
ATOM     15  C   UNL     1       2.997  -7.258  -6.496  0.00  0.00    +0.205 A 
ATOM     16  N   UNL     1       4.153  -7.245  -5.819  0.00  0.00    -0.108 NA
ATOM     17  N   UNL     1       3.891  -6.840  -4.622  0.00  0.00    -0.045 NA
BRANCH  15  18
ATOM     18  C   UNL     1       2.805  -7.651  -7.915  0.00  0.00    +0.023 A 
ATOM     19  C   UNL     1       1.535  -7.608  -8.486  0.00  0.00    +0.013 A 
ATOM     20  C   UNL     1       1.361  -7.973  -9.806  0.00  0.00    +0.016 A 
ATOM     21  C   UNL     1       2.446  -8.383 -10.561  0.00  0.00    +0.018 A 
ATOM     22  C   UNL     1       3.710  -8.428  -9.998  0.00  0.00    +0.016 A 
ATOM     23  C   UNL     1       3.895  -8.058  -8.681  0.00  0.00    +0.013 A 
ATOM     24 BR   UNL     1       2.202  -8.883 -12.368  0.00  0.00    -0.050 Br
ENDBRANCH  15  18
ENDBRANCH   1  13
TORSDOF 5
