REMARK  Name = ZINC39466494
REMARK  6 active torsions:
REMARK  status: ('A' for Active; 'I' for Inactive)
REMARK    1  A    between atoms: C_1  and  C_2
REMARK    2  A    between atoms: C_5  and  N_8
REMARK    3  A    between atoms: C_12  and  C_27
REMARK    4  A    between atoms: C_12  and  C_28
REMARK    5  A    between atoms: C_14  and  N_19
REMARK    6  A    between atoms: C_20  and  C_22
REMARK                            x       y       z     vdW  Elec       q    Type
REMARK                         _______ _______ _______ _____ _____    ______ ____
ROOT
ATOM      1  N   UNL     1       0.201  -4.684  -0.591  0.00  0.00    -0.246 N 
ATOM      2  C   UNL     1       0.312  -5.320   0.726  0.00  0.00    +0.124 C 
ATOM      3  C   UNL     1      -0.657  -4.702   1.737  0.00  0.00    +0.035 C 
ATOM      4  C   UNL     1      -0.726  -5.613   2.967  0.00  0.00    -0.031 C 
ATOM      5  C   UNL     1      -1.340  -6.966   2.613  0.00  0.00    +0.033 C 
ATOM      6  C   UNL     1      -0.436  -7.708   1.615  0.00  0.00    +0.103 C 
ATOM      7  C   UNL     1      -0.136  -6.753   0.480  0.00  0.00    -0.013 C 
ATOM      8  C   UNL     1      -0.283  -6.910  -0.807  0.00  0.00    +0.091 C 
ATOM      9  N   UNL     1      -0.046  -5.731  -1.494  0.00  0.00    -0.271 N 
ATOM     10  C   UNL     1      -1.580  -4.940   4.043  0.00  0.00    +0.011 C 
ATOM     11  C   UNL     1       0.687  -5.829   3.511  0.00  0.00    +0.011 C 
ATOM     12  H   UNL     1      -0.047  -5.643  -2.460  0.00  0.00    +0.169 HD
ENDROOT
BRANCH   1  17
ATOM     13  C   UNL     1       0.649   0.843  -1.780  0.00  0.00    +0.044 C 
ATOM     14  C   UNL     1       0.530  -0.626  -1.464  0.00  0.00    -0.050 A 
ATOM     15  C   UNL     1       0.124  -1.512  -2.445  0.00  0.00    +0.005 A 
ATOM     16  C   UNL     1       0.014  -2.859  -2.159  0.00  0.00    +0.025 A 
ATOM     17  C   UNL     1       0.312  -3.322  -0.884  0.00  0.00    +0.048 A 
ATOM     18  C   UNL     1       0.720  -2.430   0.099  0.00  0.00    +0.025 A 
ATOM     19  C   UNL     1       0.833  -1.085  -0.195  0.00  0.00    +0.005 A 
ENDBRANCH   1  17
BRANCH   6  20
ATOM     20  N   UNL     1       0.817  -8.098   2.267  0.00  0.00    -0.305 N 
ATOM     21  C   UNL     1       0.832  -9.129   3.135  0.00  0.00    +0.244 C 
ATOM     22  O   UNL     1      -0.194  -9.736   3.376  0.00  0.00    -0.270 OA
ATOM     23  H   UNL     1       1.635  -7.614   2.074  0.00  0.00    +0.150 HD
BRANCH  21  24
ATOM     24  C   UNL     1       2.089  -9.520   3.789  0.00  0.00    +0.057 C 
ATOM     25  C   UNL     1       2.293 -10.522   4.674  0.00  0.00    +0.145 C 
ATOM     26  N   UNL     1       3.591 -10.563   5.049  0.00  0.00    -0.162 NA
ATOM     27  N   UNL     1       4.305  -9.706   4.525  0.00  0.00    -0.183 NA
ATOM     28  C   UNL     1       3.464  -8.898   3.626  0.00  0.00    +0.208 C 
ENDBRANCH  21  24
ENDBRANCH   6  20
TORSDOF 3
