REMARK  Name = ZINC67269908
REMARK  5 active torsions:
REMARK  status: ('A' for Active; 'I' for Inactive)
REMARK    1  A    between atoms: C_1  and  C_2
REMARK    2  A    between atoms: C_2  and  C_3
REMARK    3  A    between atoms: C_3  and  C_4
REMARK    4  A    between atoms: C_7  and  N_10
REMARK    5  A    between atoms: C_11  and  C_13
REMARK                            x       y       z     vdW  Elec       q    Type
REMARK                         _______ _______ _______ _____ _____    ______ ____
ROOT
ATOM      1  C   UNL     1       3.145  -8.186  -2.197  0.00  0.00    +0.075 C 
ATOM      2  C   UNL     1       3.416  -8.700  -0.782  0.00  0.00    +0.015 C 
ATOM      3  C   UNL     1       3.424 -10.231  -0.789  0.00  0.00    +0.036 C 
ATOM      4  C   UNL     1       4.502 -10.732  -1.744  0.00  0.00    +0.112 C 
ATOM      5  C   UNL     1       4.260 -10.207  -3.155  0.00  0.00    +0.036 C 
ATOM      6  C   UNL     1       4.248  -8.676  -3.138  0.00  0.00    +0.015 C 
ATOM      7  C   UNL     1       5.872 -10.322  -1.256  0.00  0.00    +0.244 C 
ATOM      8  O   UNL     1       6.287  -9.194  -1.097  0.00  0.00    -0.273 OA
ATOM      9  N   UNL     1       6.536 -11.475  -1.033  0.00  0.00    -0.238 N 
ATOM     10  C   UNL     1       5.777 -12.542  -1.312  0.00  0.00    +0.307 C 
ATOM     11  O   UNL     1       6.155 -13.691  -1.190  0.00  0.00    -0.252 OA
ATOM     12  N   UNL     1       4.548 -12.200  -1.743  0.00  0.00    -0.285 N 
ATOM     13  H   UNL     1       7.449 -11.525  -0.711  0.00  0.00    +0.159 HD
ATOM     14  H   UNL     1       3.834 -12.803  -2.001  0.00  0.00    +0.151 HD
ENDROOT
BRANCH   1  16
ATOM     15  N   UNL     1       2.229  -6.022  -1.427  0.00  0.00    -0.312 N 
ATOM     16  C   UNL     1       3.125  -6.679  -2.189  0.00  0.00    +0.216 C 
ATOM     17  O   UNL     1       3.915  -6.058  -2.868  0.00  0.00    -0.276 OA
ATOM     18  H   UNL     1       1.597  -6.518  -0.883  0.00  0.00    +0.149 HD
BRANCH  15  22
ATOM     19  C   UNL     1       0.739  -2.027  -1.265  0.00  0.00    -0.011 C 
ATOM     20  C   UNL     1       1.584  -2.532  -0.094  0.00  0.00    +0.005 C 
ATOM     21  C   UNL     1       1.605  -4.062  -0.103  0.00  0.00    +0.022 C 
ATOM     22  C   UNL     1       2.209  -4.557  -1.419  0.00  0.00    +0.073 C 
ATOM     23  C   UNL     1       1.364  -4.052  -2.590  0.00  0.00    +0.022 C 
ATOM     24  C   UNL     1       1.343  -2.522  -2.581  0.00  0.00    +0.005 C 
BRANCH  19  25
ATOM     25  C   UNL     1       0.718  -0.497  -1.257  0.00  0.00    +0.003 C 
BRANCH  25  27
ATOM     26  C   UNL     1      -0.019   1.526   0.010  0.00  0.00    +0.004 C 
ATOM     27  C   UNL     1       0.002  -0.004   0.002  0.00  0.00    -0.003 C 
ENDBRANCH  25  27
ENDBRANCH  19  25
ENDBRANCH  15  22
ENDBRANCH   1  16
TORSDOF 4
