REMARK  Name = ZINC36048482
REMARK  14 active torsions:
REMARK  status: ('A' for Active; 'I' for Inactive)
REMARK    1  A    between atoms: C_1  and  C_2
REMARK    2  A    between atoms: C_2  and  C_3
REMARK    3  A    between atoms: C_3  and  C_5
REMARK    4  A    between atoms: C_3  and  N_28
REMARK    5  A    between atoms: C_9  and  O_26
REMARK    6  A    between atoms: C_10  and  O_24
REMARK    7  A    between atoms: N_15  and  C_16
REMARK    8  A    between atoms: C_16  and  C_17
REMARK    9  A    between atoms: O_24  and  C_25
REMARK   10  A    between atoms: O_26  and  C_27
REMARK   11  A    between atoms: N_31  and  C_32
REMARK   12  A    between atoms: C_32  and  C_33
REMARK   13  A    between atoms: C_32  and  C_34
REMARK   14  A    between atoms: C_32  and  C_35
REMARK                            x       y       z     vdW  Elec       q    Type
REMARK                         _______ _______ _______ _____ _____    ______ ____
ROOT
ATOM      1  C   UNL     1       0.784  -2.013  -0.326  0.00  0.00    -0.016 C 
ATOM      2  C   UNL     1       1.239  -1.659   1.066  0.00  0.00    -0.052 A 
ATOM      3  C   UNL     1       0.535  -0.690   1.765  0.00  0.00    +0.051 A 
ATOM      4  C   UNL     1       0.916  -0.336   3.047  0.00  0.00    +0.162 A 
ATOM      5  C   UNL     1       2.013  -0.958   3.638  0.00  0.00    +0.162 A 
ATOM      6  C   UNL     1       2.713  -1.923   2.936  0.00  0.00    +0.053 A 
ATOM      7  C   UNL     1       2.326  -2.273   1.651  0.00  0.00    -0.044 A 
ATOM      8  C   UNL     1       3.122  -3.325   0.920  0.00  0.00    +0.017 C 
ATOM      9  C   UNL     1       2.321  -3.842  -0.275  0.00  0.00    -0.073 C 
ATOM     10  N   UNL     1       1.855  -2.690  -1.062  0.00  0.00    +0.388 N 
ATOM     11  H   UNL     1       2.621  -2.050  -1.209  0.00  0.00    -0.080 HD
ENDROOT
BRANCH   5  12
ATOM     12  O   UNL     1       2.394  -0.618   4.898  0.00  0.00    -0.491 OA
ATOM     13  C   UNL     1       3.529  -1.298   5.438  0.00  0.00    +0.277 C 
ENDBRANCH   5  12
BRANCH   4  14
ATOM     14  O   UNL     1       0.222   0.615   3.728  0.00  0.00    -0.491 OA
ATOM     15  C   UNL     1      -0.892   1.209   3.058  0.00  0.00    +0.277 C 
ENDBRANCH   4  14
BRANCH   1  16
ATOM     16  C   UNL     1       0.392  -0.734  -1.069  0.00  0.00    +0.065 C 
BRANCH  16  17
ATOM     17  N   UNL     1       1.602  -0.026  -1.494  0.00  0.00    -0.298 N 
ATOM     18  C   UNL     1       1.865   1.207  -1.018  0.00  0.00    +0.300 C 
ATOM     19  O   UNL     1       1.097   1.732  -0.234  0.00  0.00    -0.253 OA
ATOM     20  N   UNL     1       2.978   1.858  -1.409  0.00  0.00    -0.295 N 
ATOM     21  H   UNL     1       2.215  -0.445  -2.119  0.00  0.00    +0.150 HD
ATOM     22  H   UNL     1       3.590   1.439  -2.034  0.00  0.00    +0.151 HD
BRANCH  20  23
ATOM     23  C   UNL     1       3.263   3.198  -0.891  0.00  0.00    +0.028 C 
ATOM     24  C   UNL     1       3.385   3.140   0.633  0.00  0.00    +0.031 C 
ATOM     25  C   UNL     1       4.576   3.707  -1.489  0.00  0.00    +0.031 C 
ATOM     26  C   UNL     1       2.126   4.146  -1.276  0.00  0.00    +0.031 C 
ENDBRANCH  20  23
ENDBRANCH  16  17
BRANCH  16  28
ATOM     27  C   UNL     1      -1.538  -0.040  -2.496  0.00  0.00    +0.005 C 
ATOM     28  C   UNL     1      -0.446  -1.094  -2.297  0.00  0.00    +0.017 C 
ENDBRANCH  16  28
ENDBRANCH   1  16
BRANCH  10  29
ATOM     29  C   UNL     1       1.344  -3.155  -2.358  0.00  0.00    -0.042 C 
BRANCH  29  30
ATOM     30  C   UNL     1       2.444  -3.860  -3.108  0.00  0.00    -0.064 A 
ATOM     31  C   UNL     1       3.276  -3.143  -3.948  0.00  0.00    +0.004 A 
ATOM     32  C   UNL     1       4.286  -3.789  -4.637  0.00  0.00    +0.038 A 
ATOM     33  C   UNL     1       4.464  -5.154  -4.485  0.00  0.00    +0.123 A 
ATOM     34  C   UNL     1       3.630  -5.870  -3.643  0.00  0.00    +0.038 A 
ATOM     35  C   UNL     1       2.625  -5.222  -2.952  0.00  0.00    +0.004 A 
ATOM     36  F   UNL     1       5.451  -5.785  -5.158  0.00  0.00    -0.205 F 
ENDBRANCH  29  30
ENDBRANCH  10  29
TORSDOF 8
