REMARK  Name = ZINC09821798
REMARK  5 active torsions:
REMARK  status: ('A' for Active; 'I' for Inactive)
REMARK    1  A    between atoms: C_1  and  C_2
REMARK    2  A    between atoms: C_12  and  C_14
REMARK    3  A    between atoms: C_14  and  C_15
REMARK    4  A    between atoms: N_20  and  S_21
REMARK    5  A    between atoms: S_21  and  C_24
REMARK                            x       y       z     vdW  Elec       q    Type
REMARK                         _______ _______ _______ _____ _____    ______ ____
ROOT
ATOM      1  C   UNL     1       7.766   5.082  -0.046  0.00  0.00    +0.059 A 
ATOM      2  C   UNL     1       8.454   5.760   0.904  0.00  0.00    +0.072 A 
ATOM      3  S   UNL     1       8.125   7.446   0.415  0.00  0.00    -0.059 S 
ATOM      4  C   UNL     1       7.134   7.092  -0.966  0.00  0.00    +0.178 A 
ATOM      5  N   UNL     1       7.122   5.772  -0.969  0.00  0.00    -0.228 NA
ATOM      6  N   UNL     1       6.518   7.970  -1.844  0.00  0.00    -0.194 N 
ATOM      7  H   UNL     1       5.987   7.627  -2.580  0.00  0.00    +0.176 HD
ENDROOT
BRANCH   6   8
ATOM      8  S   UNL     1       6.687   9.604  -1.637  0.00  0.00    +0.074 S 
ATOM      9  O   UNL     1       5.971  10.224  -2.696  0.00  0.00    -0.150 OA
ATOM     10  O   UNL     1       6.407   9.871  -0.269  0.00  0.00    -0.150 OA
BRANCH   8  11
ATOM     11  C   UNL     1       8.389   9.987  -1.887  0.00  0.00    +0.109 A 
ATOM     12  C   UNL     1       9.265   9.973  -0.818  0.00  0.00    +0.029 A 
ATOM     13  C   UNL     1      10.601  10.268  -1.015  0.00  0.00    +0.002 A 
ATOM     14  C   UNL     1      11.059  10.588  -2.279  0.00  0.00    +0.000 A 
ATOM     15  C   UNL     1      10.181  10.608  -3.347  0.00  0.00    +0.002 A 
ATOM     16  C   UNL     1       8.847  10.307  -3.151  0.00  0.00    +0.029 A 
ENDBRANCH   8  11
ENDBRANCH   6   8
BRANCH   1  17
ATOM     17  C   UNL     1       7.742   3.576  -0.053  0.00  0.00    +0.152 C 
BRANCH  17  29
ATOM     18  C   UNL     1      -1.288  -0.783   0.011  0.00  0.00    +0.044 C 
ATOM     19  C   UNL     1       0.002  -0.004   0.002  0.00  0.00    -0.049 A 
ATOM     20  C   UNL     1      -0.017   1.383   0.010  0.00  0.00    +0.005 A 
ATOM     21  C   UNL     1       1.142   2.115   0.003  0.00  0.00    +0.029 A 
ATOM     22  C   UNL     1       2.402   1.474  -0.013  0.00  0.00    +0.080 A 
ATOM     23  C   UNL     1       2.382   0.060  -0.020  0.00  0.00    +0.041 A 
ATOM     24  C   UNL     1       1.217  -0.665  -0.013  0.00  0.00    +0.020 A 
ATOM     25  S   UNL     1       4.113  -0.342  -0.039  0.00  0.00    -0.052 S 
ATOM     26  C   UNL     1       4.733   1.335  -0.036  0.00  0.00    +0.165 A 
ATOM     27  N   UNL     1       3.627   2.042  -0.021  0.00  0.00    -0.225 NA
ATOM     28  N   UNL     1       6.046   1.775  -0.046  0.00  0.00    -0.264 N 
ATOM     29  C   UNL     1       6.314   3.096  -0.042  0.00  0.00    +0.224 C 
ATOM     30  O   UNL     1       5.405   3.899  -0.029  0.00  0.00    -0.275 OA
ATOM     31  H   UNL     1       6.773   1.133  -0.056  0.00  0.00    +0.157 HD
ENDBRANCH  17  29
ENDBRANCH   1  17
TORSDOF 4
