REMARK  Name = ZINC09263437
REMARK  7 active torsions:
REMARK  status: ('A' for Active; 'I' for Inactive)
REMARK    1  A    between atoms: C_1  and  C_2
REMARK    2  A    between atoms: C_10  and  C_12
REMARK    3  A    between atoms: C_12  and  C_30
REMARK    4  A    between atoms: C_13  and  C_14
REMARK    5  A    between atoms: C_16  and  C_29
REMARK    6  A    between atoms: N_17  and  C_20
REMARK    7  A    between atoms: C_18  and  C_19
REMARK                            x       y       z     vdW  Elec       q    Type
REMARK                         _______ _______ _______ _____ _____    ______ ____
ROOT
ATOM      1  C   UNL     1       0.233  -8.027   2.181  0.00  0.00    -0.003 A 
ATOM      2  C   UNL     1       0.253  -8.267   3.630  0.00  0.00    +0.031 A 
ATOM      3  C   UNL     1       0.389  -9.594   3.796  0.00  0.00    +0.022 A 
ATOM      4  N   UNL     1       0.456 -10.196   2.572  0.00  0.00    -0.317 N 
ATOM      5  C   UNL     1       0.358  -9.270   1.587  0.00  0.00    +0.028 A 
ATOM      6  C   UNL     1       0.384  -9.546   0.106  0.00  0.00    +0.064 C 
ATOM      7  C   UNL     1       0.459 -10.304   5.124  0.00  0.00    +0.064 C 
ENDROOT
BRANCH   4   8
ATOM      8  C   UNL     1       0.599 -11.576   2.364  0.00  0.00    +0.050 A 
ATOM      9  C   UNL     1       1.751 -12.072   1.767  0.00  0.00    +0.030 A 
ATOM     10  C   UNL     1       1.893 -13.431   1.562  0.00  0.00    +0.051 A 
ATOM     11  C   UNL     1       0.888 -14.302   1.950  0.00  0.00    +0.166 A 
ATOM     12  C   UNL     1      -0.268 -13.807   2.548  0.00  0.00    +0.168 A 
ATOM     13  C   UNL     1      -0.408 -12.446   2.759  0.00  0.00    +0.075 A 
ATOM     14  O   UNL     1      -1.094 -14.856   2.834  0.00  0.00    -0.453 OA
ATOM     15  C   UNL     1      -0.613 -15.953   2.036  0.00  0.00    +0.466 C 
ATOM     16  O   UNL     1       0.786 -15.661   1.861  0.00  0.00    -0.453 OA
ENDBRANCH   4   8
BRANCH   1  18
ATOM     17  C   UNL     1      -0.300  -5.625   2.211  0.00  0.00    +0.095 C 
ATOM     18  C   UNL     1       0.101  -6.736   1.504  0.00  0.00    +0.032 C 
BRANCH  17  28
ATOM     19  C   UNL     1      -1.982   1.207  -0.139  0.00  0.00    +0.044 C 
ATOM     20  C   UNL     1      -1.569  -0.243  -0.118  0.00  0.00    -0.048 A 
ATOM     21  C   UNL     1      -1.246  -0.884  -1.305  0.00  0.00    +0.005 A 
ATOM     22  C   UNL     1      -0.870  -2.197  -1.308  0.00  0.00    +0.030 A 
ATOM     23  C   UNL     1      -0.808  -2.907  -0.104  0.00  0.00    +0.089 A 
ATOM     24  C   UNL     1      -1.135  -2.257   1.099  0.00  0.00    +0.067 A 
ATOM     25  C   UNL     1      -1.510  -0.921   1.082  0.00  0.00    +0.031 A 
ATOM     26  N   UNL     1      -0.983  -3.197   2.101  0.00  0.00    -0.337 N 
ATOM     27  H   UNL     1      -1.134  -3.058   3.049  0.00  0.00    +0.167 HD
ATOM     28  C   UNL     1      -0.579  -4.363   1.504  0.00  0.00    +0.150 A 
ATOM     29  N   UNL     1      -0.478  -4.184   0.207  0.00  0.00    -0.227 NA
ENDBRANCH  17  28
BRANCH  17  30
ATOM     30  C   UNL     1      -0.446  -5.696   3.634  0.00  0.00    +0.103 C 
ATOM     31  N   UNL     1      -0.562  -5.753   4.763  0.00  0.00    -0.191 NA
ENDBRANCH  17  30
ENDBRANCH   1  18
TORSDOF 4
