REMARK  Name = ZINC09635272
REMARK  8 active torsions:
REMARK  status: ('A' for Active; 'I' for Inactive)
REMARK    1  A    between atoms: C_4  and  C_7
REMARK    2  A    between atoms: C_7  and  N_8
REMARK    3  A    between atoms: N_15  and  C_26
REMARK    4  A    between atoms: N_18  and  C_19
REMARK    5  A    between atoms: C_19  and  C_20
REMARK    6  A    between atoms: C_26  and  C_27
REMARK    7  A    between atoms: N_29  and  C_30
REMARK    8  A    between atoms: C_33  and  C_36
REMARK                            x       y       z     vdW  Elec       q    Type
REMARK                         _______ _______ _______ _____ _____    ______ ____
ROOT
ATOM      1  N   UNL     1      -0.798   1.675  -0.047  0.00  0.00    -0.320 N 
ATOM      2  C   UNL     1       0.415   2.260  -0.012  0.00  0.00    +0.202 A 
ATOM      3  N   UNL     1       1.347   1.342   0.043  0.00  0.00    -0.218 NA
ATOM      4  C   UNL     1       0.787   0.130   0.046  0.00  0.00    +0.168 A 
ATOM      5  C   UNL     1      -0.589   0.311  -0.011  0.00  0.00    +0.152 A 
ATOM      6  C   UNL     1      -1.432  -0.821  -0.019  0.00  0.00    +0.283 A 
ATOM      7  O   UNL     1      -2.642  -0.688  -0.069  0.00  0.00    -0.265 OA
ATOM      8  N   UNL     1      -0.882  -2.052   0.027  0.00  0.00    -0.250 N 
ATOM      9  C   UNL     1       0.451  -2.213   0.082  0.00  0.00    +0.334 A 
ATOM     10  O   UNL     1       0.911  -3.338   0.123  0.00  0.00    -0.246 OA
ATOM     11  N   UNL     1       1.290  -1.160   0.093  0.00  0.00    -0.272 N 
ENDROOT
BRANCH   1  12
ATOM     12  C   UNL     1      -2.092   2.357  -0.117  0.00  0.00    +0.158 C 
BRANCH  12  16
ATOM     13  C   UNL     1      -3.688   2.790   3.821  0.00  0.00    +0.000 A 
ATOM     14  C   UNL     1      -2.879   3.777   3.291  0.00  0.00    +0.000 A 
ATOM     15  C   UNL     1      -2.362   3.637   2.017  0.00  0.00    +0.005 A 
ATOM     16  C   UNL     1      -2.655   2.510   1.273  0.00  0.00    -0.028 A 
ATOM     17  C   UNL     1      -3.469   1.525   1.801  0.00  0.00    +0.005 A 
ATOM     18  C   UNL     1      -3.982   1.663   3.077  0.00  0.00    +0.000 A 
ENDBRANCH  12  16
ENDBRANCH   1  12
BRANCH  11  19
ATOM     19  C   UNL     1       2.738  -1.379   0.154  0.00  0.00    +0.163 C 
BRANCH  19  20
ATOM     20  C   UNL     1       3.179  -1.424   1.594  0.00  0.00    -0.028 A 
ATOM     21  C   UNL     1       3.567  -0.262   2.235  0.00  0.00    +0.005 A 
ATOM     22  C   UNL     1       3.967  -0.303   3.557  0.00  0.00    +0.000 A 
ATOM     23  C   UNL     1       3.989  -1.507   4.236  0.00  0.00    +0.000 A 
ATOM     24  C   UNL     1       3.607  -2.670   3.594  0.00  0.00    +0.000 A 
ATOM     25  C   UNL     1       3.202  -2.628   2.272  0.00  0.00    +0.005 A 
ENDBRANCH  19  20
ENDBRANCH  11  19
BRANCH   8  26
ATOM     26  C   UNL     1      -1.751  -3.232   0.017  0.00  0.00    +0.226 C 
BRANCH  26  27
ATOM     27  C   UNL     1      -2.105  -3.607   1.433  0.00  0.00    +0.237 C 
ATOM     28  O   UNL     1      -1.673  -2.953   2.359  0.00  0.00    -0.274 OA
ATOM     29  N   UNL     1      -2.901  -4.668   1.671  0.00  0.00    -0.284 N 
ATOM     30  H   UNL     1      -3.308  -5.144   0.930  0.00  0.00    +0.155 HD
BRANCH  29  31
ATOM     31  C   UNL     1      -3.139  -5.082   2.982  0.00  0.00    +0.034 A 
ATOM     32  C   UNL     1      -2.142  -4.953   3.942  0.00  0.00    +0.024 A 
ATOM     33  C   UNL     1      -2.375  -5.355   5.239  0.00  0.00    +0.020 A 
ATOM     34  C   UNL     1      -3.613  -5.904   5.586  0.00  0.00    +0.052 A 
ATOM     35  C   UNL     1      -4.611  -6.038   4.616  0.00  0.00    +0.020 A 
ATOM     36  C   UNL     1      -4.372  -5.629   3.323  0.00  0.00    +0.024 A 
BRANCH  34  37
ATOM     37  C   UNL     1      -3.858  -6.328   6.931  0.00  0.00    +0.099 C 
ATOM     38  N   UNL     1      -4.052  -6.665   7.999  0.00  0.00    -0.191 NA
ENDBRANCH  34  37
ENDBRANCH  29  31
ENDBRANCH  26  27
ENDBRANCH   8  26
TORSDOF 8
