REMARK  Name = ZINC15731175
REMARK  6 active torsions:
REMARK  status: ('A' for Active; 'I' for Inactive)
REMARK    1  A    between atoms: C_1  and  C_2
REMARK    2  A    between atoms: C_9  and  S_15
REMARK    3  A    between atoms: S_15  and  N_18
REMARK    4  A    between atoms: C_21  and  N_63
REMARK    5  A    between atoms: C_24  and  N_63
REMARK    6  A    between atoms: C_25  and  N_63
REMARK                            x       y       z     vdW  Elec       q    Type
REMARK                         _______ _______ _______ _____ _____    ______ ____
ROOT
ATOM      1  S   UNL     1      -2.644  -5.753  -1.774  0.00  0.00    +0.061 S 
ATOM      2  O   UNL     1      -1.533  -6.489  -2.265  0.00  0.00    -0.153 OA
ATOM      3  O   UNL     1      -3.715  -6.368  -1.071  0.00  0.00    -0.153 OA
ENDROOT
BRANCH   1  11
ATOM      4  C   UNL     1      -2.911  -3.157  -9.988  0.00  0.00    +0.018 C 
ATOM      5  C   UNL     1      -3.238  -2.873  -8.521  0.00  0.00    +0.082 C 
ATOM      6  C   UNL     1      -4.611  -3.401  -8.220  0.00  0.00    +0.087 C 
ATOM      7  S   UNL     1      -5.287  -2.816  -6.673  0.00  0.00    -0.123 S 
ATOM      8  C   UNL     1      -4.464  -3.636  -5.368  0.00  0.00    +0.029 A 
ATOM      9  C   UNL     1      -5.227  -3.912  -4.225  0.00  0.00    +0.018 A 
ATOM     10  C   UNL     1      -4.689  -4.556  -3.136  0.00  0.00    +0.030 A 
ATOM     11  C   UNL     1      -3.358  -4.932  -3.160  0.00  0.00    +0.107 A 
ATOM     12  C   UNL     1      -2.598  -4.668  -4.273  0.00  0.00    +0.053 A 
ATOM     13  C   UNL     1      -3.132  -4.020  -5.399  0.00  0.00    +0.049 A 
ATOM     14  N   UNL     1      -2.243  -3.827  -6.423  0.00  0.00    -0.284 N 
ATOM     15  C   UNL     1      -2.192  -3.495  -7.665  0.00  0.00    +0.221 C 
ATOM     16  O   UNL     1      -1.138  -3.723  -8.219  0.00  0.00    -0.275 OA
ATOM     17  H   UNL     1      -1.344  -4.001  -6.102  0.00  0.00    +0.155 HD
ENDBRANCH   1  11
BRANCH   1  18
ATOM     18  N   UNL     1      -2.032  -4.583  -0.774  0.00  0.00    -0.177 NA
ATOM     19  C   UNL     1      -2.863  -3.993   0.284  0.00  0.00    +0.108 C 
ATOM     20  C   UNL     1      -2.845  -2.468   0.133  0.00  0.00    +0.002 C 
ATOM     21  C   UNL     1      -1.396  -1.977   0.124  0.00  0.00    -0.066 C 
ATOM     22  C   UNL     1      -0.655  -2.590  -1.067  0.00  0.00    +0.002 C 
ATOM     23  C   UNL     1      -0.648  -4.115  -0.928  0.00  0.00    +0.108 C 
BRANCH  21  25
ATOM     24  C   UNL     1      -1.933  -0.075  -1.275  0.00  0.00    -0.095 C 
ATOM     25  N   UNL     1      -1.393  -0.502   0.033  0.00  0.00    +0.382 N 
ATOM     26  H   UNL     1      -1.986  -0.120   0.779  0.00  0.00    -0.081 HD
BRANCH  25  27
ATOM     27  C   UNL     1      -0.017   0.012   0.204  0.00  0.00    -0.069 C 
ATOM     28  C   UNL     1       0.475  -0.348   1.607  0.00  0.00    -0.015 C 
ATOM     29  C   UNL     1       1.891   0.198   1.806  0.00  0.00    -0.002 C 
ATOM     30  C   UNL     1       1.878   1.719   1.645  0.00  0.00    -0.000 C 
ATOM     31  C   UNL     1       1.385   2.079   0.241  0.00  0.00    -0.002 C 
ATOM     32  C   UNL     1      -0.030   1.533   0.042  0.00  0.00    -0.015 C 
ENDBRANCH  25  27
ENDBRANCH  21  25
ENDBRANCH   1  18
TORSDOF 4
