REMARK  Name = ZINC07035904
REMARK  5 active torsions:
REMARK  status: ('A' for Active; 'I' for Inactive)
REMARK    1  A    between atoms: C_3  and  O_16
REMARK    2  A    between atoms: C_6  and  C_7
REMARK    3  A    between atoms: C_7  and  C_9
REMARK    4  A    between atoms: O_16  and  C_17
REMARK    5  A    between atoms: C_17  and  C_18
REMARK                            x       y       z     vdW  Elec       q    Type
REMARK                         _______ _______ _______ _____ _____    ______ ____
ROOT
ATOM      1  C   UNL     1       0.231   0.097   0.251  0.00  0.00    +0.015 A 
ATOM      2  C   UNL     1       0.352   1.449   0.477  0.00  0.00    +0.046 A 
ATOM      3  C   UNL     1       1.607   2.014   0.677  0.00  0.00    +0.121 A 
ATOM      4  C   UNL     1       2.745   1.215   0.648  0.00  0.00    +0.046 A 
ATOM      5  C   UNL     1       2.633  -0.138   0.422  0.00  0.00    +0.015 A 
ATOM      6  C   UNL     1       1.373  -0.710   0.221  0.00  0.00    +0.022 A 
ENDROOT
BRANCH   6   7
ATOM      7  C   UNL     1       1.249  -2.159  -0.021  0.00  0.00    +0.193 C 
ATOM      8  O   UNL     1       0.279  -2.764   0.395  0.00  0.00    -0.287 OA
BRANCH   7   9
ATOM      9  C   UNL     1       2.302  -2.876  -0.769  0.00  0.00    +0.022 A 
ATOM     10  C   UNL     1       3.332  -2.164  -1.387  0.00  0.00    +0.013 A 
ATOM     11  C   UNL     1       4.315  -2.839  -2.078  0.00  0.00    +0.021 A 
ATOM     12  C   UNL     1       4.277  -4.221  -2.170  0.00  0.00    +0.041 A 
ATOM     13  C   UNL     1       3.254  -4.933  -1.564  0.00  0.00    +0.021 A 
ATOM     14  C   UNL     1       2.269  -4.270  -0.865  0.00  0.00    +0.013 A 
ATOM     15 CL   UNL     1       5.514  -5.064  -3.049  0.00  0.00    -0.084 Cl
ENDBRANCH   7   9
ENDBRANCH   6   7
BRANCH   3  16
ATOM     16  O   UNL     1       1.721   3.347   0.900  0.00  0.00    -0.483 OA
BRANCH  16  17
ATOM     17  C   UNL     1       3.040   3.861   1.097  0.00  0.00    +0.325 C 
BRANCH  17  18
ATOM     18  C   UNL     1       2.970   5.349   1.328  0.00  0.00    +0.261 C 
ATOM     19  O   UNL     1       1.897   5.913   1.324  0.00  0.00    -0.271 OA
ATOM     20  N   UNL     1       4.100   6.052   1.539  0.00  0.00    -0.222 N 
ATOM     21  C   UNL     1       4.170   7.501   1.776  0.00  0.00    +0.137 C 
ATOM     22  C   UNL     1       5.677   7.774   1.951  0.00  0.00    +0.125 C 
ATOM     23  N   UNL     1       6.295   6.450   1.794  0.00  0.00    -0.297 N 
ATOM     24  C   UNL     1       5.338   5.540   1.571  0.00  0.00    +0.309 C 
ATOM     25  O   UNL     1       5.571   4.359   1.409  0.00  0.00    -0.252 OA
ATOM     26  H   UNL     1       7.246   6.264   1.847  0.00  0.00    +0.150 HD
ENDBRANCH  17  18
ENDBRANCH  16  17
ENDBRANCH   3  16
TORSDOF 5
