REMARK  Name = ZINC36027297
REMARK  8 active torsions:
REMARK  status: ('A' for Active; 'I' for Inactive)
REMARK    1  A    between atoms: C_1  and  C_2
REMARK    2  A    between atoms: C_2  and  C_3
REMARK    3  A    between atoms: C_3  and  C_5
REMARK    4  A    between atoms: C_3  and  N_6
REMARK    5  A    between atoms: C_9  and  C_29
REMARK    6  A    between atoms: N_15  and  S_18
REMARK    7  A    between atoms: S_18  and  C_21
REMARK    8  A    between atoms: C_29  and  C_30
REMARK                            x       y       z     vdW  Elec       q    Type
REMARK                         _______ _______ _______ _____ _____    ______ ____
ROOT
ATOM      1  N   UNL     1      -2.171  -0.255  -1.092  0.00  0.00    -0.311 N 
ATOM      2  C   UNL     1      -1.902  -0.787  -2.303  0.00  0.00    +0.201 C 
ATOM      3  O   UNL     1      -1.007  -1.567  -2.551  0.00  0.00    -0.277 OA
ATOM      4  C   UNL     1      -2.906  -0.247  -3.298  0.00  0.00    +0.023 C 
ATOM      5  N   UNL     1      -4.002   0.308  -2.467  0.00  0.00    +0.401 N 
ATOM      6  C   UNL     1      -3.326   0.641  -1.197  0.00  0.00    +0.006 C 
ATOM      7  C   UNL     1      -4.281   0.412  -0.027  0.00  0.00    +0.023 C 
ATOM      8  C   UNL     1      -3.559   0.727   1.287  0.00  0.00    +0.109 C 
ATOM      9  N   UNL     1      -3.002   2.084   1.207  0.00  0.00    -0.177 NA
ATOM     10  C   UNL     1      -2.130   2.426   0.075  0.00  0.00    +0.109 C 
ATOM     11  C   UNL     1      -2.864   2.097  -1.229  0.00  0.00    +0.023 C 
ATOM     12  H   UNL     1      -4.389   1.136  -2.895  0.00  0.00    -0.082 HD
ATOM     13  H   UNL     1      -4.719  -0.385  -2.314  0.00  0.00    -0.082 HD
ENDROOT
BRANCH   9  14
ATOM     14  S   UNL     1      -3.352   3.209   2.372  0.00  0.00    +0.061 S 
ATOM     15  O   UNL     1      -3.173   4.484   1.771  0.00  0.00    -0.153 OA
ATOM     16  O   UNL     1      -4.580   2.811   2.965  0.00  0.00    -0.153 OA
BRANCH  14  17
ATOM     17  C   UNL     1      -2.118   3.064   3.622  0.00  0.00    +0.107 A 
ATOM     18  C   UNL     1      -2.309   2.199   4.683  0.00  0.00    +0.030 A 
ATOM     19  C   UNL     1      -1.342   2.085   5.665  0.00  0.00    +0.023 A 
ATOM     20  C   UNL     1      -0.184   2.837   5.585  0.00  0.00    +0.059 A 
ATOM     21  C   UNL     1       0.007   3.703   4.522  0.00  0.00    +0.061 A 
ATOM     22  C   UNL     1      -0.959   3.812   3.538  0.00  0.00    +0.050 A 
ATOM     23 CL   UNL     1       1.460   4.647   4.422  0.00  0.00    -0.082 Cl
ATOM     24 CL   UNL     1       1.030   2.694   6.818  0.00  0.00    -0.082 Cl
ENDBRANCH  14  17
ENDBRANCH   9  14
BRANCH   1  25
ATOM     25  C   UNL     1      -1.427  -0.534   0.139  0.00  0.00    +0.071 C 
ATOM     26  C   UNL     1      -1.993  -1.791   0.803  0.00  0.00    +0.028 C 
BRANCH  25  28
ATOM     27  C   UNL     1       0.639   0.530  -0.780  0.00  0.00    +0.005 C 
ATOM     28  C   UNL     1       0.050  -0.756  -0.197  0.00  0.00    +0.019 C 
ENDBRANCH  25  28
ENDBRANCH   1  25
BRANCH   4  29
ATOM     29  C   UNL     1      -3.429  -1.373  -4.191  0.00  0.00    +0.028 C 
BRANCH  29  30
ATOM     30  C   UNL     1      -4.359  -0.800  -5.229  0.00  0.00    -0.048 A 
ATOM     31  C   UNL     1      -5.711  -0.690  -4.961  0.00  0.00    +0.003 A 
ATOM     32  C   UNL     1      -6.564  -0.164  -5.913  0.00  0.00    +0.000 A 
ATOM     33  C   UNL     1      -6.066   0.252  -7.133  0.00  0.00    +0.000 A 
ATOM     34  C   UNL     1      -4.714   0.143  -7.401  0.00  0.00    +0.000 A 
ATOM     35  C   UNL     1      -3.860  -0.379  -6.448  0.00  0.00    +0.003 A 
ENDBRANCH  29  30
ENDBRANCH   4  29
TORSDOF 6
