REMARK  Name = ZINC09516810
REMARK  9 active torsions:
REMARK  status: ('A' for Active; 'I' for Inactive)
REMARK    1  A    between atoms: C_1  and  C_2
REMARK    2  A    between atoms: C_4  and  C_34
REMARK    3  A    between atoms: C_8  and  C_28
REMARK    4  A    between atoms: C_10  and  S_11
REMARK    5  A    between atoms: S_11  and  C_12
REMARK    6  A    between atoms: C_12  and  C_13
REMARK    7  A    between atoms: C_13  and  C_15
REMARK    8  A    between atoms: C_16  and  N_27
REMARK    9  A    between atoms: N_17  and  C_24
REMARK                            x       y       z     vdW  Elec       q    Type
REMARK                         _______ _______ _______ _____ _____    ______ ____
ROOT
ATOM      1  S   UNL     1       4.541   4.002  -0.235  0.00  0.00    -0.078 S 
ENDROOT
BRANCH   1  11
ATOM      2  C   UNL     1      -1.684   4.676   1.302  0.00  0.00    +0.046 C 
ATOM      3  C   UNL     1      -0.406   3.881   1.229  0.00  0.00    -0.021 A 
ATOM      4  C   UNL     1      -0.361   2.599   1.688  0.00  0.00    +0.030 A 
ATOM      5  C   UNL     1       0.833   1.865   1.616  0.00  0.00    +0.059 A 
ATOM      6  N   UNL     1       1.918   2.385   1.113  0.00  0.00    -0.169 NA
ATOM      7  N   UNL     1       1.921   3.698   0.629  0.00  0.00    -0.206 N 
ATOM      8  C   UNL     1       0.756   4.449   0.686  0.00  0.00    +0.097 A 
ATOM      9  C   UNL     1       1.065   5.691   0.140  0.00  0.00    +0.100 A 
ATOM     10  N   UNL     1       2.360   5.659  -0.219  0.00  0.00    -0.220 NA
ATOM     11  C   UNL     1       2.873   4.484   0.067  0.00  0.00    +0.191 A 
ATOM     12  C   UNL     1       0.862   0.448   2.129  0.00  0.00    +0.067 C 
BRANCH   9  13
ATOM     13  C   UNL     1       0.138   6.832  -0.020  0.00  0.00    +0.003 A 
ATOM     14  C   UNL     1      -1.142   6.629  -0.540  0.00  0.00    +0.010 A 
ATOM     15  C   UNL     1      -2.002   7.697  -0.683  0.00  0.00    +0.001 A 
ATOM     16  C   UNL     1      -1.597   8.970  -0.323  0.00  0.00    +0.000 A 
ATOM     17  C   UNL     1      -0.328   9.179   0.189  0.00  0.00    +0.001 A 
ATOM     18  C   UNL     1       0.541   8.119   0.342  0.00  0.00    +0.010 A 
ENDBRANCH   9  13
ENDBRANCH   1  11
BRANCH   1  19
ATOM     19  C   UNL     1       5.292   5.470  -0.991  0.00  0.00    +0.157 C 
BRANCH  19  20
ATOM     20  C   UNL     1       6.739   5.190  -1.303  0.00  0.00    +0.182 C 
ATOM     21  O   UNL     1       7.218   4.104  -1.041  0.00  0.00    -0.291 OA
BRANCH  20  22
ATOM     22  C   UNL     1       7.539   6.188  -1.899  0.00  0.00    +0.120 A 
ATOM     23  C   UNL     1       8.858   5.916  -2.303  0.00  0.00    +0.116 A 
ATOM     24  N   UNL     1       9.590   6.913  -2.881  0.00  0.00    -0.278 N 
ATOM     25  C   UNL     1       9.079   8.142  -3.058  0.00  0.00    +0.331 A 
ATOM     26  O   UNL     1       9.774   8.996  -3.574  0.00  0.00    -0.246 OA
ATOM     27  N   UNL     1       7.829   8.461  -2.688  0.00  0.00    -0.274 N 
ATOM     28  H   UNL     1       7.491   9.390  -2.840  0.00  0.00    +0.173 HD
ATOM     29  C   UNL     1       7.022   7.546  -2.113  0.00  0.00    +0.266 A 
ATOM     30  O   UNL     1       5.889   7.839  -1.779  0.00  0.00    -0.267 OA
BRANCH  24  31
ATOM     31  C   UNL     1      10.964   6.638  -3.311  0.00  0.00    +0.094 C 
ATOM     32  C   UNL     1      11.388   7.149  -4.689  0.00  0.00    +0.027 C 
ATOM     33  C   UNL     1      11.159   5.652  -4.465  0.00  0.00    +0.027 C 
ENDBRANCH  24  31
BRANCH  23  34
ATOM     34  N   UNL     1       9.394   4.678  -2.126  0.00  0.00    -0.344 N 
ATOM     35  H   UNL     1       8.826   3.937  -1.863  0.00  0.00    +0.144 HD
ATOM     36  H   UNL     1      10.344   4.537  -2.263  0.00  0.00    +0.144 HD
ENDBRANCH  23  34
ENDBRANCH  20  22
ENDBRANCH  19  20
ENDBRANCH   1  19
TORSDOF 7
