REMARK  Name = ZINC52634372
REMARK  8 active torsions:
REMARK  status: ('A' for Active; 'I' for Inactive)
REMARK    1  A    between atoms: C_7  and  C_10
REMARK    2  A    between atoms: C_10  and  C_11
REMARK    3  A    between atoms: C_11  and  C_13
REMARK    4  A    between atoms: C_11  and  N_30
REMARK    5  A    between atoms: C_13  and  O_14
REMARK    6  A    between atoms: O_14  and  C_15
REMARK    7  A    between atoms: C_17  and  C_21
REMARK    8  A    between atoms: N_30  and  C_31
REMARK                            x       y       z     vdW  Elec       q    Type
REMARK                         _______ _______ _______ _____ _____    ______ ____
ROOT
ATOM      1  C   UNL     1       0.438  -3.671  -1.463  0.00  0.00    +0.112 C 
ENDROOT
BRANCH   1   2
ATOM      2  N   UNL     1      -0.230  -2.681  -2.311  0.00  0.00    -0.337 N 
ATOM      3  H   UNL     1      -0.789  -1.997  -1.910  0.00  0.00    +0.146 HD
BRANCH   2   4
ATOM      4  C   UNL     1      -0.061  -2.721  -3.694  0.00  0.00    +0.030 A 
ATOM      5  C   UNL     1       0.852  -3.642  -4.239  0.00  0.00    +0.025 A 
ATOM      6  C   UNL     1       1.060  -3.730  -5.573  0.00  0.00    +0.035 A 
ATOM      7  C   UNL     1       0.317  -2.844  -6.470  0.00  0.00    +0.134 A 
ATOM      8  C   UNL     1      -0.635  -1.886  -5.874  0.00  0.00    +0.136 A 
ATOM      9  C   UNL     1      -0.788  -1.873  -4.467  0.00  0.00    +0.056 A 
ATOM     10  N   UNL     1      -1.185  -1.200  -6.850  0.00  0.00    -0.049 NA
ATOM     11  O   UNL     1      -0.637  -1.663  -8.072  0.00  0.00    -0.242 OA
ATOM     12  N   UNL     1       0.294  -2.688  -7.771  0.00  0.00    -0.049 NA
ENDBRANCH   2   4
ENDBRANCH   1   2
BRANCH   1  13
ATOM     13  C   UNL     1       0.697  -3.067  -0.081  0.00  0.00    +0.058 C 
BRANCH  13  20
ATOM     14  C   UNL     1       0.085   1.462  -0.495  0.00  0.00    +0.001 A 
ATOM     15  C   UNL     1       1.282   2.184  -0.588  0.00  0.00    +0.002 A 
ATOM     16  C   UNL     1       2.496   1.593  -0.556  0.00  0.00    +0.026 A 
ATOM     17  C   UNL     1       2.604   0.181  -0.425  0.00  0.00    +0.043 A 
ATOM     18  N   UNL     1       3.645  -0.613  -0.372  0.00  0.00    -0.380 N 
ATOM     19  C   UNL     1       3.173  -1.995  -0.232  0.00  0.00    +0.144 C 
ATOM     20  C   UNL     1       1.663  -1.917  -0.208  0.00  0.00    -0.040 C 
ATOM     21  C   UNL     1       1.353  -0.605  -0.325  0.00  0.00    -0.001 A 
ATOM     22  C   UNL     1       0.075   0.115  -0.367  0.00  0.00    +0.010 A 
ATOM     23  H   UNL     1       4.573  -0.334  -0.417  0.00  0.00    +0.160 HD
ENDBRANCH  13  20
ENDBRANCH   1  13
BRANCH   1  24
ATOM     24  C   UNL     1      -0.454  -4.906  -1.321  0.00  0.00    +0.251 C 
BRANCH  24  25
ATOM     25  O   UNL     1      -0.641  -5.508  -2.603  0.00  0.00    -0.489 OA
BRANCH  25  26
ATOM     26  C   UNL     1      -1.415  -6.624  -2.653  0.00  0.00    +0.139 A 
ATOM     27  C   UNL     1      -1.640  -7.270  -3.862  0.00  0.00    +0.057 A 
ATOM     28  C   UNL     1      -2.442  -8.414  -3.862  0.00  0.00    +0.004 A 
ATOM     29  C   UNL     1      -2.982  -8.859  -2.657  0.00  0.00    +0.119 A 
ATOM     30  N   UNL     1      -2.743  -8.215  -1.534  0.00  0.00    -0.259 NA
ATOM     31  C   UNL     1      -1.986  -7.136  -1.496  0.00  0.00    +0.156 A 
BRANCH  28  32
ATOM     32  C   UNL     1      -2.715  -9.143  -5.125  0.00  0.00    -0.014 A 
ATOM     33  C   UNL     1      -2.165  -8.691  -6.324  0.00  0.00    +0.011 A 
ATOM     34  C   UNL     1      -2.418  -9.369  -7.499  0.00  0.00    +0.030 A 
ATOM     35  C   UNL     1      -3.220 -10.502  -7.492  0.00  0.00    +0.089 A 
ATOM     36  C   UNL     1      -3.773 -10.958  -6.295  0.00  0.00    +0.089 A 
ATOM     37  C   UNL     1      -3.516 -10.283  -5.114  0.00  0.00    +0.038 A 
ATOM     38  N   UNL     1      -4.531 -12.105  -6.564  0.00  0.00    -0.239 N 
ATOM     39  O   UNL     1      -4.446 -12.364  -7.954  0.00  0.00    -0.156 OA
ATOM     40  N   UNL     1      -3.626 -11.358  -8.522  0.00  0.00    -0.239 N 
ATOM     41  H   UNL     1      -5.026 -12.628  -5.914  0.00  0.00    +0.197 HD
ATOM     42  H   UNL     1      -3.388 -11.277  -9.459  0.00  0.00    +0.197 HD
ENDBRANCH  28  32
ENDBRANCH  25  26
ENDBRANCH  24  25
ENDBRANCH   1  24
TORSDOF 8
