REMARK  Name = ZINC63907389
REMARK  7 active torsions:
REMARK  status: ('A' for Active; 'I' for Inactive)
REMARK    1  A    between atoms: C_1  and  C_2
REMARK    2  A    between atoms: C_8  and  N_10
REMARK    3  A    between atoms: C_11  and  C_13
REMARK    4  A    between atoms: C_13  and  C_15
REMARK    5  A    between atoms: C_13  and  N_16
REMARK    6  A    between atoms: C_19  and  C_24
REMARK    7  A    between atoms: C_24  and  C_25
REMARK                            x       y       z     vdW  Elec       q    Type
REMARK                         _______ _______ _______ _____ _____    ______ ____
ROOT
ATOM      1  N   UNL     1       4.722   0.698   3.749  0.00  0.00    -0.213 N 
ATOM      2  C   UNL     1       5.808   0.024   4.175  0.00  0.00    +0.244 C 
ATOM      3  O   UNL     1       6.518  -0.710   3.522  0.00  0.00    -0.273 OA
ATOM      4  C   UNL     1       5.958   0.374   5.643  0.00  0.00    +0.165 C 
ATOM      5  N   UNL     1       4.833   1.291   5.896  0.00  0.00    -0.287 N 
ATOM      6  C   UNL     1       4.173   1.422   4.731  0.00  0.00    +0.310 C 
ATOM      7  O   UNL     1       3.187   2.118   4.588  0.00  0.00    -0.252 OA
ATOM      8  H   UNL     1       4.613   1.719   6.738  0.00  0.00    +0.151 HD
ENDROOT
BRANCH   1   9
ATOM      9  C   UNL     1       4.209   0.649   2.377  0.00  0.00    +0.168 C 
ATOM     10  C   UNL     1       4.229   2.056   1.775  0.00  0.00    +0.038 C 
BRANCH   9  12
ATOM     11  N   UNL     1       2.116  -0.004   1.231  0.00  0.00    -0.311 N 
ATOM     12  C   UNL     1       2.795   0.128   2.388  0.00  0.00    +0.234 C 
ATOM     13  O   UNL     1       2.268  -0.174   3.438  0.00  0.00    -0.274 OA
ATOM     14  H   UNL     1       2.538   0.237   0.392  0.00  0.00    +0.149 HD
BRANCH  11  21
ATOM     15  C   UNL     1      -0.019   1.526   0.010  0.00  0.00    +0.009 C 
ATOM     16  C   UNL     1       0.002  -0.004   0.002  0.00  0.00    +0.006 C 
ATOM     17  C   UNL     1       0.718  -0.497  -1.257  0.00  0.00    +0.005 C 
ATOM     18  C   UNL     1       0.739  -2.027  -1.265  0.00  0.00    +0.000 C 
ATOM     19  C   UNL     1       1.479  -2.534  -0.026  0.00  0.00    +0.002 C 
ATOM     20  C   UNL     1       0.763  -2.041   1.233  0.00  0.00    +0.022 C 
ATOM     21  C   UNL     1       0.742  -0.511   1.242  0.00  0.00    +0.076 C 
ENDBRANCH  11  21
ENDBRANCH   9  12
ENDBRANCH   1   9
BRANCH   4  22
ATOM     22  C   UNL     1       5.839  -0.881   6.510  0.00  0.00    +0.065 C 
BRANCH  22  23
ATOM     23  C   UNL     1       6.114  -0.524   7.949  0.00  0.00    -0.039 C 
ATOM     24  C   UNL     1       5.200  -0.225   8.900  0.00  0.00    -0.001 A 
ATOM     25  C   UNL     1       3.735  -0.144   8.882  0.00  0.00    +0.010 A 
ATOM     26  C   UNL     1       3.082   0.189  10.019  0.00  0.00    +0.001 A 
ATOM     27  C   UNL     1       3.768   0.458  11.211  0.00  0.00    +0.002 A 
ATOM     28  C   UNL     1       5.114   0.403  11.306  0.00  0.00    +0.026 A 
ATOM     29  C   UNL     1       5.901   0.063  10.172  0.00  0.00    +0.043 A 
ATOM     30  N   UNL     1       7.197  -0.054  10.013  0.00  0.00    -0.380 N 
ATOM     31  C   UNL     1       7.465  -0.435   8.622  0.00  0.00    +0.144 C 
ATOM     32  H   UNL     1       7.867   0.085  10.701  0.00  0.00    +0.160 HD
ENDBRANCH  22  23
ENDBRANCH   4  22
TORSDOF 5
