REMARK  Name = ZINC14002105
REMARK  10 active torsions:
REMARK  status: ('A' for Active; 'I' for Inactive)
REMARK    1  A    between atoms: C_1  and  C_2
REMARK    2  A    between atoms: C_6  and  C_32
REMARK    3  A    between atoms: C_7  and  N_8
REMARK    4  A    between atoms: N_8  and  S_9
REMARK    5  A    between atoms: S_9  and  C_12
REMARK    6  A    between atoms: C_15  and  N_18
REMARK    7  A    between atoms: N_18  and  C_19
REMARK    8  A    between atoms: C_19  and  N_21
REMARK    9  A    between atoms: C_22  and  C_24
REMARK   10  A    between atoms: C_24  and  C_25
REMARK                            x       y       z     vdW  Elec       q    Type
REMARK                         _______ _______ _______ _____ _____    ______ ____
ROOT
ATOM      1  C   UNL     1      -2.333   2.474  -8.195  0.00  0.00    +0.109 A 
ATOM      2  C   UNL     1      -1.355   1.722  -8.819  0.00  0.00    +0.030 A 
ATOM      3  C   UNL     1      -0.568   0.860  -8.080  0.00  0.00    +0.025 A 
ATOM      4  C   UNL     1      -0.760   0.749  -6.709  0.00  0.00    +0.033 A 
ATOM      5  C   UNL     1      -1.748   1.502  -6.086  0.00  0.00    +0.025 A 
ATOM      6  C   UNL     1      -2.527   2.365  -6.830  0.00  0.00    +0.030 A 
ENDROOT
BRANCH   1   7
ATOM      7  S   UNL     1      -3.334   3.573  -9.141  0.00  0.00    +0.072 S 
ATOM      8  O   UNL     1      -3.725   4.622  -8.265  0.00  0.00    -0.150 OA
ATOM      9  O   UNL     1      -2.637   3.814 -10.355  0.00  0.00    -0.150 OA
BRANCH   7  10
ATOM     10  N   UNL     1      -4.716   2.753  -9.543  0.00  0.00    -0.216 N 
ATOM     11  H   UNL     1      -4.841   2.429 -10.449  0.00  0.00    +0.174 HD
BRANCH  10  18
ATOM     12  C   UNL     1      -4.986   0.123  -8.491  0.00  0.00    +0.046 C 
ATOM     13  C   UNL     1      -5.867   1.259  -8.038  0.00  0.00    -0.028 A 
ATOM     14  C   UNL     1      -6.838   1.040  -7.081  0.00  0.00    +0.005 A 
ATOM     15  C   UNL     1      -7.651   2.080  -6.668  0.00  0.00    +0.001 A 
ATOM     16  C   UNL     1      -7.491   3.343  -7.208  0.00  0.00    +0.005 A 
ATOM     17  C   UNL     1      -6.518   3.570  -8.162  0.00  0.00    -0.028 A 
ATOM     18  C   UNL     1      -5.700   2.527  -8.579  0.00  0.00    +0.054 A 
ATOM     19  C   UNL     1      -6.345   4.946  -8.750  0.00  0.00    +0.046 C 
ENDBRANCH  10  18
ENDBRANCH   7  10
ENDBRANCH   1   7
BRANCH   4  20
ATOM     20  N   UNL     1       0.035  -0.123  -5.958  0.00  0.00    -0.297 N 
ATOM     21  H   UNL     1      -0.373  -0.700  -5.293  0.00  0.00    +0.154 HD
BRANCH  20  22
ATOM     22  C   UNL     1       1.367  -0.162  -6.158  0.00  0.00    +0.141 C 
ATOM     23  S   UNL     1       2.074   0.782  -7.399  0.00  0.00    -0.018 S 
BRANCH  22  24
ATOM     24  N   UNL     1       2.143  -0.943  -5.380  0.00  0.00    -0.267 N 
ATOM     25  C   UNL     1       3.475  -0.981  -5.580  0.00  0.00    +0.223 C 
ATOM     26  O   UNL     1       3.976  -0.313  -6.460  0.00  0.00    -0.275 OA
ATOM     27  H   UNL     1       1.742  -1.477  -4.677  0.00  0.00    +0.157 HD
BRANCH  25  28
ATOM     28  C   UNL     1       4.342  -1.855  -4.711  0.00  0.00    +0.131 C 
BRANCH  28  29
ATOM     29  C   UNL     1       5.781  -1.717  -5.138  0.00  0.00    -0.039 A 
ATOM     30  C   UNL     1       6.301  -2.564  -6.099  0.00  0.00    +0.005 A 
ATOM     31  C   UNL     1       7.619  -2.435  -6.495  0.00  0.00    +0.020 A 
ATOM     32  C   UNL     1       8.421  -1.465  -5.921  0.00  0.00    +0.041 A 
ATOM     33  C   UNL     1       7.902  -0.621  -4.955  0.00  0.00    +0.020 A 
ATOM     34  C   UNL     1       6.582  -0.748  -4.564  0.00  0.00    +0.005 A 
ATOM     35 CL   UNL     1      10.078  -1.306  -6.413  0.00  0.00    -0.084 Cl
ENDBRANCH  28  29
ENDBRANCH  25  28
ENDBRANCH  22  24
ENDBRANCH  20  22
ENDBRANCH   4  20
TORSDOF 8
