REMARK  Name = ZINC12716128
REMARK  6 active torsions:
REMARK  status: ('A' for Active; 'I' for Inactive)
REMARK    1  A    between atoms: C_6  and  C_7
REMARK    2  A    between atoms: C_7  and  C_9
REMARK    3  A    between atoms: C_7  and  N_18
REMARK    4  A    between atoms: N_11  and  C_12
REMARK    5  A    between atoms: N_18  and  C_19
REMARK    6  A    between atoms: C_29  and  C_31
REMARK                            x       y       z     vdW  Elec       q    Type
REMARK                         _______ _______ _______ _____ _____    ______ ____
ROOT
ATOM      1  N   UNL     1       3.116  -0.665  -0.211  0.00  0.00    -0.250 N 
ATOM      2  C   UNL     1       2.261  -0.190   0.716  0.00  0.00    +0.272 C 
ATOM      3  O   UNL     1       1.830   0.942   0.623  0.00  0.00    -0.268 OA
ENDROOT
BRANCH   1   4
ATOM      4  C   UNL     1       3.569   0.171  -1.238  0.00  0.00    +0.041 A 
ATOM      5  C   UNL     1       3.151  -0.045  -2.545  0.00  0.00    +0.027 A 
ATOM      6  C   UNL     1       3.599   0.778  -3.559  0.00  0.00    +0.051 A 
ATOM      7  C   UNL     1       4.467   1.823  -3.277  0.00  0.00    +0.162 A 
ATOM      8  C   UNL     1       4.885   2.044  -1.970  0.00  0.00    +0.164 A 
ATOM      9  C   UNL     1       4.436   1.216  -0.952  0.00  0.00    +0.073 A 
ATOM     10  O   UNL     1       5.729   3.069  -1.672  0.00  0.00    -0.485 OA
ATOM     11  C   UNL     1       6.451   3.647  -2.765  0.00  0.00    +0.270 C 
ATOM     12  C   UNL     1       5.469   3.882  -3.920  0.00  0.00    +0.270 C 
ATOM     13  O   UNL     1       4.904   2.619  -4.292  0.00  0.00    -0.485 OA
ENDBRANCH   1   4
BRANCH   2  14
ATOM     14  C   UNL     1       1.845  -1.049   1.849  0.00  0.00    +0.144 A 
ATOM     15  C   UNL     1       1.073  -0.519   2.882  0.00  0.00    +0.143 A 
ATOM     16  N   UNL     1       0.705  -1.289   3.890  0.00  0.00    -0.259 NA
ATOM     17  C   UNL     1       1.067  -2.560   3.920  0.00  0.00    +0.130 A 
ATOM     18  C   UNL     1       1.835  -3.090   2.893  0.00  0.00    +0.131 A 
ATOM     19  N   UNL     1       2.202  -2.330   1.881  0.00  0.00    -0.247 NA
ENDBRANCH   2  14
BRANCH   1  20
ATOM     20  C   UNL     1       3.572  -2.055  -0.143  0.00  0.00    +0.197 C 
BRANCH  20  26
ATOM     21  C   UNL     1       5.513  -1.739  -1.691  0.00  0.00    +0.007 A 
ATOM     22  C   UNL     1       6.213  -2.055  -2.840  0.00  0.00    +0.020 A 
ATOM     23  C   UNL     1       5.728  -3.021  -3.703  0.00  0.00    +0.041 A 
ATOM     24  C   UNL     1       4.543  -3.675  -3.412  0.00  0.00    +0.020 A 
ATOM     25  C   UNL     1       3.847  -3.362  -2.260  0.00  0.00    +0.007 A 
ATOM     26  C   UNL     1       4.333  -2.396  -1.399  0.00  0.00    -0.018 A 
ATOM     27 CL   UNL     1       6.603  -3.413  -5.150  0.00  0.00    -0.084 Cl
ENDBRANCH  20  26
BRANCH  20  28
ATOM     28  C   UNL     1       4.472  -2.232   1.053  0.00  0.00    +0.239 C 
ATOM     29  O   UNL     1       4.709  -1.288   1.777  0.00  0.00    -0.273 OA
ATOM     30  N   UNL     1       5.013  -3.437   1.317  0.00  0.00    -0.311 N 
ATOM     31  H   UNL     1       4.824  -4.191   0.738  0.00  0.00    +0.149 HD
BRANCH  30  32
ATOM     32  C   UNL     1       5.888  -3.608   2.480  0.00  0.00    +0.073 C 
ATOM     33  C   UNL     1       7.318  -3.212   2.105  0.00  0.00    +0.022 C 
ATOM     34  C   UNL     1       8.231  -3.390   3.319  0.00  0.00    +0.002 C 
ATOM     35  C   UNL     1       8.208  -4.854   3.764  0.00  0.00    +0.000 C 
ATOM     36  C   UNL     1       6.778  -5.250   4.139  0.00  0.00    +0.002 C 
ATOM     37  C   UNL     1       5.865  -5.072   2.925  0.00  0.00    +0.022 C 
ENDBRANCH  30  32
ENDBRANCH  20  28
ENDBRANCH   1  20
TORSDOF 6
