REMARK  Name = ZINC17167005
REMARK  9 active torsions:
REMARK  status: ('A' for Active; 'I' for Inactive)
REMARK    1  A    between atoms: C_1  and  C_2
REMARK    2  A    between atoms: C_2  and  O_3
REMARK    3  A    between atoms: O_3  and  C_4
REMARK    4  A    between atoms: C_6  and  C_14
REMARK    5  A    between atoms: C_8  and  C_11
REMARK    6  A    between atoms: C_9  and  O_10
REMARK    7  A    between atoms: C_11  and  C_12
REMARK    8  A    between atoms: N_20  and  C_21
REMARK    9  A    between atoms: C_26  and  C_27
REMARK                            x       y       z     vdW  Elec       q    Type
REMARK                         _______ _______ _______ _____ _____    ______ ____
ROOT
ATOM      1  C   UNL     1      -1.271  -4.597   0.003  0.00  0.00    +0.028 C 
ATOM      2  C   UNL     1      -1.764  -5.796  -0.401  0.00  0.00    +0.078 C 
ATOM      3  C   UNL     1      -2.494  -6.817   0.375  0.00  0.00    +0.256 C 
ATOM      4  O   UNL     1      -2.742  -6.662   1.556  0.00  0.00    -0.269 OA
ATOM      5  N   UNL     1      -2.867  -7.908  -0.272  0.00  0.00    -0.260 N 
ATOM      6  C   UNL     1      -2.577  -8.065  -1.610  0.00  0.00    +0.166 C 
ATOM      7  N   UNL     1      -2.870  -9.076  -2.397  0.00  0.00    -0.225 NA
ATOM      8  S   UNL     1      -1.712  -6.557  -2.017  0.00  0.00    -0.049 S 
ATOM      9  H   UNL     1      -3.349  -8.605   0.200  0.00  0.00    +0.157 HD
ENDROOT
BRANCH   7  10
ATOM     10  C   UNL     1      -2.446  -9.077  -3.697  0.00  0.00    +0.071 A 
ATOM     11  C   UNL     1      -1.096  -8.873  -3.995  0.00  0.00    +0.048 A 
ATOM     12  C   UNL     1      -0.675  -8.875  -5.309  0.00  0.00    +0.043 A 
ATOM     13  C   UNL     1      -1.587  -9.079  -6.331  0.00  0.00    +0.020 A 
ATOM     14  C   UNL     1      -2.925  -9.280  -6.043  0.00  0.00    +0.007 A 
ATOM     15  C   UNL     1      -3.358  -9.287  -4.733  0.00  0.00    -0.025 A 
ATOM     16  C   UNL     1      -4.815  -9.514  -4.421  0.00  0.00    +0.046 C 
ATOM     17 CL   UNL     1       1.002  -8.622  -5.682  0.00  0.00    -0.083 Cl
ENDBRANCH   7  10
BRANCH   1  20
ATOM     18  C   UNL     1       0.611  -1.719  -1.493  0.00  0.00    +0.162 A 
ATOM     19  C   UNL     1      -0.185  -2.455  -0.638  0.00  0.00    +0.057 A 
ATOM     20  C   UNL     1      -0.426  -3.809  -0.902  0.00  0.00    -0.020 A 
ATOM     21  C   UNL     1       0.143  -4.408  -2.033  0.00  0.00    +0.015 A 
ATOM     22  C   UNL     1       0.936  -3.666  -2.880  0.00  0.00    +0.002 A 
ATOM     23  C   UNL     1       1.169  -2.322  -2.619  0.00  0.00    +0.162 A 
BRANCH  23  24
ATOM     24  O   UNL     1       1.948  -1.594  -3.462  0.00  0.00    -0.503 OA
ATOM     25  H   UNL     1       2.888  -1.602  -3.234  0.00  0.00    +0.292 HD
ENDBRANCH  23  24
BRANCH  18  26
ATOM     26  O   UNL     1       0.847  -0.404  -1.239  0.00  0.00    -0.489 OA
BRANCH  26  28
ATOM     27  C   UNL     1       0.619   1.626   0.053  0.00  0.00    +0.048 C 
ATOM     28  C   UNL     1       0.316   0.128  -0.024  0.00  0.00    +0.226 C 
ENDBRANCH  26  28
ENDBRANCH  18  26
BRANCH  22  29
ATOM     29  C   UNL     1       1.549  -4.313  -4.095  0.00  0.00    +0.065 C 
BRANCH  29  30
ATOM     30  C   UNL     1       2.947  -4.771  -3.770  0.00  0.00    -0.030 C 
ATOM     31  C   UNL     1       3.288  -6.021  -3.964  0.00  0.00    +0.004 C 
ENDBRANCH  29  30
ENDBRANCH  22  29
ENDBRANCH   1  20
TORSDOF 7
