REMARK  Name = ZINC06009079
REMARK  5 active torsions:
REMARK  status: ('A' for Active; 'I' for Inactive)
REMARK    1  A    between atoms: C_1  and  O_2
REMARK    2  A    between atoms: O_2  and  C_3
REMARK    3  A    between atoms: C_6  and  C_9
REMARK    4  A    between atoms: C_14  and  S_18
REMARK    5  A    between atoms: S_18  and  C_19
REMARK                            x       y       z     vdW  Elec       q    Type
REMARK                         _______ _______ _______ _____ _____    ______ ____
ROOT
ATOM      1  C   UNL     1      -4.981  -2.629   0.035  0.00  0.00    +0.092 C 
ATOM      2  C   UNL     1      -5.103  -3.467  -1.203  0.00  0.00    +0.069 A 
ATOM      3  C   UNL     1      -4.933  -4.815  -1.155  0.00  0.00    +0.111 A 
ATOM      4  N   UNL     1      -5.045  -5.547  -2.308  0.00  0.00    -0.322 N 
ATOM      5  C   UNL     1      -5.327  -4.926  -3.487  0.00  0.00    +0.171 A 
ATOM      6  N   UNL     1      -5.498  -3.621  -3.545  0.00  0.00    -0.185 NA
ATOM      7  C   UNL     1      -5.399  -2.861  -2.444  0.00  0.00    +0.280 A 
ATOM      8  O   UNL     1      -5.563  -1.652  -2.515  0.00  0.00    -0.265 OA
ATOM      9  N   UNL     1      -4.654  -5.436   0.040  0.00  0.00    -0.304 N 
ATOM     10  C   UNL     1      -4.922  -4.811   1.228  0.00  0.00    +0.017 C 
ATOM     11  C   UNL     1      -5.086  -3.474   1.279  0.00  0.00    +0.024 C 
ATOM     12  C   UNL     1      -5.357  -2.825   2.497  0.00  0.00    +0.162 C 
ATOM     13  C   UNL     1      -5.454  -3.595   3.785  0.00  0.00    +0.080 C 
ATOM     14  C   UNL     1      -4.578  -4.848   3.686  0.00  0.00    +0.014 C 
ATOM     15  C   UNL     1      -5.032  -5.657   2.473  0.00  0.00    +0.051 C 
ATOM     16  O   UNL     1      -5.515  -1.621   2.508  0.00  0.00    -0.292 OA
ATOM     17  H   UNL     1      -4.264  -6.324   0.041  0.00  0.00    +0.153 HD
ATOM     18  H   UNL     1      -4.923  -6.509  -2.285  0.00  0.00    +0.169 HD
ENDROOT
BRANCH   1  22
ATOM     19  C   UNL     1      -1.200  -0.637   0.010  0.00  0.00    +0.120 A 
ATOM     20  C   UNL     1      -2.375   0.101   0.019  0.00  0.00    +0.046 A 
ATOM     21  C   UNL     1      -3.596  -0.545   0.027  0.00  0.00    +0.008 A 
ATOM     22  C   UNL     1      -3.648  -1.927   0.026  0.00  0.00    -0.035 A 
ATOM     23  C   UNL     1      -2.479  -2.665   0.017  0.00  0.00    +0.008 A 
ATOM     24  C   UNL     1      -1.255  -2.024   0.003  0.00  0.00    +0.046 A 
BRANCH  19  26
ATOM     25  C   UNL     1      -0.017   1.425   0.010  0.00  0.00    +0.277 C 
ATOM     26  O   UNL     1       0.002  -0.004   0.002  0.00  0.00    -0.495 OA
ENDBRANCH  19  26
ENDBRANCH   1  22
BRANCH   5  27
ATOM     27  S   UNL     1      -5.465  -5.883  -4.960  0.00  0.00    -0.091 S 
ATOM     28  C   UNL     1      -5.841  -4.660  -6.246  0.00  0.00    +0.093 C 
ENDBRANCH   5  27
TORSDOF 3
