REMARK  Name = ZINC04885916
REMARK  10 active torsions:
REMARK  status: ('A' for Active; 'I' for Inactive)
REMARK    1  A    between atoms: C_1  and  C_2
REMARK    2  A    between atoms: C_2  and  C_3
REMARK    3  A    between atoms: C_3  and  C_4
REMARK    4  A    between atoms: C_8  and  C_12
REMARK    5  A    between atoms: C_9  and  C_11
REMARK    6  A    between atoms: C_13  and  S_15
REMARK    7  A    between atoms: S_15  and  C_16
REMARK    8  A    between atoms: C_16  and  C_17
REMARK    9  A    between atoms: N_19  and  C_20
REMARK   10  A    between atoms: C_21  and  C_30
REMARK                            x       y       z     vdW  Elec       q    Type
REMARK                         _______ _______ _______ _____ _____    ______ ____
ROOT
ATOM      1  C   UNL     1      -2.448  -3.967  -3.753  0.00  0.00    +0.171 C 
ENDROOT
BRANCH   1   2
ATOM      2  C   UNL     1      -2.521  -4.524  -5.152  0.00  0.00    +0.228 C 
ATOM      3  O   UNL     1      -2.386  -5.715  -5.338  0.00  0.00    -0.275 OA
ATOM      4  N   UNL     1      -2.737  -3.699  -6.195  0.00  0.00    -0.279 N 
ATOM      5  H   UNL     1      -2.759  -2.739  -6.058  0.00  0.00    +0.155 HD
BRANCH   4   6
ATOM      6  C   UNL     1      -2.929  -4.230  -7.483  0.00  0.00    +0.118 A 
ATOM      7  C   UNL     1      -2.136  -3.844  -8.511  0.00  0.00    +0.044 A 
ATOM      8  N   UNL     1      -2.338  -4.377  -9.759  0.00  0.00    -0.310 N 
ATOM      9  H   UNL     1      -1.748  -4.099 -10.517  0.00  0.00    +0.170 HD
ATOM     10  C   UNL     1      -3.321  -5.270  -9.972  0.00  0.00    +0.327 A 
ATOM     11  O   UNL     1      -3.484  -5.725 -11.088  0.00  0.00    -0.247 OA
ATOM     12  N   UNL     1      -4.127  -5.667  -8.971  0.00  0.00    -0.274 N 
ATOM     13  H   UNL     1      -4.852  -6.332  -9.150  0.00  0.00    +0.173 HD
ATOM     14  C   UNL     1      -3.963  -5.174  -7.727  0.00  0.00    +0.276 A 
ATOM     15  O   UNL     1      -4.693  -5.534  -6.821  0.00  0.00    -0.266 OA
ATOM     16  C   UNL     1      -1.035  -2.840  -8.284  0.00  0.00    +0.065 C 
ENDBRANCH   4   6
ENDBRANCH   1   2
BRANCH   1  17
ATOM     17  S   UNL     1      -2.151  -5.315  -2.582  0.00  0.00    -0.096 S 
BRANCH  17  27
ATOM     18  C   UNL     1      -2.259  -2.378   0.033  0.00  0.00    +0.132 A 
ATOM     19  N   UNL     1      -2.063  -2.940   1.210  0.00  0.00    -0.225 NA
ATOM     20  C   UNL     1      -1.885  -4.242   1.306  0.00  0.00    +0.113 A 
ATOM     21  C   UNL     1      -1.896  -5.073   0.165  0.00  0.00    +0.043 A 
ATOM     22  C   UNL     1      -1.685  -6.485   0.434  0.00  0.00    -0.029 A 
ATOM     23  C   UNL     1      -1.501  -6.889   1.700  0.00  0.00    -0.008 A 
ATOM     24  S   UNL     1      -1.599  -5.377   2.639  0.00  0.00    -0.074 S 
ATOM     25  C   UNL     1      -1.267  -8.289   2.207  0.00  0.00    +0.052 C 
ATOM     26  C   UNL     1      -1.674  -7.483  -0.694  0.00  0.00    +0.045 C 
ATOM     27  C   UNL     1      -2.112  -4.406  -1.073  0.00  0.00    +0.109 A 
ATOM     28  N   UNL     1      -2.288  -3.094  -1.076  0.00  0.00    -0.225 NA
BRANCH  18  29
ATOM     29  C   UNL     1      -2.461  -0.886  -0.047  0.00  0.00    +0.076 C 
BRANCH  29  31
ATOM     30  C   UNL     1      -1.311   1.317  -0.304  0.00  0.00    +0.004 C 
ATOM     31  C   UNL     1      -1.107  -0.197  -0.223  0.00  0.00    +0.004 C 
ENDBRANCH  29  31
ENDBRANCH  18  29
ENDBRANCH  17  27
ENDBRANCH   1  17
TORSDOF 6
