REMARK  Name = ZINC16700775
REMARK  8 active torsions:
REMARK  status: ('A' for Active; 'I' for Inactive)
REMARK    1  A    between atoms: C_1  and  C_2
REMARK    2  A    between atoms: C_4  and  N_21
REMARK    3  A    between atoms: C_7  and  S_8
REMARK    4  A    between atoms: S_8  and  N_11
REMARK    5  A    between atoms: N_11  and  C_12
REMARK    6  A    between atoms: C_12  and  C_14
REMARK    7  A    between atoms: C_12  and  C_15
REMARK    8  A    between atoms: C_24  and  C_30
REMARK                            x       y       z     vdW  Elec       q    Type
REMARK                         _______ _______ _______ _____ _____    ______ ____
ROOT
ATOM      1  C   UNL     1       3.737   2.048  -0.497  0.00  0.00    +0.046 C 
ATOM      2  C   UNL     1       2.499   1.208  -0.314  0.00  0.00    -0.022 A 
ATOM      3  C   UNL     1       2.580  -0.168  -0.398  0.00  0.00    +0.030 A 
ATOM      4  C   UNL     1       1.439  -0.941  -0.229  0.00  0.00    +0.060 A 
ATOM      5  C   UNL     1       0.219  -0.326   0.026  0.00  0.00    +0.027 A 
ATOM      6  C   UNL     1       0.145   1.050   0.109  0.00  0.00    +0.030 A 
ATOM      7  C   UNL     1       1.284   1.817  -0.060  0.00  0.00    +0.108 A 
ENDROOT
BRANCH   4   8
ATOM      8  N   UNL     1       1.517  -2.335  -0.314  0.00  0.00    -0.144 N 
ATOM      9  C   UNL     1       2.610  -3.079  -0.091  0.00  0.00    +0.243 C 
ATOM     10  O   UNL     1       3.654  -2.563   0.247  0.00  0.00    -0.273 OA
ATOM     11  C   UNL     1       2.512  -4.565  -0.265  0.00  0.00    +0.097 C 
ATOM     12  C   UNL     1       1.015  -4.973  -0.223  0.00  0.00    +0.201 C 
ATOM     13  S   UNL     1       0.264  -3.369  -0.720  0.00  0.00    +0.053 S 
ATOM     14  O   UNL     1      -0.813  -3.025   0.141  0.00  0.00    -0.155 OA
ATOM     15  O   UNL     1       0.138  -3.284  -2.133  0.00  0.00    -0.155 OA
ATOM     16  C   UNL     1       3.116  -4.961  -1.614  0.00  0.00    +0.019 C 
ENDBRANCH   4   8
BRANCH   7  17
ATOM     17  S   UNL     1       1.185   3.573   0.046  0.00  0.00    +0.059 S 
ATOM     18  O   UNL     1      -0.186   3.892   0.240  0.00  0.00    -0.153 OA
ATOM     19  O   UNL     1       2.199   3.982   0.954  0.00  0.00    -0.153 OA
BRANCH  17  20
ATOM     20  N   UNL     1       1.606   4.178  -1.437  0.00  0.00    -0.183 NA
ATOM     21  H   UNL     1       2.412   4.709  -1.533  0.00  0.00    +0.149 HD
BRANCH  20  22
ATOM     22  C   UNL     1       0.761   3.911  -2.603  0.00  0.00    +0.103 C 
ATOM     23  C   UNL     1      -0.209   5.077  -2.807  0.00  0.00    +0.031 C 
BRANCH  22  24
ATOM     24  C   UNL     1       1.627   3.759  -3.827  0.00  0.00    -0.029 A 
ATOM     25  C   UNL     1       2.714   4.592  -4.013  0.00  0.00    +0.005 A 
ATOM     26  C   UNL     1       3.511   4.449  -5.133  0.00  0.00    +0.000 A 
ATOM     27  C   UNL     1       3.216   3.479  -6.072  0.00  0.00    +0.000 A 
ATOM     28  C   UNL     1       2.126   2.648  -5.889  0.00  0.00    +0.000 A 
ATOM     29  C   UNL     1       1.331   2.788  -4.766  0.00  0.00    +0.005 A 
ENDBRANCH  22  24
ENDBRANCH  20  22
ENDBRANCH  17  20
ENDBRANCH   7  17
TORSDOF 5
