REMARK  Name = ZINC65457859
REMARK  3 active torsions:
REMARK  status: ('A' for Active; 'I' for Inactive)
REMARK    1  A    between atoms: C_1  and  C_2
REMARK    2  A    between atoms: C_2  and  C_3
REMARK    3  A    between atoms: C_5  and  C_15
REMARK                            x       y       z     vdW  Elec       q    Type
REMARK                         _______ _______ _______ _____ _____    ______ ____
ROOT
ATOM      1  C   UNL     1      -1.067  -1.180  -0.086  0.00  0.00    +0.066 C 
ATOM      2  C   UNL     1      -1.797  -1.367  -1.161  0.00  0.00    +0.005 C 
ATOM      3  C   UNL     1      -1.648  -0.935  -2.594  0.00  0.00    +0.061 C 
ATOM      4  C   UNL     1      -2.830   0.005  -2.877  0.00  0.00    +0.108 C 
ATOM      5  C   UNL     1      -4.074  -0.431  -2.173  0.00  0.00    +0.216 C 
ATOM      6  O   UNL     1      -5.114   0.023  -2.599  0.00  0.00    -0.276 OA
ATOM      7  N   UNL     1      -4.179  -1.261  -1.133  0.00  0.00    -0.289 N 
ATOM      8  C   UNL     1      -3.058  -2.062  -0.661  0.00  0.00    +0.243 C 
ATOM      9  N   UNL     1      -2.873  -2.045   0.788  0.00  0.00    -0.160 NA
ATOM     10  N   UNL     1      -1.745  -1.585   1.018  0.00  0.00    -0.157 NA
ATOM     11  H   UNL     1      -5.032  -1.332  -0.675  0.00  0.00    +0.151 HD
ENDROOT
BRANCH   3  12
ATOM     12  C   UNL     1      -0.343  -0.205  -2.783  0.00  0.00    -0.021 A 
ATOM     13  C   UNL     1      -0.161   1.042  -2.215  0.00  0.00    +0.008 A 
ATOM     14  C   UNL     1       1.034   1.713  -2.388  0.00  0.00    +0.039 A 
ATOM     15  C   UNL     1       2.051   1.136  -3.130  0.00  0.00    +0.125 A 
ATOM     16  C   UNL     1       1.869  -0.113  -3.698  0.00  0.00    +0.058 A 
ATOM     17  C   UNL     1       0.673  -0.785  -3.520  0.00  0.00    +0.047 A 
ATOM     18 CL   UNL     1       0.446  -2.354  -4.227  0.00  0.00    -0.083 Cl
ATOM     19  F   UNL     1       3.220   1.792  -3.300  0.00  0.00    -0.205 F 
ENDBRANCH   3  12
BRANCH   1  21
ATOM     20  C   UNL     1       1.285  -1.595   0.581  0.00  0.00    +0.010 C 
ATOM     21  C   UNL     1       0.326  -0.603  -0.079  0.00  0.00    +0.054 C 
ENDBRANCH   1  21
TORSDOF 2
