REMARK  Name = ZINC66699110
REMARK  8 active torsions:
REMARK  status: ('A' for Active; 'I' for Inactive)
REMARK    1  A    between atoms: C_1  and  C_2
REMARK    2  A    between atoms: C_2  and  C_4
REMARK    3  A    between atoms: C_2  and  N_14
REMARK    4  A    between atoms: C_8  and  N_10
REMARK    5  A    between atoms: C_11  and  C_13
REMARK    6  A    between atoms: N_17  and  C_18
REMARK    7  A    between atoms: C_18  and  C_19
REMARK    8  A    between atoms: C_23  and  C_25
REMARK                            x       y       z     vdW  Elec       q    Type
REMARK                         _______ _______ _______ _____ _____    ______ ____
ROOT
ATOM      1  N   UNL     1      -1.270  -0.174   0.040  0.00  0.00    -0.293 N 
ATOM      2  C   UNL     1      -1.875  -0.148   1.244  0.00  0.00    +0.300 C 
ATOM      3  O   UNL     1      -1.282   0.283   2.214  0.00  0.00    -0.253 OA
ATOM      4  N   UNL     1      -3.138  -0.601   1.373  0.00  0.00    -0.292 N 
ATOM      5  H   UNL     1      -1.743  -0.517  -0.733  0.00  0.00    +0.151 HD
ATOM      6  H   UNL     1      -3.612  -0.945   0.599  0.00  0.00    +0.151 HD
ENDROOT
BRANCH   1   8
ATOM      7  C   UNL     1       0.083   1.834  -0.305  0.00  0.00    +0.033 C 
ATOM      8  C   UNL     1       0.103   0.318  -0.100  0.00  0.00    +0.102 C 
BRANCH   8   9
ATOM      9  C   UNL     1       0.754  -0.341  -1.288  0.00  0.00    -0.026 A 
ATOM     10  C   UNL     1       0.032  -0.537  -2.451  0.00  0.00    +0.005 A 
ATOM     11  C   UNL     1       0.626  -1.141  -3.543  0.00  0.00    +0.002 A 
ATOM     12  C   UNL     1       1.943  -1.552  -3.477  0.00  0.00    +0.023 A 
ATOM     13  C   UNL     1       2.671  -1.356  -2.310  0.00  0.00    +0.034 A 
ATOM     14  C   UNL     1       2.073  -0.744  -1.216  0.00  0.00    +0.028 A 
BRANCH  13  15
ATOM     15  N   UNL     1       4.005  -1.771  -2.239  0.00  0.00    -0.286 N 
ATOM     16  C   UNL     1       4.785  -1.723  -3.337  0.00  0.00    +0.214 C 
ATOM     17  O   UNL     1       4.361  -1.232  -4.362  0.00  0.00    -0.276 OA
ATOM     18  C   UNL     1       6.185  -2.279  -3.292  0.00  0.00    +0.109 C 
ATOM     19  H   UNL     1       4.369  -2.092  -1.399  0.00  0.00    +0.155 HD
ENDBRANCH  13  15
ENDBRANCH   8   9
ENDBRANCH   1   8
BRANCH   4  20
ATOM     20  C   UNL     1      -3.796  -0.573   2.682  0.00  0.00    +0.181 C 
BRANCH  20  21
ATOM     21  C   UNL     1      -5.191  -1.130   2.554  0.00  0.00    +0.143 A 
ATOM     22  N   UNL     1      -5.556  -2.402   2.797  0.00  0.00    -0.261 N 
ATOM     23  H   UNL     1      -4.979  -3.126   3.084  0.00  0.00    +0.190 HD
ATOM     24  N   UNL     1      -6.938  -2.474   2.554  0.00  0.00    -0.152 NA
ATOM     25  C   UNL     1      -7.321  -1.270   2.186  0.00  0.00    +0.188 A 
ATOM     26  N   UNL     1      -6.253  -0.459   2.195  0.00  0.00    -0.209 NA
BRANCH  25  27
ATOM     27  C   UNL     1      -8.701  -0.875   1.829  0.00  0.00    +0.058 A 
ATOM     28  C   UNL     1      -9.838  -1.637   1.808  0.00  0.00    +0.019 A 
ATOM     29  C   UNL     1     -11.025  -1.045   1.437  0.00  0.00    +0.008 A 
ATOM     30  C   UNL     1     -11.032   0.271   1.105  0.00  0.00    +0.046 A 
ATOM     31  S   UNL     1      -9.318   0.721   1.321  0.00  0.00    -0.093 S 
ENDBRANCH  25  27
ENDBRANCH  20  21
ENDBRANCH   4  20
TORSDOF 6
