REMARK  Name = ZINC66466676
REMARK  5 active torsions:
REMARK  status: ('A' for Active; 'I' for Inactive)
REMARK    1  A    between atoms: C_1  and  C_2
REMARK    2  A    between atoms: C_5  and  C_7
REMARK    3  A    between atoms: C_7  and  C_9
REMARK    4  A    between atoms: C_7  and  N_10
REMARK    5  A    between atoms: C_22  and  C_24
REMARK                            x       y       z     vdW  Elec       q    Type
REMARK                         _______ _______ _______ _____ _____    ______ ____
ROOT
ATOM      1  N   UNL     1       1.045  -4.008   2.046  0.00  0.00    -0.305 N 
ATOM      2  C   UNL     1       1.618  -4.664   3.109  0.00  0.00    +0.219 A 
ATOM      3  N   UNL     1       1.256  -4.330   4.321  0.00  0.00    -0.214 NA
ATOM      4  C   UNL     1       1.777  -4.932   5.417  0.00  0.00    +0.078 A 
ATOM      5  C   UNL     1       1.381  -4.566   6.707  0.00  0.00    +0.028 A 
ATOM      6  C   UNL     1       1.932  -5.201   7.796  0.00  0.00    +0.002 A 
ATOM      7  C   UNL     1       2.879  -6.203   7.632  0.00  0.00    +0.001 A 
ATOM      8  C   UNL     1       3.287  -6.581   6.371  0.00  0.00    +0.014 A 
ATOM      9  C   UNL     1       2.742  -5.952   5.254  0.00  0.00    +0.045 A 
ATOM     10  C   UNL     1       3.136  -6.313   3.888  0.00  0.00    +0.169 A 
ATOM     11  N   UNL     1       2.540  -5.642   2.855  0.00  0.00    -0.181 N 
ATOM     12  N   UNL     1       3.085  -6.180   1.681  0.00  0.00    -0.147 NA
ATOM     13  C   UNL     1       3.937  -7.107   2.042  0.00  0.00    +0.149 A 
ATOM     14  N   UNL     1       3.975  -7.184   3.369  0.00  0.00    -0.211 NA
ATOM     15  C   UNL     1       4.756  -7.949   1.098  0.00  0.00    +0.090 C 
ATOM     16  H   UNL     1       1.296  -4.242   1.139  0.00  0.00    +0.150 HD
ENDROOT
BRANCH   1  17
ATOM     17  C   UNL     1       0.054  -2.955   2.284  0.00  0.00    +0.126 C 
ATOM     18  C   UNL     1      -1.330  -3.585   2.452  0.00  0.00    +0.035 C 
BRANCH  17  23
ATOM     19  C   UNL     1      -0.018   1.503   0.010  0.00  0.00    +0.066 C 
ATOM     20  C   UNL     1       0.002  -0.004   0.002  0.00  0.00    +0.046 A 
ATOM     21  C   UNL     1       0.006  -0.708  -1.159  0.00  0.00    +0.070 A 
ATOM     22  S   UNL     1       0.033  -2.379  -0.531  0.00  0.00    -0.078 S 
ATOM     23  C   UNL     1       0.035  -2.009   1.111  0.00  0.00    +0.098 A 
ATOM     24  N   UNL     1       0.022  -0.699   1.122  0.00  0.00    -0.247 NA
ENDBRANCH  17  23
ENDBRANCH   1  17
TORSDOF 2
