REMARK  Name = ZINC63994010
REMARK  9 active torsions:
REMARK  status: ('A' for Active; 'I' for Inactive)
REMARK    1  A    between atoms: C_1  and  C_2
REMARK    2  A    between atoms: C_2  and  C_3
REMARK    3  A    between atoms: C_2  and  C_4
REMARK    4  A    between atoms: C_4  and  N_5
REMARK    5  A    between atoms: N_11  and  C_14
REMARK    6  A    between atoms: C_14  and  C_15
REMARK    7  A    between atoms: N_25  and  C_28
REMARK    8  A    between atoms: C_28  and  C_29
REMARK    9  A    between atoms: C_29  and  C_30
REMARK                            x       y       z     vdW  Elec       q    Type
REMARK                         _______ _______ _______ _____ _____    ______ ____
ROOT
ATOM      1  N   UNL     1       0.108   0.105   2.658  0.00  0.00    -0.224 N 
ATOM      2  C   UNL     1       0.339   1.109   3.530  0.00  0.00    +0.247 C 
ATOM      3  O   UNL     1       1.181   1.977   3.443  0.00  0.00    -0.273 OA
ATOM      4  C   UNL     1      -0.672   0.922   4.637  0.00  0.00    +0.112 C 
ATOM      5  C   UNL     1       0.033   0.683   5.969  0.00  0.00    +0.017 C 
ATOM      6  C   UNL     1      -1.015   0.544   7.077  0.00  0.00    -0.076 C 
ATOM      7  N   UNL     1      -1.828   1.765   7.141  0.00  0.00    +0.381 N 
ATOM      8  C   UNL     1      -2.574   1.936   5.889  0.00  0.00    -0.076 C 
ATOM      9  C   UNL     1      -1.592   2.135   4.730  0.00  0.00    +0.017 C 
ATOM     10  N   UNL     1      -1.428  -0.270   4.233  0.00  0.00    -0.271 N 
ATOM     11  C   UNL     1      -0.904  -0.674   3.060  0.00  0.00    +0.312 C 
ATOM     12  O   UNL     1      -1.302  -1.640   2.439  0.00  0.00    -0.252 OA
ATOM     13  H   UNL     1      -1.225   2.561   7.284  0.00  0.00    -0.082 HD
ENDROOT
BRANCH   1  14
ATOM     14  C   UNL     1       0.865  -0.102   1.421  0.00  0.00    +0.121 C 
BRANCH  14  16
ATOM     15  C   UNL     1       0.281   2.169   0.558  0.00  0.00    +0.009 C 
ATOM     16  C   UNL     1       0.197   0.667   0.279  0.00  0.00    +0.001 C 
ATOM     17  C   UNL     1       0.913   0.351  -1.036  0.00  0.00    +0.009 C 
ENDBRANCH  14  16
ENDBRANCH   1  14
BRANCH   7  18
ATOM     18  C   UNL     1      -2.772   1.664   8.262  0.00  0.00    -0.050 C 
BRANCH  18  19
ATOM     19  C   UNL     1      -3.533   2.983   8.408  0.00  0.00    +0.086 C 
ATOM     20  C   UNL     1      -4.376   2.963   9.664  0.00  0.00    +0.005 C 
ATOM     21  C   UNL     1      -3.922   3.977  10.436  0.00  0.00    -0.004 A 
ATOM     22  C   UNL     1      -4.320   4.473  11.758  0.00  0.00    +0.010 A 
ATOM     23  C   UNL     1      -3.664   5.532  12.286  0.00  0.00    +0.001 A 
ATOM     24  C   UNL     1      -2.617   6.165  11.602  0.00  0.00    +0.002 A 
ATOM     25  C   UNL     1      -2.195   5.767  10.383  0.00  0.00    +0.026 A 
ATOM     26  C   UNL     1      -2.814   4.662   9.735  0.00  0.00    +0.043 A 
ATOM     27  N   UNL     1      -2.590   4.095   8.572  0.00  0.00    -0.380 N 
ATOM     28  H   UNL     1      -1.915   4.365   7.930  0.00  0.00    +0.160 HD
ENDBRANCH  18  19
ENDBRANCH   7  18
BRANCH  10  29
ATOM     29  C   UNL     1      -2.538  -0.893   4.960  0.00  0.00    +0.115 C 
BRANCH  29  30
ATOM     30  C   UNL     1      -2.111  -2.277   5.451  0.00  0.00    +0.054 C 
BRANCH  30  31
ATOM     31  C   UNL     1      -3.240  -2.903   6.230  0.00  0.00    -0.046 A 
ATOM     32  C   UNL     1      -3.337  -2.697   7.593  0.00  0.00    +0.004 A 
ATOM     33  C   UNL     1      -4.372  -3.271   8.307  0.00  0.00    +0.000 A 
ATOM     34  C   UNL     1      -5.311  -4.051   7.658  0.00  0.00    +0.000 A 
ATOM     35  C   UNL     1      -5.215  -4.256   6.294  0.00  0.00    +0.000 A 
ATOM     36  C   UNL     1      -4.182  -3.678   5.579  0.00  0.00    +0.004 A 
ENDBRANCH  30  31
ENDBRANCH  29  30
ENDBRANCH  10  29
TORSDOF 7
