REMARK  Name = ZINC50526440
REMARK  2 active torsions:
REMARK  status: ('A' for Active; 'I' for Inactive)
REMARK    1  A    between atoms: C_8  and  C_20
REMARK    2  A    between atoms: C_9  and  N_11
REMARK                            x       y       z     vdW  Elec       q    Type
REMARK                         _______ _______ _______ _____ _____    ______ ____
ROOT
ATOM      1  C   UNL     1      -0.016   1.356   0.071  0.00  0.00    +0.001 A 
ATOM      2  C   UNL     1       1.170   2.087   0.098  0.00  0.00    +0.002 A 
ATOM      3  C   UNL     1       2.379   1.462   0.073  0.00  0.00    +0.028 A 
ATOM      4  C   UNL     1       2.439   0.059   0.021  0.00  0.00    +0.073 A 
ATOM      5  C   UNL     1       1.231  -0.682  -0.005  0.00  0.00    +0.001 A 
ATOM      6  C   UNL     1       0.002  -0.004   0.021  0.00  0.00    +0.010 A 
ATOM      7  C   UNL     1       1.291  -2.089  -0.058  0.00  0.00    +0.018 A 
ATOM      8  C   UNL     1       2.518  -2.683  -0.081  0.00  0.00    +0.012 A 
ATOM      9  C   UNL     1       3.675  -1.894  -0.053  0.00  0.00    +0.160 A 
ATOM     10  N   UNL     1       3.613  -0.580  -0.003  0.00  0.00    -0.228 NA
ENDROOT
BRANCH   9  11
ATOM     11  N   UNL     1       4.922  -2.516  -0.076  0.00  0.00    -0.214 N 
ATOM     12  C   UNL     1       5.969  -2.236   0.768  0.00  0.00    +0.076 A 
ATOM     13  C   UNL     1       6.146  -1.344   1.822  0.00  0.00    +0.028 A 
ATOM     14  C   UNL     1       7.349  -1.305   2.489  0.00  0.00    +0.002 A 
ATOM     15  C   UNL     1       8.391  -2.147   2.120  0.00  0.00    +0.001 A 
ATOM     16  C   UNL     1       8.241  -3.029   1.090  0.00  0.00    +0.011 A 
ATOM     17  C   UNL     1       7.027  -3.088   0.398  0.00  0.00    +0.020 A 
ATOM     18  C   UNL     1       6.536  -3.889  -0.721  0.00  0.00    +0.143 A 
ATOM     19  N   UNL     1       5.307  -3.530  -0.960  0.00  0.00    -0.172 NA
ENDBRANCH   9  11
BRANCH   8  20
ATOM     20  C   UNL     1       2.628  -4.184  -0.136  0.00  0.00    +0.147 C 
ATOM     21 CL   UNL     1       2.535  -4.731  -1.852  0.00  0.00    -0.120 Cl
ENDBRANCH   8  20
TORSDOF 2
