REMARK  Name = ZINC36039579
REMARK  8 active torsions:
REMARK  status: ('A' for Active; 'I' for Inactive)
REMARK    1  A    between atoms: C_1  and  C_2
REMARK    2  A    between atoms: C_2  and  C_3
REMARK    3  A    between atoms: C_2  and  N_4
REMARK    4  A    between atoms: N_4  and  C_5
REMARK    5  A    between atoms: C_5  and  C_6
REMARK    6  A    between atoms: C_6  and  N_8
REMARK    7  A    between atoms: C_11  and  C_22
REMARK    8  A    between atoms: N_13  and  C_14
REMARK                            x       y       z     vdW  Elec       q    Type
REMARK                         _______ _______ _______ _____ _____    ______ ____
ROOT
ATOM      1  N   UNL     1      -3.000  -3.801  -0.211  0.00  0.00    -0.148 NA
ATOM      2  C   UNL     1      -4.251  -4.263  -0.201  0.00  0.00    +0.205 A 
ATOM      3  N   UNL     1      -5.378  -3.512  -0.097  0.00  0.00    -0.326 N 
ATOM      4  C   UNL     1      -6.468  -4.373  -0.126  0.00  0.00    +0.066 A 
ATOM      5  C   UNL     1      -6.000  -5.628  -0.247  0.00  0.00    +0.120 A 
ATOM      6  N   UNL     1      -4.622  -5.567  -0.301  0.00  0.00    -0.287 N 
ATOM      7  H   UNL     1      -5.415  -2.546  -0.015  0.00  0.00    +0.169 HD
ENDROOT
BRANCH   6   8
ATOM      8  C   UNL     1      -3.756  -6.661  -0.431  0.00  0.00    +0.051 A 
ATOM      9  C   UNL     1      -2.382  -6.460  -0.463  0.00  0.00    +0.029 A 
ATOM     10  C   UNL     1      -1.529  -7.538  -0.592  0.00  0.00    +0.042 A 
ATOM     11  C   UNL     1      -2.042  -8.820  -0.689  0.00  0.00    +0.142 A 
ATOM     12  C   UNL     1      -3.413  -9.024  -0.658  0.00  0.00    +0.078 A 
ATOM     13  C   UNL     1      -4.269  -7.947  -0.523  0.00  0.00    +0.049 A 
ATOM     14 CL   UNL     1      -4.054 -10.633  -0.781  0.00  0.00    -0.081 Cl
ATOM     15  F   UNL     1      -1.206  -9.874  -0.815  0.00  0.00    -0.204 F 
ENDBRANCH   6   8
BRANCH   4  16
ATOM     16  C   UNL     1      -7.891  -3.980  -0.039  0.00  0.00    -0.000 A 
ATOM     17  C   UNL     1      -8.891  -4.953  -0.075  0.00  0.00    +0.010 A 
ATOM     18  C   UNL     1     -10.216  -4.579   0.007  0.00  0.00    +0.001 A 
ATOM     19  C   UNL     1     -10.556  -3.243   0.125  0.00  0.00    +0.000 A 
ATOM     20  C   UNL     1      -9.569  -2.273   0.161  0.00  0.00    +0.001 A 
ATOM     21  C   UNL     1      -8.240  -2.634   0.086  0.00  0.00    +0.010 A 
ENDBRANCH   4  16
BRANCH   1  22
ATOM     22  C   UNL     1      -2.773  -2.497  -0.106  0.00  0.00    +0.222 C 
ATOM     23  O   UNL     1      -3.706  -1.724  -0.001  0.00  0.00    -0.276 OA
BRANCH  22  24
ATOM     24  C   UNL     1      -1.359  -1.976  -0.116  0.00  0.00    +0.017 C 
BRANCH  24  25
ATOM     25  N   UNL     1      -1.376  -0.512   0.012  0.00  0.00    +0.386 N 
ATOM     26  H   UNL     1      -1.823  -0.256   0.880  0.00  0.00    -0.085 HD
ATOM     27  H   UNL     1      -1.888  -0.113  -0.760  0.00  0.00    -0.085 HD
BRANCH  25  29
ATOM     28  C   UNL     1      -0.019   1.526   0.010  0.00  0.00    -0.014 C 
ATOM     29  C   UNL     1       0.002  -0.004   0.002  0.00  0.00    -0.078 C 
ATOM     30  C   UNL     1       0.742  -0.511   1.242  0.00  0.00    -0.014 C 
ENDBRANCH  25  29
ENDBRANCH  24  25
ENDBRANCH  22  24
ENDBRANCH   1  22
TORSDOF 6
