REMARK  Name = ZINC06078383
REMARK  15 active torsions:
REMARK  status: ('A' for Active; 'I' for Inactive)
REMARK    1  A    between atoms: C_1  and  C_2
REMARK    2  A    between atoms: C_2  and  N_66
REMARK    3  A    between atoms: C_3  and  C_4
REMARK    4  A    between atoms: C_3  and  N_66
REMARK    5  A    between atoms: C_5  and  C_6
REMARK    6  A    between atoms: C_5  and  N_66
REMARK    7  A    between atoms: C_6  and  N_7
REMARK    8  A    between atoms: N_7  and  C_8
REMARK    9  A    between atoms: N_7  and  C_22
REMARK   10  A    between atoms: C_8  and  C_9
REMARK   11  A    between atoms: C_14  and  C_21
REMARK   12  A    between atoms: C_22  and  N_24
REMARK   13  A    between atoms: N_24  and  C_25
REMARK   14  A    between atoms: C_29  and  C_32
REMARK   15  A    between atoms: C_30  and  C_31
REMARK                            x       y       z     vdW  Elec       q    Type
REMARK                         _______ _______ _______ _____ _____    ______ ____
ROOT
ATOM      1  N   UNL     1       1.120  -0.805  -0.013  0.00  0.00    -0.310 N 
ENDROOT
BRANCH   1   2
ATOM      2  C   UNL     1      -0.011  -0.073  -0.067  0.00  0.00    +0.137 C 
ATOM      3  S   UNL     1      -1.518  -0.799   0.296  0.00  0.00    -0.018 S 
BRANCH   2   4
ATOM      4  N   UNL     1       0.045   1.230  -0.408  0.00  0.00    -0.297 N 
ATOM      5  H   UNL     1       0.904   1.657  -0.552  0.00  0.00    +0.154 HD
BRANCH   4   6
ATOM      6  C   UNL     1      -1.136   1.964  -0.558  0.00  0.00    +0.036 A 
ATOM      7  C   UNL     1      -2.258   1.371  -1.121  0.00  0.00    +0.023 A 
ATOM      8  C   UNL     1      -3.422   2.099  -1.268  0.00  0.00    +0.002 A 
ATOM      9  C   UNL     1      -3.471   3.418  -0.855  0.00  0.00    +0.004 A 
ATOM     10  C   UNL     1      -2.356   4.012  -0.295  0.00  0.00    -0.046 A 
ATOM     11  C   UNL     1      -1.190   3.288  -0.141  0.00  0.00    -0.026 A 
ATOM     12  C   UNL     1       0.024   3.934   0.476  0.00  0.00    +0.046 C 
ATOM     13  C   UNL     1      -2.414   5.450   0.154  0.00  0.00    +0.044 C 
ENDBRANCH   4   6
ENDBRANCH   2   4
ENDBRANCH   1   2
BRANCH   1  14
ATOM     14  C   UNL     1       2.420  -0.160  -0.213  0.00  0.00    +0.088 C 
BRANCH  14  15
ATOM     15  C   UNL     1       2.966   0.315   1.135  0.00  0.00    -0.060 C 
BRANCH  15  16
ATOM     16  N   UNL     1       4.229   1.047   0.904  0.00  0.00    +0.380 N 
ATOM     17  H   UNL     1       4.784   0.541   0.203  0.00  0.00    -0.082 HD
BRANCH  16  19
ATOM     18  C   UNL     1       5.253   3.057  -0.043  0.00  0.00    -0.017 C 
ATOM     19  C   UNL     1       3.941   2.405   0.399  0.00  0.00    -0.082 C 
ENDBRANCH  16  19
BRANCH  16  20
ATOM     20  C   UNL     1       5.003   1.128   2.160  0.00  0.00    -0.082 C 
ATOM     21  C   UNL     1       5.677  -0.223   2.410  0.00  0.00    -0.017 C 
ENDBRANCH  16  20
ENDBRANCH  15  16
ENDBRANCH  14  15
ENDBRANCH   1  14
BRANCH   1  22
ATOM     22  C   UNL     1       1.049  -2.245   0.246  0.00  0.00    +0.147 C 
BRANCH  22  23
ATOM     23  C   UNL     1       0.833  -2.979  -1.053  0.00  0.00    +0.035 A 
ATOM     24  C   UNL     1      -0.425  -3.286  -1.454  0.00  0.00    +0.020 A 
ATOM     25  C   UNL     1      -0.600  -3.999  -2.721  0.00  0.00    -0.001 A 
ATOM     26  C   UNL     1      -1.874  -4.343  -3.187  0.00  0.00    +0.010 A 
ATOM     27  C   UNL     1      -2.003  -5.008  -4.373  0.00  0.00    +0.004 A 
ATOM     28  C   UNL     1      -0.883  -5.346  -5.120  0.00  0.00    -0.048 A 
ATOM     29  C   UNL     1       0.381  -5.017  -4.680  0.00  0.00    +0.029 A 
ATOM     30  C   UNL     1       0.538  -4.340  -3.475  0.00  0.00    +0.049 A 
ATOM     31  N   UNL     1       1.790  -3.998  -3.011  0.00  0.00    -0.322 N 
ATOM     32  H   UNL     1       2.598  -4.245  -3.546  0.00  0.00    +0.169 HD
ATOM     33  C   UNL     1       1.941  -3.339  -1.849  0.00  0.00    +0.254 A 
ATOM     34  O   UNL     1       3.063  -3.049  -1.472  0.00  0.00    -0.268 OA
ATOM     35  C   UNL     1      -1.050  -6.080  -6.426  0.00  0.00    +0.044 C 
ENDBRANCH  22  23
ENDBRANCH   1  22
TORSDOF 10
