REMARK  Name = ZINC10657343
REMARK  7 active torsions:
REMARK  status: ('A' for Active; 'I' for Inactive)
REMARK    1  A    between atoms: C_1  and  C_2
REMARK    2  A    between atoms: C_4  and  C_26
REMARK    3  A    between atoms: C_5  and  S_9
REMARK    4  A    between atoms: C_6  and  C_8
REMARK    5  A    between atoms: S_9  and  N_12
REMARK    6  A    between atoms: N_12  and  C_13
REMARK    7  A    between atoms: C_18  and  C_19
REMARK                            x       y       z     vdW  Elec       q    Type
REMARK                         _______ _______ _______ _____ _____    ______ ____
ROOT
ATOM      1  N   UNL     1       4.427  -1.222  -0.296  0.00  0.00    -0.215 N 
ATOM      2  H   UNL     1       4.547  -2.158  -0.518  0.00  0.00    +0.174 HD
ENDROOT
BRANCH   1   3
ATOM      3  C   UNL     1       4.880  -0.237  -1.166  0.00  0.00    +0.066 A 
ATOM      4  C   UNL     1       4.009   0.336  -2.082  0.00  0.00    +0.074 A 
ATOM      5  C   UNL     1       4.463   1.321  -2.943  0.00  0.00    +0.164 A 
ATOM      6  C   UNL     1       5.794   1.732  -2.905  0.00  0.00    +0.163 A 
ATOM      7  C   UNL     1       6.672   1.169  -2.005  0.00  0.00    +0.066 A 
ATOM      8  C   UNL     1       6.222   0.177  -1.124  0.00  0.00    +0.089 A 
ATOM      9  O   UNL     1       6.224   2.700  -3.768  0.00  0.00    -0.488 OA
ATOM     10  C   UNL     1       5.702   4.011  -3.548  0.00  0.00    +0.232 C 
ATOM     11  C   UNL     1       4.347   4.172  -4.220  0.00  0.00    +0.082 C 
ATOM     12  C   UNL     1       3.289   3.264  -3.614  0.00  0.00    +0.232 C 
ATOM     13  O   UNL     1       3.610   1.890  -3.841  0.00  0.00    -0.488 OA
BRANCH   8  14
ATOM     14  C   UNL     1       7.152  -0.430  -0.160  0.00  0.00    +0.388 C 
ATOM     15  O   UNL     1       6.759  -1.292   0.603  0.00  0.00    -0.241 OA
ATOM     16  O   UNL     1       8.439  -0.032  -0.122  0.00  0.00    -0.241 OA
ENDBRANCH   8  14
ENDBRANCH   1   3
BRANCH   1  17
ATOM     17  S   UNL     1       3.683  -0.796   1.121  0.00  0.00    +0.073 S 
ATOM     18  O   UNL     1       4.519   0.170   1.745  0.00  0.00    -0.150 OA
ATOM     19  O   UNL     1       3.309  -2.008   1.763  0.00  0.00    -0.150 OA
BRANCH  17  24
ATOM     20  C   UNL     1      -1.442   2.038  -0.328  0.00  0.00    +0.044 C 
ATOM     21  C   UNL     1      -0.161   1.330   0.029  0.00  0.00    -0.050 A 
ATOM     22  C   UNL     1      -0.148  -0.045   0.173  0.00  0.00    +0.008 A 
ATOM     23  C   UNL     1       1.026  -0.694   0.506  0.00  0.00    -0.023 A 
ATOM     24  C   UNL     1       2.187   0.031   0.696  0.00  0.00    +0.114 A 
ATOM     25  C   UNL     1       2.175   1.406   0.552  0.00  0.00    -0.023 A 
ATOM     26  C   UNL     1       1.001   2.055   0.218  0.00  0.00    +0.008 A 
ATOM     27  C   UNL     1       3.441   2.197   0.759  0.00  0.00    +0.046 C 
ATOM     28  C   UNL     1       1.040  -2.193   0.663  0.00  0.00    +0.046 C 
ENDBRANCH  17  24
ENDBRANCH   1  17
TORSDOF 4
