REMARK  Name = ZINC00179983
REMARK  3 active torsions:
REMARK  status: ('A' for Active; 'I' for Inactive)
REMARK    1  A    between atoms: C_1  and  C_2
REMARK    2  A    between atoms: C_5  and  C_8
REMARK    3  A    between atoms: N_10  and  C_15
REMARK                            x       y       z     vdW  Elec       q    Type
REMARK                         _______ _______ _______ _____ _____    ______ ____
ROOT
ATOM      1  C   UNL     1      -2.692   3.061   4.873  0.00  0.00    +0.170 C 
ATOM      2  N   UNL     1      -3.943   3.695   4.417  0.00  0.00    -0.254 N 
ATOM      3  C   UNL     1      -5.095   3.318   4.960  0.00  0.00    +0.231 C 
ATOM      4  O   UNL     1      -6.145   3.818   4.615  0.00  0.00    -0.274 OA
ATOM      5  C   UNL     1      -5.050   2.238   6.029  0.00  0.00    +0.167 C 
ATOM      6  S   UNL     1      -3.339   1.592   5.782  0.00  0.00    -0.124 S 
ENDROOT
BRANCH   1  11
ATOM      7  C   UNL     1       0.577   1.452   0.388  0.00  0.00    +0.044 C 
ATOM      8  C   UNL     1      -0.276   1.871   1.557  0.00  0.00    -0.050 A 
ATOM      9  C   UNL     1      -1.647   1.967   1.414  0.00  0.00    +0.004 A 
ATOM     10  C   UNL     1      -2.430   2.347   2.489  0.00  0.00    +0.006 A 
ATOM     11  C   UNL     1      -1.839   2.642   3.704  0.00  0.00    -0.017 A 
ATOM     12  C   UNL     1      -0.467   2.552   3.845  0.00  0.00    +0.006 A 
ATOM     13  C   UNL     1       0.315   2.167   2.772  0.00  0.00    +0.004 A 
ENDBRANCH   1  11
BRANCH   2  14
ATOM     14  C   UNL     1      -3.916   4.681   3.424  0.00  0.00    +0.038 A 
ATOM     15  C   UNL     1      -4.638   4.505   2.251  0.00  0.00    +0.024 A 
ATOM     16  C   UNL     1      -4.614   5.482   1.275  0.00  0.00    +0.017 A 
ATOM     17  C   UNL     1      -3.864   6.630   1.461  0.00  0.00    +0.018 A 
ATOM     18  C   UNL     1      -3.139   6.804   2.627  0.00  0.00    +0.017 A 
ATOM     19  C   UNL     1      -3.164   5.833   3.608  0.00  0.00    +0.024 A 
ATOM     20 BR   UNL     1      -3.828   7.962   0.120  0.00  0.00    -0.050 Br
ENDBRANCH   2  14
TORSDOF 2
