REMARK  Name = ZINC27551832
REMARK  5 active torsions:
REMARK  status: ('A' for Active; 'I' for Inactive)
REMARK    1  A    between atoms: C_4  and  C_7
REMARK    2  A    between atoms: C_12  and  C_26
REMARK    3  A    between atoms: C_14  and  C_24
REMARK    4  A    between atoms: C_15  and  N_23
REMARK    5  A    between atoms: N_16  and  N_17
REMARK                            x       y       z     vdW  Elec       q    Type
REMARK                         _______ _______ _______ _____ _____    ______ ____
ROOT
ATOM      1  C   UNL     1       3.671   3.608   3.508  0.00  0.00    +0.032 C 
ATOM      2  C   UNL     1       4.735   3.583   2.409  0.00  0.00    +0.061 C 
ATOM      3  C   UNL     1       4.125   3.077   1.125  0.00  0.00    +0.037 C 
ATOM      4  C   UNL     1       3.106   2.191   1.140  0.00  0.00    +0.026 C 
ATOM      5  C   UNL     1       2.501   1.685  -0.145  0.00  0.00    +0.099 C 
ATOM      6  C   UNL     1       3.414   1.933  -1.309  0.00  0.00    +0.078 C 
ATOM      7  C   UNL     1       4.426   2.836  -1.226  0.00  0.00    +0.117 C 
ATOM      8  N   UNL     1       4.633   3.534  -0.061  0.00  0.00    -0.223 N 
ATOM      9  C   UNL     1       2.577   1.716   2.353  0.00  0.00    +0.162 C 
ATOM     10  O   UNL     1       1.671   0.907   2.332  0.00  0.00    -0.292 OA
ATOM     11  C   UNL     1       3.113   2.190   3.676  0.00  0.00    +0.088 C 
ENDROOT
BRANCH   5  12
ATOM     12  C   UNL     1       1.191   2.390  -0.386  0.00  0.00    -0.016 A 
ATOM     13  C   UNL     1       1.160   3.766  -0.515  0.00  0.00    +0.006 A 
ATOM     14  C   UNL     1      -0.041   4.413  -0.736  0.00  0.00    +0.000 A 
ATOM     15  C   UNL     1      -1.213   3.685  -0.827  0.00  0.00    +0.001 A 
ATOM     16  C   UNL     1      -1.183   2.309  -0.702  0.00  0.00    +0.020 A 
ATOM     17  C   UNL     1       0.019   1.661  -0.476  0.00  0.00    +0.045 A 
ATOM     18 CL   UNL     1       0.056  -0.067  -0.314  0.00  0.00    -0.083 Cl
ENDBRANCH   5  12
BRANCH   1  22
ATOM     19  C   UNL     1       5.429   4.901   7.180  0.00  0.00    +0.000 A 
ATOM     20  C   UNL     1       4.377   5.609   6.630  0.00  0.00    +0.000 A 
ATOM     21  C   UNL     1       3.808   5.191   5.442  0.00  0.00    +0.004 A 
ATOM     22  C   UNL     1       4.291   4.064   4.803  0.00  0.00    -0.044 A 
ATOM     23  C   UNL     1       5.340   3.353   5.355  0.00  0.00    +0.004 A 
ATOM     24  C   UNL     1       5.913   3.775   6.541  0.00  0.00    +0.000 A 
ENDBRANCH   1  22
BRANCH   8  25
ATOM     25  N   UNL     1       5.353   4.695  -0.086  0.00  0.00    -0.217 NA
ATOM     26  C   UNL     1       6.636   4.535   0.615  0.00  0.00    +0.134 C 
ATOM     27  C   UNL     1       7.433   5.838   0.511  0.00  0.00    +0.177 C 
ATOM     28  O   UNL     1       6.654   6.912   1.046  0.00  0.00    -0.377 OA
ATOM     29  C   UNL     1       5.399   7.096   0.386  0.00  0.00    +0.177 C 
ATOM     30  C   UNL     1       4.581   5.806   0.488  0.00  0.00    +0.134 C 
ENDBRANCH   8  25
BRANCH   7  31
ATOM     31  N   UNL     1       5.244   3.050  -2.309  0.00  0.00    -0.344 N 
ATOM     32  H   UNL     1       6.064   3.781  -2.243  0.00  0.00    +0.144 HD
ATOM     33  H   UNL     1       5.079   2.492  -3.243  0.00  0.00    +0.144 HD
ENDBRANCH   7  31
BRANCH   6  34
ATOM     34  C   UNL     1       3.217   1.206  -2.527  0.00  0.00    +0.099 C 
ATOM     35  N   UNL     1       3.060   0.629  -3.493  0.00  0.00    -0.191 NA
ENDBRANCH   6  34
TORSDOF 5
