REMARK  Name = ZINC41020091
REMARK  6 active torsions:
REMARK  status: ('A' for Active; 'I' for Inactive)
REMARK    1  A    between atoms: C_1  and  C_2
REMARK    2  A    between atoms: C_6  and  N_9
REMARK    3  A    between atoms: C_7  and  C_8
REMARK    4  A    between atoms: C_10  and  C_12
REMARK    5  A    between atoms: C_13  and  C_29
REMARK    6  A    between atoms: C_20  and  C_22
REMARK                            x       y       z     vdW  Elec       q    Type
REMARK                         _______ _______ _______ _____ _____    ______ ____
ROOT
ATOM      1  C   UNL     1       0.112  -5.037   3.493  0.00  0.00    +0.060 C 
ATOM      2  C   UNL     1       0.190  -6.368   3.347  0.00  0.00    +0.018 C 
ATOM      3  N   UNL     1       0.233  -7.221   4.422  0.00  0.00    -0.287 N 
ATOM      4  C   UNL     1       0.457  -6.662   5.673  0.00  0.00    +0.218 A 
ATOM      5  N   UNL     1       0.760  -7.231   6.807  0.00  0.00    -0.201 NA
ATOM      6  C   UNL     1       0.889  -6.298   7.755  0.00  0.00    +0.247 A 
ATOM      7  N   UNL     1       0.668  -5.118   7.231  0.00  0.00    -0.156 NA
ATOM      8  N   UNL     1       0.382  -5.325   5.882  0.00  0.00    -0.221 N 
ATOM      9  C   UNL     1       0.059  -4.360   4.837  0.00  0.00    +0.177 C 
ATOM     10  C   UNL     1       0.231  -6.946   1.956  0.00  0.00    +0.061 C 
ATOM     11  H   UNL     1       0.111  -8.177   4.312  0.00  0.00    +0.155 HD
ENDROOT
BRANCH   9  12
ATOM     12  C   UNL     1      -1.328  -3.817   5.071  0.00  0.00    -0.017 A 
ATOM     13  C   UNL     1      -2.411  -4.676   5.092  0.00  0.00    +0.006 A 
ATOM     14  C   UNL     1      -3.683  -4.179   5.307  0.00  0.00    +0.001 A 
ATOM     15  C   UNL     1      -3.872  -2.823   5.501  0.00  0.00    +0.015 A 
ATOM     16  C   UNL     1      -2.788  -1.964   5.481  0.00  0.00    +0.018 A 
ATOM     17  C   UNL     1      -1.515  -2.463   5.271  0.00  0.00    +0.021 A 
ATOM     18 BR   UNL     1      -3.046  -0.110   5.746  0.00  0.00    -0.050 Br
ENDBRANCH   9  12
BRANCH   1  20
ATOM     19  N   UNL     1      -1.081  -4.002   1.697  0.00  0.00    -0.281 N 
ATOM     20  C   UNL     1       0.086  -4.231   2.331  0.00  0.00    +0.248 C 
ATOM     21  O   UNL     1       1.117  -3.745   1.903  0.00  0.00    -0.270 OA
ATOM     22  H   UNL     1      -1.913  -4.320   2.081  0.00  0.00    +0.155 HD
BRANCH  19  28
ATOM     23  C   UNL     1      -3.482  -1.196  -1.548  0.00  0.00    +0.044 C 
ATOM     24  C   UNL     1      -2.244  -1.936  -1.113  0.00  0.00    -0.046 A 
ATOM     25  C   UNL     1      -1.116  -1.926  -1.915  0.00  0.00    +0.004 A 
ATOM     26  C   UNL     1       0.022  -2.604  -1.520  0.00  0.00    +0.002 A 
ATOM     27  C   UNL     1       0.037  -3.294  -0.323  0.00  0.00    +0.023 A 
ATOM     28  C   UNL     1      -1.093  -3.305   0.484  0.00  0.00    +0.037 A 
ATOM     29  C   UNL     1      -2.233  -2.618   0.087  0.00  0.00    -0.026 A 
ATOM     30  C   UNL     1      -3.460  -2.623   0.963  0.00  0.00    +0.046 C 
ENDBRANCH  19  28
ENDBRANCH   1  20
TORSDOF 3
