REMARK  Name = ZINC41084853
REMARK  8 active torsions:
REMARK  status: ('A' for Active; 'I' for Inactive)
REMARK    1  A    between atoms: C_1  and  C_2
REMARK    2  A    between atoms: C_4  and  C_18
REMARK    3  A    between atoms: C_5  and  C_17
REMARK    4  A    between atoms: N_6  and  C_7
REMARK    5  A    between atoms: C_9  and  O_15
REMARK    6  A    between atoms: C_12  and  O_13
REMARK    7  A    between atoms: O_13  and  C_14
REMARK    8  A    between atoms: O_15  and  C_16
REMARK                            x       y       z     vdW  Elec       q    Type
REMARK                         _______ _______ _______ _____ _____    ______ ____
ROOT
ATOM      1  C   UNL     1       0.042  -3.340  -1.427  0.00  0.00    +0.026 C 
ATOM      2  C   UNL     1      -0.649  -3.368  -2.621  0.00  0.00    +0.081 C 
ATOM      3  C   UNL     1      -0.759  -4.611  -3.434  0.00  0.00    +0.153 C 
ATOM      4  N   UNL     1      -0.813  -5.808  -2.912  0.00  0.00    -0.283 NA
ATOM      5  N   UNL     1      -0.801  -4.369  -4.823  0.00  0.00    -0.150 N 
ATOM      6  C   UNL     1      -1.227  -3.128  -5.240  0.00  0.00    +0.182 C 
ATOM      7  N   UNL     1      -1.515  -2.091  -4.495  0.00  0.00    -0.152 NA
ATOM      8  C   UNL     1      -1.326  -2.165  -3.160  0.00  0.00    +0.273 C 
ATOM      9  O   UNL     1      -1.697  -1.268  -2.420  0.00  0.00    -0.268 OA
ATOM     10  S   UNL     1      -1.254  -3.315  -7.003  0.00  0.00    -0.018 S 
ATOM     11  C   UNL     1      -0.606  -4.979  -7.074  0.00  0.00    +0.182 C 
ATOM     12  N   UNL     1      -0.461  -5.274  -5.806  0.00  0.00    -0.149 NA
ATOM     13  N   UNL     1      -0.328  -5.758  -8.185  0.00  0.00    -0.308 N 
ATOM     14  C   UNL     1       0.200  -7.121  -8.032  0.00  0.00    +0.107 C 
ATOM     15  C   UNL     1      -0.695  -8.088  -8.814  0.00  0.00    +0.019 C 
ATOM     16  C   UNL     1      -0.803  -7.615 -10.265  0.00  0.00    +0.003 C 
ATOM     17  C   UNL     1      -1.442  -6.226 -10.306  0.00  0.00    +0.019 C 
ATOM     18  C   UNL     1      -0.562  -5.240  -9.540  0.00  0.00    +0.107 C 
ATOM     19  H   UNL     1      -0.885  -6.586  -3.487  0.00  0.00    +0.188 HD
ENDROOT
BRANCH   1  23
ATOM     20  C   UNL     1       0.909   1.558  -0.546  0.00  0.00    +0.064 C 
ATOM     21  C   UNL     1       0.651   0.082  -0.384  0.00  0.00    +0.022 A 
ATOM     22  C   UNL     1       0.489  -0.794  -1.389  0.00  0.00    +0.031 A 
ATOM     23  C   UNL     1       0.265  -2.106  -0.765  0.00  0.00    -0.003 A 
ATOM     24  C   UNL     1       0.316  -1.888   0.602  0.00  0.00    +0.028 A 
ATOM     25  N   UNL     1       0.552  -0.578   0.809  0.00  0.00    -0.314 N 
ATOM     26  C   UNL     1       0.142  -2.936   1.672  0.00  0.00    +0.064 C 
BRANCH  25  27
ATOM     27  C   UNL     1       0.676   0.024   2.070  0.00  0.00    +0.092 A 
ATOM     28  C   UNL     1      -0.446   0.525   2.714  0.00  0.00    +0.075 A 
ATOM     29  C   UNL     1      -0.320   1.119   3.959  0.00  0.00    +0.122 A 
ATOM     30  C   UNL     1       0.926   1.214   4.562  0.00  0.00    +0.049 A 
ATOM     31  C   UNL     1       2.045   0.716   3.922  0.00  0.00    +0.051 A 
ATOM     32  C   UNL     1       1.925   0.116   2.680  0.00  0.00    +0.144 A 
BRANCH  32  33
ATOM     33  O   UNL     1       3.026  -0.380   2.053  0.00  0.00    -0.493 OA
ATOM     34  C   UNL     1       4.274  -0.251   2.738  0.00  0.00    +0.277 C 
ENDBRANCH  32  33
BRANCH  29  35
ATOM     35  O   UNL     1      -1.420   1.610   4.591  0.00  0.00    -0.495 OA
ATOM     36  C   UNL     1      -1.218   2.210   5.873  0.00  0.00    +0.277 C 
ENDBRANCH  29  35
ENDBRANCH  25  27
ENDBRANCH   1  23
TORSDOF 4
