REMARK  Name = ZINC27558402
REMARK  12 active torsions:
REMARK  status: ('A' for Active; 'I' for Inactive)
REMARK    1  A    between atoms: C_1  and  C_2
REMARK    2  A    between atoms: C_2  and  C_4
REMARK    3  A    between atoms: C_2  and  N_11
REMARK    4  A    between atoms: N_11  and  C_12
REMARK    5  A    between atoms: N_11  and  C_13
REMARK    6  A    between atoms: C_13  and  C_14
REMARK    7  A    between atoms: N_16  and  C_17
REMARK    8  A    between atoms: C_20  and  S_23
REMARK    9  A    between atoms: S_23  and  N_26
REMARK   10  A    between atoms: N_26  and  C_27
REMARK   11  A    between atoms: N_26  and  C_28
REMARK   12  A    between atoms: C_28  and  C_29
REMARK                            x       y       z     vdW  Elec       q    Type
REMARK                         _______ _______ _______ _____ _____    ______ ____
ROOT
ATOM      1  C   UNL     1       1.212  -0.681  -0.008  0.00  0.00    +0.033 A 
ATOM      2  C   UNL     1       0.013  -0.008   0.186  0.00  0.00    +0.025 A 
ATOM      3  C   UNL     1      -0.008   1.373   0.198  0.00  0.00    +0.030 A 
ATOM      4  C   UNL     1       1.163   2.086   0.018  0.00  0.00    +0.106 A 
ATOM      5  C   UNL     1       2.359   1.419  -0.175  0.00  0.00    +0.030 A 
ATOM      6  C   UNL     1       2.387   0.038  -0.189  0.00  0.00    +0.025 A 
ENDROOT
BRANCH   1   9
ATOM      7  C   UNL     1       0.186  -2.768  -0.507  0.00  0.00    +0.201 C 
ATOM      8  O   UNL     1      -0.741  -2.177  -1.021  0.00  0.00    -0.278 OA
ATOM      9  N   UNL     1       1.237  -2.079  -0.020  0.00  0.00    -0.287 N 
ATOM     10  H   UNL     1       2.115  -2.618   0.367  0.00  0.00    +0.155 HD
BRANCH   7  11
ATOM     11  C   UNL     1       0.160  -4.272  -0.412  0.00  0.00    +0.019 C 
BRANCH  11  12
ATOM     12  N   UNL     1      -1.082  -4.779  -1.009  0.00  0.00    +0.388 N 
ATOM     13  C   UNL     1      -1.117  -4.519  -2.454  0.00  0.00    -0.095 C 
ATOM     14  H   UNL     1      -1.923  -4.240  -0.549  0.00  0.00    -0.081 HD
BRANCH  12  16
ATOM     15  C   UNL     1      -1.313  -6.429   0.786  0.00  0.00    -0.008 C 
ATOM     16  C   UNL     1      -1.256  -6.210  -0.727  0.00  0.00    -0.041 C 
BRANCH  16  17
ATOM     17  C   UNL     1      -2.538  -6.694  -1.354  0.00  0.00    -0.061 A 
ATOM     18  C   UNL     1      -3.669  -5.901  -1.312  0.00  0.00    +0.005 A 
ATOM     19  C   UNL     1      -4.844  -6.341  -1.891  0.00  0.00    +0.038 A 
ATOM     20  C   UNL     1      -4.891  -7.582  -2.503  0.00  0.00    +0.123 A 
ATOM     21  C   UNL     1      -3.759  -8.378  -2.540  0.00  0.00    +0.038 A 
ATOM     22  C   UNL     1      -2.583  -7.933  -1.965  0.00  0.00    +0.005 A 
ATOM     23  F   UNL     1      -6.041  -8.016  -3.064  0.00  0.00    -0.205 F 
ENDBRANCH  16  17
ENDBRANCH  12  16
ENDBRANCH  11  12
ENDBRANCH   7  11
ENDBRANCH   1   9
BRANCH   4  24
ATOM     24  S   UNL     1       1.132   3.847   0.034  0.00  0.00    +0.061 S 
ATOM     25  O   UNL     1       2.269   4.281  -0.700  0.00  0.00    -0.153 OA
ATOM     26  O   UNL     1      -0.191   4.233  -0.312  0.00  0.00    -0.153 OA
BRANCH  24  27
ATOM     27  N   UNL     1       1.371   4.327   1.601  0.00  0.00    -0.175 NA
ATOM     28  C   UNL     1       0.223   4.515   2.492  0.00  0.00    +0.132 C 
BRANCH  27  29
ATOM     29  C   UNL     1       2.729   4.563   2.097  0.00  0.00    +0.144 C 
BRANCH  29  30
ATOM     30  C   UNL     1       3.060   6.028   1.977  0.00  0.00    -0.032 A 
ATOM     31  C   UNL     1       3.650   6.511   0.824  0.00  0.00    +0.005 A 
ATOM     32  C   UNL     1       3.949   7.856   0.712  0.00  0.00    +0.000 A 
ATOM     33  C   UNL     1       3.667   8.716   1.757  0.00  0.00    +0.000 A 
ATOM     34  C   UNL     1       3.081   8.232   2.912  0.00  0.00    +0.000 A 
ATOM     35  C   UNL     1       2.777   6.888   3.022  0.00  0.00    +0.005 A 
ENDBRANCH  29  30
ENDBRANCH  27  29
ENDBRANCH  24  27
ENDBRANCH   4  24
TORSDOF 9
