REMARK  Name = ZINC67649111
REMARK  7 active torsions:
REMARK  status: ('A' for Active; 'I' for Inactive)
REMARK    1  A    between atoms: C_1  and  C_2
REMARK    2  A    between atoms: C_2  and  C_4
REMARK    3  A    between atoms: C_2  and  N_15
REMARK    4  A    between atoms: N_9  and  C_10
REMARK    5  A    between atoms: C_10  and  C_11
REMARK    6  A    between atoms: N_18  and  C_21
REMARK    7  A    between atoms: C_21  and  C_22
REMARK                            x       y       z     vdW  Elec       q    Type
REMARK                         _______ _______ _______ _____ _____    ______ ____
ROOT
ATOM      1  C   UNL     1      -0.019   1.526   0.010  0.00  0.00    +0.034 C 
ATOM      2  C   UNL     1       0.002  -0.004   0.002  0.00  0.00    +0.140 C 
ENDROOT
BRANCH   2   3
ATOM      3  C   UNL     1       0.731  -0.503   1.223  0.00  0.00    +0.237 C 
ATOM      4  O   UNL     1       0.159  -1.212   2.023  0.00  0.00    -0.274 OA
ATOM      5  N   UNL     1       2.019  -0.161   1.426  0.00  0.00    -0.239 N 
ATOM      6  C   UNL     1       2.671  -0.608   2.518  0.00  0.00    +0.306 C 
ATOM      7  O   UNL     1       2.097  -1.319   3.319  0.00  0.00    -0.252 OA
ATOM      8  N   UNL     1       3.958  -0.266   2.720  0.00  0.00    -0.291 N 
ATOM      9  H   UNL     1       2.476   0.406   0.786  0.00  0.00    +0.159 HD
ATOM     10  H   UNL     1       4.416   0.302   2.081  0.00  0.00    +0.151 HD
BRANCH   8  11
ATOM     11  C   UNL     1       4.667  -0.751   3.907  0.00  0.00    +0.219 C 
BRANCH  11  12
ATOM     12  C   UNL     1       6.102  -0.222   3.897  0.00  0.00    +0.405 C 
ATOM     13  F   UNL     1       6.083   1.177   3.904  0.00  0.00    -0.169 F 
ATOM     14  F   UNL     1       6.779  -0.685   5.030  0.00  0.00    -0.169 F 
ATOM     15  F   UNL     1       6.757  -0.673   2.745  0.00  0.00    -0.169 F 
ENDBRANCH  11  12
ENDBRANCH   8  11
ENDBRANCH   2   3
BRANCH   2  16
ATOM     16  N   UNL     1      -1.376  -0.512   0.012  0.00  0.00    -0.295 NA
ATOM     17  C   UNL     1      -2.141   0.061   1.129  0.00  0.00    +0.066 C 
ATOM     18  C   UNL     1      -3.549  -0.537   1.139  0.00  0.00    -0.063 C 
ATOM     19  N   UNL     1      -4.216  -0.243  -0.136  0.00  0.00    +0.382 N 
ATOM     20  C   UNL     1      -3.454  -0.844  -1.239  0.00  0.00    -0.063 C 
ATOM     21  C   UNL     1      -2.045  -0.248  -1.269  0.00  0.00    +0.066 C 
ATOM     22  H   UNL     1      -4.266   0.756  -0.267  0.00  0.00    -0.082 HD
BRANCH  19  23
ATOM     23  C   UNL     1      -5.574  -0.803  -0.118  0.00  0.00    -0.075 C 
BRANCH  23  24
ATOM     24  C   UNL     1      -6.312  -0.391  -1.393  0.00  0.00    -0.028 C 
ATOM     25  C   UNL     1      -6.500   1.127  -1.406  0.00  0.00    +0.002 C 
ATOM     26  C   UNL     1      -7.238   1.539  -2.682  0.00  0.00    +0.000 C 
ATOM     27  C   UNL     1      -8.606   0.856  -2.723  0.00  0.00    +0.000 C 
ATOM     28  C   UNL     1      -8.418  -0.663  -2.710  0.00  0.00    +0.000 C 
ATOM     29  C   UNL     1      -7.680  -1.075  -1.434  0.00  0.00    +0.002 C 
ENDBRANCH  23  24
ENDBRANCH  19  23
ENDBRANCH   2  16
TORSDOF 6
