REMARK  Name = ZINC41950028
REMARK  7 active torsions:
REMARK  status: ('A' for Active; 'I' for Inactive)
REMARK    1  A    between atoms: C_1  and  C_2
REMARK    2  A    between atoms: C_5  and  N_13
REMARK    3  A    between atoms: C_7  and  N_8
REMARK    4  A    between atoms: C_14  and  C_16
REMARK    5  A    between atoms: N_18  and  C_19
REMARK    6  A    between atoms: C_19  and  C_20
REMARK    7  A    between atoms: C_21  and  C_25
REMARK                            x       y       z     vdW  Elec       q    Type
REMARK                         _______ _______ _______ _____ _____    ______ ____
ROOT
ATOM      1  N   UNL     1      -0.036  -4.358  -0.443  0.00  0.00    -0.278 N 
ATOM      2  C   UNL     1      -0.141  -4.894  -1.675  0.00  0.00    +0.303 C 
ATOM      3  O   UNL     1      -0.289  -4.173  -2.640  0.00  0.00    -0.265 OA
ATOM      4  H   UNL     1       0.008  -4.935   0.335  0.00  0.00    +0.155 HD
ENDROOT
BRANCH   1   9
ATOM      5  C   UNL     1       0.143   1.278   0.205  0.00  0.00    +0.046 C 
ATOM      6  C   UNL     1       0.096  -0.218   0.032  0.00  0.00    -0.025 A 
ATOM      7  C   UNL     1      -0.509  -1.006   0.993  0.00  0.00    +0.007 A 
ATOM      8  C   UNL     1      -0.554  -2.378   0.838  0.00  0.00    +0.024 A 
ATOM      9  C   UNL     1       0.009  -2.970  -0.286  0.00  0.00    +0.036 A 
ATOM     10  C   UNL     1       0.616  -2.181  -1.254  0.00  0.00    +0.051 A 
ATOM     11  C   UNL     1       0.655  -0.803  -1.097  0.00  0.00    +0.073 A 
BRANCH  11  12
ATOM     12  N   UNL     1       1.263  -0.002  -2.075  0.00  0.00    -0.200 N 
ATOM     13  C   UNL     1       2.459  -0.201  -2.669  0.00  0.00    +0.250 A 
ATOM     14  N   UNL     1       2.639   0.780  -3.515  0.00  0.00    -0.116 NA
ATOM     15  N   UNL     1       1.639   1.584  -3.496  0.00  0.00    -0.023 NA
ATOM     16  N   UNL     1       0.755   1.176  -2.650  0.00  0.00    -0.039 NA
ENDBRANCH  11  12
ENDBRANCH   1   9
BRANCH   2  17
ATOM     17  C   UNL     1      -0.074  -6.375  -1.853  0.00  0.00    +0.300 C 
ATOM     18  O   UNL     1       0.074  -7.096  -0.888  0.00  0.00    -0.265 OA
ATOM     19  N   UNL     1      -0.179  -6.912  -3.085  0.00  0.00    -0.303 N 
ATOM     20  H   UNL     1      -0.297  -6.335  -3.856  0.00  0.00    +0.149 HD
BRANCH  19  21
ATOM     21  C   UNL     1      -0.113  -8.365  -3.259  0.00  0.00    +0.147 C 
BRANCH  21  22
ATOM     22  C   UNL     1      -0.255  -8.702  -4.721  0.00  0.00    +0.010 A 
ATOM     23  C   UNL     1       0.710  -8.838  -5.663  0.00  0.00    -0.039 A 
ATOM     24  C   UNL     1       0.344  -9.156  -6.957  0.00  0.00    +0.011 A 
ATOM     25  C   UNL     1      -0.970  -9.323  -7.246  0.00  0.00    +0.046 A 
ATOM     26  S   UNL     1      -1.737  -9.034  -5.660  0.00  0.00    -0.100 S 
ATOM     27  C   UNL     1       2.161  -8.644  -5.305  0.00  0.00    +0.044 C 
ENDBRANCH  21  22
ENDBRANCH  19  21
ENDBRANCH   2  17
TORSDOF 5
