REMARK  Name = ZINC26560211
REMARK  7 active torsions:
REMARK  status: ('A' for Active; 'I' for Inactive)
REMARK    1  A    between atoms: C_1  and  C_2
REMARK    2  A    between atoms: C_2  and  C_3
REMARK    3  A    between atoms: C_3  and  N_4
REMARK    4  A    between atoms: C_9  and  C_11
REMARK    5  A    between atoms: N_13  and  N_14
REMARK    6  A    between atoms: C_15  and  C_17
REMARK    7  A    between atoms: C_18  and  C_26
REMARK                            x       y       z     vdW  Elec       q    Type
REMARK                         _______ _______ _______ _____ _____    ______ ____
ROOT
ATOM      1  C   UNL     1       2.958  -4.541  -0.033  0.00  0.00    +0.280 C 
ATOM      2  O   UNL     1       3.035  -5.754  -0.006  0.00  0.00    -0.267 OA
ATOM      3  N   UNL     1       3.926  -3.791   0.530  0.00  0.00    -0.229 N 
ATOM      4  H   UNL     1       3.865  -2.824   0.508  0.00  0.00    +0.173 HD
ENDROOT
BRANCH   1  10
ATOM      5  N   UNL     1       0.738  -1.962  -1.265  0.00  0.00    -0.229 N 
ATOM      6  C   UNL     1      -0.274  -2.628  -1.852  0.00  0.00    +0.267 A 
ATOM      7  O   UNL     1      -1.194  -2.015  -2.369  0.00  0.00    -0.266 OA
ATOM      8  C   UNL     1      -0.265  -4.040  -1.865  0.00  0.00    +0.074 A 
ATOM      9  C   UNL     1       0.786  -4.677  -1.275  0.00  0.00    +0.040 A 
ATOM     10  C   UNL     1       1.802  -3.888  -0.684  0.00  0.00    +0.147 A 
ATOM     11  N   UNL     1       1.723  -2.576  -0.717  0.00  0.00    -0.164 NA
BRANCH   5  12
ATOM     12  C   UNL     1       0.718  -0.497  -1.257  0.00  0.00    +0.147 C 
BRANCH  12  14
ATOM     13  C   UNL     1      -0.019   1.526   0.010  0.00  0.00    +0.005 C 
ATOM     14  C   UNL     1       0.002  -0.004   0.002  0.00  0.00    +0.020 C 
ENDBRANCH  12  14
ENDBRANCH   5  12
ENDBRANCH   1  10
BRANCH   3  15
ATOM     15  N   UNL     1       5.022  -4.410   1.146  0.00  0.00    -0.228 N 
ATOM     16  C   UNL     1       5.990  -3.661   1.709  0.00  0.00    +0.296 C 
ATOM     17  O   UNL     1       5.913  -2.447   1.682  0.00  0.00    -0.265 OA
ATOM     18  H   UNL     1       5.083  -5.378   1.168  0.00  0.00    +0.173 HD
BRANCH  16  19
ATOM     19  C   UNL     1       7.139  -4.310   2.356  0.00  0.00    +0.195 A 
ATOM     20  C   UNL     1       8.168  -3.659   2.958  0.00  0.00    +0.008 A 
ATOM     21  C   UNL     1       9.069  -4.697   3.457  0.00  0.00    +0.024 A 
ATOM     22  C   UNL     1      10.280  -4.684   4.152  0.00  0.00    +0.012 A 
ATOM     23  C   UNL     1      10.887  -5.864   4.478  0.00  0.00    +0.001 A 
ATOM     24  C   UNL     1      10.307  -7.074   4.123  0.00  0.00    +0.004 A 
ATOM     25  C   UNL     1       9.113  -7.109   3.437  0.00  0.00    +0.047 A 
ATOM     26  C   UNL     1       8.476  -5.921   3.095  0.00  0.00    +0.136 A 
ATOM     27  O   UNL     1       7.329  -5.643   2.447  0.00  0.00    -0.450 OA
ATOM     28  C   UNL     1       8.345  -2.167   3.086  0.00  0.00    +0.048 C 
ENDBRANCH  16  19
ENDBRANCH   3  15
TORSDOF 5
