REMARK  Name = ZINC08832987
REMARK  8 active torsions:
REMARK  status: ('A' for Active; 'I' for Inactive)
REMARK    1  A    between atoms: C_1  and  O_2
REMARK    2  A    between atoms: O_2  and  C_3
REMARK    3  A    between atoms: C_4  and  C_11
REMARK    4  A    between atoms: N_13  and  C_14
REMARK    5  A    between atoms: C_14  and  N_16
REMARK    6  A    between atoms: N_16  and  C_17
REMARK    7  A    between atoms: C_21  and  N_23
REMARK    8  A    between atoms: C_24  and  C_26
REMARK                            x       y       z     vdW  Elec       q    Type
REMARK                         _______ _______ _______ _____ _____    ______ ____
ROOT
ATOM      1  N   UNL     1      -4.844   0.041   0.071  0.00  0.00    -0.297 N 
ATOM      2  H   UNL     1      -4.861   0.983  -0.162  0.00  0.00    +0.154 HD
ENDROOT
BRANCH   1   3
ATOM      3  C   UNL     1      -6.009  -0.726  -0.031  0.00  0.00    +0.034 A 
ATOM      4  C   UNL     1      -6.347  -1.615   0.982  0.00  0.00    +0.023 A 
ATOM      5  C   UNL     1      -7.498  -2.373   0.883  0.00  0.00    +0.004 A 
ATOM      6  C   UNL     1      -8.316  -2.250  -0.224  0.00  0.00    +0.023 A 
ATOM      7  C   UNL     1      -7.984  -1.363  -1.241  0.00  0.00    +0.035 A 
ATOM      8  C   UNL     1      -6.831  -0.596  -1.141  0.00  0.00    +0.046 A 
BRANCH   7   9
ATOM      9  N   UNL     1      -8.812  -1.240  -2.360  0.00  0.00    -0.281 N 
ATOM     10  C   UNL     1      -8.273  -1.025  -3.577  0.00  0.00    +0.255 C 
ATOM     11  O   UNL     1      -7.070  -0.884  -3.693  0.00  0.00    -0.269 OA
ATOM     12  H   UNL     1      -9.774  -1.309  -2.262  0.00  0.00    +0.155 HD
BRANCH  10  13
ATOM     13  C   UNL     1      -9.136  -0.960  -4.760  0.00  0.00    +0.074 A 
ATOM     14  C   UNL     1      -8.788  -0.750  -6.085  0.00  0.00    +0.021 A 
ATOM     15  C   UNL     1      -9.807  -0.736  -7.004  0.00  0.00    +0.008 A 
ATOM     16  C   UNL     1     -11.085  -0.924  -6.581  0.00  0.00    +0.046 A 
ATOM     17  S   UNL     1     -10.908  -1.138  -4.870  0.00  0.00    -0.092 S 
ENDBRANCH  10  13
ENDBRANCH   7   9
ENDBRANCH   1   3
BRANCH   1  18
ATOM     18  C   UNL     1      -3.697  -0.528   0.492  0.00  0.00    +0.141 C 
ATOM     19  S   UNL     1      -3.687  -2.165   0.993  0.00  0.00    -0.018 S 
BRANCH  18  22
ATOM     20  C   UNL     1      -1.411  -0.377   0.939  0.00  0.00    +0.253 C 
ATOM     21  O   UNL     1      -1.404  -1.540   1.295  0.00  0.00    -0.270 OA
ATOM     22  N   UNL     1      -2.558   0.192   0.518  0.00  0.00    -0.263 N 
ATOM     23  H   UNL     1      -2.563   1.119   0.234  0.00  0.00    +0.157 HD
BRANCH  20  25
ATOM     24  C   UNL     1       1.031  -0.178   1.405  0.00  0.00    +0.150 A 
ATOM     25  C   UNL     1      -0.164   0.410   0.968  0.00  0.00    +0.081 A 
ATOM     26  C   UNL     1      -0.168   1.746   0.559  0.00  0.00    +0.036 A 
ATOM     27  C   UNL     1       1.001   2.478   0.589  0.00  0.00    +0.043 A 
ATOM     28  C   UNL     1       2.181   1.893   1.022  0.00  0.00    +0.043 A 
ATOM     29  C   UNL     1       2.198   0.572   1.429  0.00  0.00    +0.085 A 
ATOM     30 CL   UNL     1       3.681  -0.149   1.970  0.00  0.00    -0.080 Cl
ATOM     31 CL   UNL     1       0.995   4.138   0.081  0.00  0.00    -0.083 Cl
BRANCH  24  33
ATOM     32  C   UNL     1       1.311  -2.459   0.802  0.00  0.00    +0.277 C 
ATOM     33  O   UNL     1       1.046  -1.474   1.804  0.00  0.00    -0.493 OA
ENDBRANCH  24  33
ENDBRANCH  20  25
ENDBRANCH  18  22
ENDBRANCH   1  18
TORSDOF 7
