REMARK  Name = ZINC22761318
REMARK  5 active torsions:
REMARK  status: ('A' for Active; 'I' for Inactive)
REMARK    1  A    between atoms: C_1  and  N_2
REMARK    2  A    between atoms: N_2  and  C_3
REMARK    3  A    between atoms: N_2  and  C_13
REMARK    4  A    between atoms: C_3  and  C_4
REMARK    5  A    between atoms: C_9  and  N_10
REMARK                            x       y       z     vdW  Elec       q    Type
REMARK                         _______ _______ _______ _____ _____    ______ ____
ROOT
ATOM      1  C   UNL     1      -1.071   5.463  -2.049  0.00  0.00    -0.095 C 
ATOM      2  N   UNL     1       0.151   5.848  -1.331  0.00  0.00    +0.385 N 
ATOM      3  H   UNL     1       1.012   5.571  -1.957  0.00  0.00    -0.081 HD
ENDROOT
BRANCH   2   4
ATOM      4  C   UNL     1       0.199   7.300  -1.114  0.00  0.00    -0.037 C 
ATOM      5  C   UNL     1       0.288   8.041  -2.465  0.00  0.00    -0.006 C 
ATOM      6  C   UNL     1      -1.195   8.319  -2.789  0.00  0.00    +0.034 C 
ATOM      7  C   UNL     1      -1.892   8.366  -1.446  0.00  0.00    -0.046 A 
ATOM      8  C   UNL     1      -1.089   7.780  -0.481  0.00  0.00    -0.058 A 
ATOM      9  C   UNL     1      -1.528   7.711   0.829  0.00  0.00    +0.002 A 
ATOM     10  C   UNL     1      -2.762   8.224   1.178  0.00  0.00    +0.000 A 
ATOM     11  C   UNL     1      -3.563   8.810   0.215  0.00  0.00    +0.000 A 
ATOM     12  C   UNL     1      -3.128   8.880  -1.094  0.00  0.00    +0.004 A 
ENDBRANCH   2   4
BRANCH   2  13
ATOM     13  C   UNL     1       0.266   5.122  -0.059  0.00  0.00    -0.040 C 
BRANCH  13  14
ATOM     14  C   UNL     1       0.459   3.653  -0.335  0.00  0.00    -0.034 A 
ATOM     15  C   UNL     1      -0.613   2.785  -0.242  0.00  0.00    +0.004 A 
ATOM     16  C   UNL     1      -0.436   1.438  -0.498  0.00  0.00    +0.000 A 
ATOM     17  C   UNL     1       0.815   0.958  -0.839  0.00  0.00    +0.002 A 
ATOM     18  C   UNL     1       1.887   1.826  -0.934  0.00  0.00    +0.033 A 
ATOM     19  C   UNL     1       1.709   3.174  -0.681  0.00  0.00    +0.128 A 
BRANCH  19  20
ATOM     20  N   UNL     1       2.856   4.104  -0.781  0.00  0.00    +0.057 N 
ATOM     21  O   UNL     1       3.957   3.681  -1.086  0.00  0.00    -0.126 OA
ATOM     22  O   UNL     1       2.699   5.291  -0.559  0.00  0.00    -0.126 OA
ENDBRANCH  19  20
ENDBRANCH  13  14
ENDBRANCH   2  13
TORSDOF 4
