REMARK  Name = ZINC01785356
REMARK  9 active torsions:
REMARK  status: ('A' for Active; 'I' for Inactive)
REMARK    1  A    between atoms: C_1  and  C_2
REMARK    2  A    between atoms: C_2  and  C_4
REMARK    3  A    between atoms: C_2  and  O_16
REMARK    4  A    between atoms: N_6  and  N_7
REMARK    5  A    between atoms: C_8  and  C_9
REMARK    6  A    between atoms: O_16  and  C_17
REMARK    7  A    between atoms: C_20  and  C_23
REMARK    8  A    between atoms: N_25  and  C_26
REMARK    9  A    between atoms: C_27  and  C_35
REMARK                            x       y       z     vdW  Elec       q    Type
REMARK                         _______ _______ _______ _____ _____    ______ ____
ROOT
ATOM      1  C   UNL     1       5.422  10.280  -0.687  0.00  0.00    +0.122 A 
ATOM      2  C   UNL     1       6.499   9.727  -1.370  0.00  0.00    +0.046 A 
ATOM      3  C   UNL     1       7.354  10.537  -2.083  0.00  0.00    +0.016 A 
ATOM      4  C   UNL     1       7.144  11.918  -2.112  0.00  0.00    +0.037 A 
ATOM      5  C   UNL     1       6.064  12.471  -1.420  0.00  0.00    +0.016 A 
ATOM      6  C   UNL     1       5.210  11.654  -0.713  0.00  0.00    +0.046 A 
ENDROOT
BRANCH   4   7
ATOM      7  C   UNL     1       8.061  12.790  -2.871  0.00  0.00    +0.249 C 
ATOM      8  O   UNL     1       7.877  13.992  -2.895  0.00  0.00    -0.270 OA
ATOM      9  N   UNL     1       9.103  12.254  -3.538  0.00  0.00    -0.275 N 
ATOM     10  H   UNL     1       9.250  11.296  -3.519  0.00  0.00    +0.156 HD
BRANCH   9  11
ATOM     11  C   UNL     1       9.963  13.073  -4.251  0.00  0.00    +0.085 A 
ATOM     12  C   UNL     1      11.083  12.713  -4.988  0.00  0.00    +0.068 A 
ATOM     13  C   UNL     1      11.820  13.776  -5.652  0.00  0.00    -0.023 A 
ATOM     14  C   UNL     1      11.329  15.020  -5.464  0.00  0.00    -0.004 A 
ATOM     15  S   UNL     1       9.908  14.795  -4.432  0.00  0.00    -0.077 S 
ATOM     16  C   UNL     1      11.878  16.300  -6.015  0.00  0.00    +0.043 C 
ATOM     17  C   UNL     1      13.303  16.036  -6.522  0.00  0.00    +0.005 C 
ATOM     18  C   UNL     1      13.294  14.770  -7.383  0.00  0.00    +0.005 C 
ATOM     19  C   UNL     1      13.063  13.542  -6.501  0.00  0.00    +0.037 C 
BRANCH  12  20
ATOM     20  C   UNL     1      11.504  11.313  -5.097  0.00  0.00    +0.244 C 
ATOM     21  O   UNL     1      11.077  10.618  -6.001  0.00  0.00    -0.270 OA
ATOM     22  N   UNL     1      12.363  10.796  -4.197  0.00  0.00    -0.325 N 
ATOM     23  H   UNL     1      12.703  11.350  -3.477  0.00  0.00    +0.145 HD
ATOM     24  H   UNL     1      12.642   9.870  -4.269  0.00  0.00    +0.145 HD
ENDBRANCH  12  20
ENDBRANCH   9  11
ENDBRANCH   4   7
BRANCH   1  25
ATOM     25  O   UNL     1       4.579   9.479   0.011  0.00  0.00    -0.480 OA
BRANCH  25  27
ATOM     26  C   UNL     1       2.358  10.427  -0.093  0.00  0.00    +0.062 C 
ATOM     27  C   UNL     1       3.569  10.122   0.791  0.00  0.00    +0.257 C 
BRANCH  27  28
ATOM     28  C   UNL     1       3.151   9.213   1.919  0.00  0.00    +0.273 C 
ATOM     29  O   UNL     1       3.667   8.123   2.042  0.00  0.00    -0.270 OA
ATOM     30  N   UNL     1       2.204   9.613   2.790  0.00  0.00    -0.204 N 
ATOM     31  H   UNL     1       1.791  10.486   2.691  0.00  0.00    +0.177 HD
BRANCH  30  32
ATOM     32  N   UNL     1       1.815   8.769   3.838  0.00  0.00    -0.188 NA
ATOM     33  C   UNL     1       0.903   9.154   4.677  0.00  0.00    +0.139 C 
BRANCH  33  34
ATOM     34  C   UNL     1       0.494   8.265   5.780  0.00  0.00    +0.013 A 
ATOM     35  C   UNL     1      -0.488   8.676   6.686  0.00  0.00    +0.011 A 
ATOM     36  C   UNL     1      -0.866   7.840   7.715  0.00  0.00    +0.001 A 
ATOM     37  C   UNL     1      -0.272   6.598   7.856  0.00  0.00    +0.001 A 
ATOM     38  C   UNL     1       0.697   6.181   6.961  0.00  0.00    +0.020 A 
ATOM     39  C   UNL     1       1.086   7.007   5.926  0.00  0.00    +0.050 A 
ATOM     40 CL   UNL     1       2.307   6.486   4.807  0.00  0.00    -0.083 Cl
ENDBRANCH  33  34
ENDBRANCH  30  32
ENDBRANCH  27  28
ENDBRANCH  25  27
ENDBRANCH   1  25
TORSDOF 8
