REMARK  Name = ZINC59059515
REMARK  11 active torsions:
REMARK  status: ('A' for Active; 'I' for Inactive)
REMARK    1  A    between atoms: C_1  and  C_2
REMARK    2  A    between atoms: C_2  and  N_3
REMARK    3  A    between atoms: N_3  and  C_4
REMARK    4  A    between atoms: N_3  and  C_6
REMARK    5  A    between atoms: C_4  and  C_5
REMARK    6  A    between atoms: C_6  and  C_8
REMARK    7  A    between atoms: C_6  and  C_22
REMARK    8  A    between atoms: C_8  and  N_9
REMARK    9  A    between atoms: N_12  and  C_13
REMARK   10  A    between atoms: C_14  and  C_21
REMARK   11  A    between atoms: C_18  and  C_19
REMARK                            x       y       z     vdW  Elec       q    Type
REMARK                         _______ _______ _______ _____ _____    ______ ____
ROOT
ATOM      1  N   UNL     1       2.167  -3.079   1.908  0.00  0.00    -0.300 N 
ATOM      2  C   UNL     1       2.168  -3.179   3.252  0.00  0.00    +0.304 C 
ATOM      3  O   UNL     1       2.026  -4.264   3.781  0.00  0.00    -0.253 OA
ATOM      4  N   UNL     1       2.327  -2.075   4.009  0.00  0.00    -0.269 N 
ATOM      5  H   UNL     1       2.280  -2.213   1.486  0.00  0.00    +0.150 HD
ATOM      6  H   UNL     1       2.356  -1.200   3.591  0.00  0.00    +0.156 HD
ENDROOT
BRANCH   4   7
ATOM      7  C   UNL     1       2.449  -2.192   5.399  0.00  0.00    +0.041 A 
ATOM      8  C   UNL     1       3.681  -1.991   6.008  0.00  0.00    -0.028 A 
ATOM      9  C   UNL     1       3.799  -2.107   7.379  0.00  0.00    +0.020 A 
ATOM     10  C   UNL     1       2.691  -2.422   8.146  0.00  0.00    +0.018 A 
ATOM     11  C   UNL     1       1.462  -2.622   7.542  0.00  0.00    +0.020 A 
ATOM     12  C   UNL     1       1.338  -2.502   6.171  0.00  0.00    -0.028 A 
ATOM     13  C   UNL     1      -0.002  -2.714   5.514  0.00  0.00    +0.046 C 
ATOM     14 BR   UNL     1       2.856  -2.580  10.023  0.00  0.00    -0.050 Br
ATOM     15  C   UNL     1       4.888  -1.648   5.174  0.00  0.00    +0.046 C 
ENDBRANCH   4   7
BRANCH   1  16
ATOM     16  C   UNL     1       1.994  -4.279   1.085  0.00  0.00    +0.095 C 
BRANCH  16  17
ATOM     17  C   UNL     1       1.885  -3.876  -0.387  0.00  0.00    -0.020 C 
BRANCH  17  18
ATOM     18  C   UNL     1       2.060  -5.095  -1.256  0.00  0.00    -0.052 A 
ATOM     19  C   UNL     1       3.156  -5.210  -2.090  0.00  0.00    +0.009 A 
ATOM     20  C   UNL     1       3.284  -6.319  -2.859  0.00  0.00    +0.045 A 
ATOM     21  S   UNL     1       1.826  -7.247  -2.412  0.00  0.00    -0.105 S 
ATOM     22  C   UNL     1       1.148  -6.097  -1.227  0.00  0.00    +0.047 A 
ENDBRANCH  17  18
BRANCH  17  23
ATOM     23  N   UNL     1       0.565  -3.283  -0.636  0.00  0.00    +0.385 N 
ATOM     24  H   UNL     1      -0.106  -4.016  -0.812  0.00  0.00    -0.081 HD
BRANCH  23  26
ATOM     25  C   UNL     1      -1.269  -1.971   0.320  0.00  0.00    -0.017 C 
ATOM     26  C   UNL     1       0.146  -2.509   0.541  0.00  0.00    -0.081 C 
ENDBRANCH  23  26
BRANCH  23  27
ATOM     27  C   UNL     1       0.638  -2.395  -1.804  0.00  0.00    -0.081 C 
ATOM     28  C   UNL     1       0.928  -3.224  -3.057  0.00  0.00    -0.017 C 
ENDBRANCH  23  27
ENDBRANCH  17  23
ENDBRANCH  16  17
ENDBRANCH   1  16
TORSDOF 7
