REMARK  Name = ZINC53374672
REMARK  9 active torsions:
REMARK  status: ('A' for Active; 'I' for Inactive)
REMARK    1  A    between atoms: C_1  and  C_2
REMARK    2  A    between atoms: C_2  and  C_3
REMARK    3  A    between atoms: C_3  and  C_5
REMARK    4  A    between atoms: C_3  and  C_6
REMARK    5  A    between atoms: C_6  and  C_8
REMARK    6  A    between atoms: C_6  and  N_21
REMARK    7  A    between atoms: N_10  and  N_11
REMARK    8  A    between atoms: C_12  and  C_14
REMARK    9  A    between atoms: N_18  and  C_19
REMARK                            x       y       z     vdW  Elec       q    Type
REMARK                         _______ _______ _______ _____ _____    ______ ____
ROOT
ATOM      1  C   UNL     1      -0.558  -3.321  -2.052  0.00  0.00    +0.250 C 
ATOM      2  O   UNL     1      -1.105  -3.970  -1.186  0.00  0.00    -0.272 OA
ATOM      3  N   UNL     1      -1.288  -2.760  -3.037  0.00  0.00    -0.233 N 
ATOM      4  H   UNL     1      -0.850  -2.241  -3.730  0.00  0.00    +0.173 HD
ENDROOT
BRANCH   3   5
ATOM      5  N   UNL     1      -2.678  -2.928  -3.061  0.00  0.00    -0.229 N 
ATOM      6  C   UNL     1      -3.408  -2.368  -4.046  0.00  0.00    +0.277 C 
ATOM      7  O   UNL     1      -2.875  -1.633  -4.855  0.00  0.00    -0.267 OA
ATOM      8  H   UNL     1      -3.116  -3.448  -2.368  0.00  0.00    +0.173 HD
BRANCH   6   9
ATOM      9  C   UNL     1      -4.845  -2.645  -4.142  0.00  0.00    +0.107 A 
ATOM     10  C   UNL     1      -5.594  -3.386  -3.252  0.00  0.00    +0.047 A 
ATOM     11  C   UNL     1      -6.909  -3.393  -3.727  0.00  0.00    +0.036 A 
ATOM     12  C   UNL     1      -6.941  -2.671  -4.873  0.00  0.00    +0.101 A 
ATOM     13  N   UNL     1      -5.694  -2.207  -5.133  0.00  0.00    -0.345 N 
ATOM     14  C   UNL     1      -5.312  -1.378  -6.279  0.00  0.00    +0.149 C 
ATOM     15 BR   UNL     1      -8.382  -4.256  -2.914  0.00  0.00    -0.049 Br
ENDBRANCH   6   9
ENDBRANCH   3   5
BRANCH   1  16
ATOM     16  C   UNL     1       0.938  -3.140  -2.027  0.00  0.00    +0.165 C 
BRANCH  16  17
ATOM     17  N   UNL     1       1.495  -3.840  -0.867  0.00  0.00    -0.288 N 
ATOM     18  C   UNL     1       2.776  -4.257  -0.882  0.00  0.00    +0.298 C 
ATOM     19  O   UNL     1       3.470  -4.052  -1.859  0.00  0.00    -0.253 OA
ATOM     20  N   UNL     1       3.289  -4.901   0.185  0.00  0.00    -0.313 N 
ATOM     21  H   UNL     1       0.941  -4.003  -0.087  0.00  0.00    +0.151 HD
ATOM     22  H   UNL     1       2.735  -5.064   0.965  0.00  0.00    +0.146 HD
ATOM     23  H   UNL     1       4.211  -5.201   0.174  0.00  0.00    +0.146 HD
ENDBRANCH  16  17
BRANCH  16  24
ATOM     24  C   UNL     1       1.270  -1.649  -1.931  0.00  0.00    +0.015 C 
ATOM     25  C   UNL     1       2.785  -1.457  -2.031  0.00  0.00    +0.010 C 
BRANCH  24  27
ATOM     26  C   UNL     1       0.993   0.412  -0.547  0.00  0.00    +0.004 C 
ATOM     27  C   UNL     1       0.774  -1.101  -0.592  0.00  0.00    +0.002 C 
ENDBRANCH  24  27
ENDBRANCH  16  24
ENDBRANCH   1  16
TORSDOF 6
