REMARK  Name = ZINC35794636
REMARK  8 active torsions:
REMARK  status: ('A' for Active; 'I' for Inactive)
REMARK    1  A    between atoms: C_1  and  C_2
REMARK    2  A    between atoms: C_3  and  C_23
REMARK    3  A    between atoms: C_4  and  N_9
REMARK    4  A    between atoms: C_6  and  C_8
REMARK    5  A    between atoms: C_16  and  C_18
REMARK    6  A    between atoms: C_23  and  C_24
REMARK    7  A    between atoms: C_27  and  O_30
REMARK    8  A    between atoms: O_30  and  C_31
REMARK                            x       y       z     vdW  Elec       q    Type
REMARK                         _______ _______ _______ _____ _____    ______ ____
ROOT
ATOM      1  C   UNL     1       0.234   2.332  -1.229  0.00  0.00    +0.066 C 
ATOM      2  C   UNL     1       0.040   1.038  -0.482  0.00  0.00    +0.047 A 
ATOM      3  C   UNL     1      -0.077  -0.155  -1.169  0.00  0.00    +0.018 A 
ATOM      4  C   UNL     1      -0.256  -1.328  -0.433  0.00  0.00    +0.129 A 
ATOM      5  N   UNL     1      -0.305  -1.254   0.894  0.00  0.00    -0.217 NA
ATOM      6  C   UNL     1      -0.188  -0.094   1.508  0.00  0.00    +0.128 A 
ATOM      7  N   UNL     1      -0.014   1.030   0.842  0.00  0.00    -0.237 NA
ATOM      8  C   UNL     1      -0.249  -0.053   3.013  0.00  0.00    +0.088 C 
ENDROOT
BRANCH   4   9
ATOM      9  N   UNL     1      -0.379  -2.549  -1.075  0.00  0.00    -0.313 N 
ATOM     10  C   UNL     1      -0.718  -3.732  -0.269  0.00  0.00    +0.108 C 
ATOM     11  C   UNL     1      -1.768  -4.621  -0.940  0.00  0.00    +0.038 C 
ATOM     12  C   UNL     1      -2.847  -3.771  -1.579  0.00  0.00    +0.110 C 
ATOM     13  N   UNL     1      -2.404  -3.413  -2.926  0.00  0.00    -0.293 N 
ATOM     14  C   UNL     1      -1.523  -2.338  -3.225  0.00  0.00    +0.127 C 
ATOM     15  C   UNL     1      -0.174  -2.597  -2.512  0.00  0.00    +0.125 C 
ATOM     16  C   UNL     1      -2.861  -4.154  -3.955  0.00  0.00    +0.282 C 
ATOM     17  O   UNL     1      -2.560  -3.862  -5.097  0.00  0.00    -0.267 OA
BRANCH  16  18
ATOM     18  C   UNL     1      -3.723  -5.313  -3.698  0.00  0.00    +0.189 A 
ATOM     19  C   UNL     1      -4.428  -6.012  -4.635  0.00  0.00    +0.054 A 
ATOM     20  C   UNL     1      -5.107  -7.032  -3.951  0.00  0.00    +0.042 A 
ATOM     21  C   UNL     1      -4.791  -6.912  -2.642  0.00  0.00    +0.196 A 
ATOM     22  O   UNL     1      -3.952  -5.878  -2.495  0.00  0.00    -0.458 OA
ENDBRANCH  16  18
ENDBRANCH   4   9
BRANCH   3  23
ATOM     23  C   UNL     1      -0.016  -0.189  -2.674  0.00  0.00    +0.075 C 
BRANCH  23  24
ATOM     24  C   UNL     1       1.424  -0.165  -3.118  0.00  0.00    -0.043 A 
ATOM     25  C   UNL     1       2.183   0.976  -2.939  0.00  0.00    +0.007 A 
ATOM     26  C   UNL     1       3.503   1.000  -3.346  0.00  0.00    +0.046 A 
ATOM     27  C   UNL     1       4.067  -0.122  -3.935  0.00  0.00    +0.120 A 
ATOM     28  C   UNL     1       3.303  -1.267  -4.113  0.00  0.00    +0.046 A 
ATOM     29  C   UNL     1       1.985  -1.288  -3.699  0.00  0.00    +0.007 A 
BRANCH  27  30
ATOM     30  O   UNL     1       5.365  -0.101  -4.336  0.00  0.00    -0.495 OA
ATOM     31  C   UNL     1       5.879  -1.293  -4.934  0.00  0.00    +0.277 C 
ENDBRANCH  27  30
ENDBRANCH  23  24
ENDBRANCH   3  23
TORSDOF 5
