REMARK  Name = ZINC39662918
REMARK  6 active torsions:
REMARK  status: ('A' for Active; 'I' for Inactive)
REMARK    1  A    between atoms: C_1  and  C_2
REMARK    2  A    between atoms: C_2  and  C_3
REMARK    3  A    between atoms: C_3  and  C_4
REMARK    4  A    between atoms: C_4  and  C_5
REMARK    5  A    between atoms: C_9  and  C_18
REMARK    6  A    between atoms: N_20  and  C_21
REMARK                            x       y       z     vdW  Elec       q    Type
REMARK                         _______ _______ _______ _____ _____    ______ ____
ROOT
ATOM      1  C   UNL     1       1.531  -2.555   2.575  0.00  0.00    +0.216 C 
ATOM      2  O   UNL     1       2.033  -1.783   3.365  0.00  0.00    -0.276 OA
ATOM      3  N   UNL     1       1.683  -3.883   2.742  0.00  0.00    -0.300 N 
ATOM      4  C   UNL     1       1.156  -4.973   1.887  0.00  0.00    +0.121 C 
ATOM      5  C   UNL     1       2.293  -6.018   1.840  0.00  0.00    +0.100 C 
ATOM      6  C   UNL     1       3.116  -5.760   3.113  0.00  0.00    -0.004 C 
ATOM      7  C   UNL     1       2.423  -4.585   3.819  0.00  0.00    +0.115 C 
ATOM      8  C   UNL     1       4.547  -5.378   2.748  0.00  0.00    -0.010 C 
ATOM      9  C   UNL     1       5.361  -5.182   4.031  0.00  0.00    -0.082 C 
ATOM     10  N   UNL     1       5.349  -6.423   4.814  0.00  0.00    +0.379 N 
ATOM     11  C   UNL     1       3.979  -6.734   5.240  0.00  0.00    -0.082 C 
ATOM     12  C   UNL     1       3.107  -6.995   4.008  0.00  0.00    -0.010 C 
ATOM     13  H   UNL     1       5.704  -7.179   4.249  0.00  0.00    -0.086 HD
ATOM     14  H   UNL     1       5.935  -6.311   5.628  0.00  0.00    -0.086 HD
ENDROOT
BRANCH   5  15
ATOM     15  C   UNL     1       1.724  -7.413   1.854  0.00  0.00    +0.218 C 
ATOM     16  O   UNL     1       0.687  -7.639   2.442  0.00  0.00    -0.275 OA
ATOM     17  N   UNL     1       2.367  -8.410   1.214  0.00  0.00    -0.314 N 
ATOM     18  H   UNL     1       3.196  -8.229   0.744  0.00  0.00    +0.149 HD
BRANCH  17  19
ATOM     19  C   UNL     1       1.813  -9.766   1.228  0.00  0.00    +0.059 C 
ATOM     20  C   UNL     1       2.270 -10.493   2.495  0.00  0.00    -0.056 C 
ATOM     21  N   UNL     1       3.039 -11.688   2.138  0.00  0.00    +0.381 N 
ATOM     22  C   UNL     1       2.213 -12.622   1.369  0.00  0.00    -0.078 C 
ATOM     23  C   UNL     1       1.755 -11.966   0.065  0.00  0.00    -0.014 C 
ATOM     24  C   UNL     1       2.317 -10.539   0.002  0.00  0.00    +0.004 C 
ATOM     25  C   UNL     1       3.847 -10.621   0.076  0.00  0.00    -0.014 C 
ATOM     26  C   UNL     1       4.241 -11.321   1.385  0.00  0.00    -0.078 C 
ATOM     27  H   UNL     1       3.324 -12.150   2.989  0.00  0.00    -0.082 HD
ENDBRANCH  17  19
ENDBRANCH   5  15
BRANCH   1  28
ATOM     28  C   UNL     1       0.736  -2.028   1.408  0.00  0.00    +0.096 C 
BRANCH  28  29
ATOM     29  C   UNL     1       0.718  -0.499   1.452  0.00  0.00    +0.009 C 
BRANCH  29  31
ATOM     30  C   UNL     1      -0.107   1.565   0.311  0.00  0.00    +0.004 C 
ATOM     31  C   UNL     1      -0.089   0.036   0.267  0.00  0.00    -0.003 C 
ENDBRANCH  29  31
ENDBRANCH  28  29
ENDBRANCH   1  28
TORSDOF 5
