REMARK  Name = ZINC08891180
REMARK  10 active torsions:
REMARK  status: ('A' for Active; 'I' for Inactive)
REMARK    1  A    between atoms: C_1  and  C_2
REMARK    2  A    between atoms: C_4  and  C_14
REMARK    3  A    between atoms: C_5  and  C_13
REMARK    4  A    between atoms: C_9  and  C_12
REMARK    5  A    between atoms: C_14  and  C_16
REMARK    6  A    between atoms: C_16  and  N_17
REMARK    7  A    between atoms: C_20  and  C_24
REMARK    8  A    between atoms: C_20  and  C_25
REMARK    9  A    between atoms: C_30  and  O_35
REMARK   10  A    between atoms: O_35  and  C_36
REMARK                            x       y       z     vdW  Elec       q    Type
REMARK                         _______ _______ _______ _____ _____    ______ ____
ROOT
ATOM      1  N   UNL     1      -3.945   1.542   1.594  0.00  0.00    -0.216 N 
ATOM      2  C   UNL     1      -3.613   2.525   0.734  0.00  0.00    +0.251 C 
ATOM      3  O   UNL     1      -4.049   3.656   0.711  0.00  0.00    -0.272 OA
ATOM      4  C   UNL     1      -2.579   1.923  -0.197  0.00  0.00    +0.135 C 
ATOM      5  N   UNL     1      -2.436   0.541   0.292  0.00  0.00    -0.281 N 
ATOM      6  C   UNL     1      -3.272   0.414   1.338  0.00  0.00    +0.310 C 
ATOM      7  O   UNL     1      -3.403  -0.610   1.978  0.00  0.00    -0.252 OA
ATOM      8  C   UNL     1      -3.081   1.933  -1.643  0.00  0.00    +0.047 C 
ATOM      9  H   UNL     1      -1.853  -0.144  -0.070  0.00  0.00    +0.152 HD
ENDROOT
BRANCH   4  10
ATOM     10  C   UNL     1      -1.271   2.663  -0.087  0.00  0.00    -0.015 A 
ATOM     11  C   UNL     1      -1.277   4.035   0.156  0.00  0.00    +0.007 A 
ATOM     12  C   UNL     1      -0.114   4.734   0.256  0.00  0.00    +0.009 A 
ATOM     13  C   UNL     1       1.114   4.064   0.118  0.00  0.00    -0.014 A 
ATOM     14  C   UNL     1       2.335   4.753   0.214  0.00  0.00    +0.054 A 
ATOM     15  C   UNL     1       3.509   4.069   0.075  0.00  0.00    +0.121 A 
ATOM     16  C   UNL     1       3.512   2.691  -0.164  0.00  0.00    +0.046 A 
ATOM     17  C   UNL     1       2.348   1.996  -0.263  0.00  0.00    +0.012 A 
ATOM     18  C   UNL     1       1.121   2.667  -0.124  0.00  0.00    -0.017 A 
ATOM     19  C   UNL     1      -0.101   1.980  -0.220  0.00  0.00    +0.014 A 
BRANCH  15  20
ATOM     20  O   UNL     1       4.689   4.736   0.168  0.00  0.00    -0.495 OA
ATOM     21  C   UNL     1       5.883   3.967   0.013  0.00  0.00    +0.277 C 
ENDBRANCH  15  20
ENDBRANCH   4  10
BRANCH   1  22
ATOM     22  C   UNL     1      -4.923   1.690   2.674  0.00  0.00    +0.197 C 
BRANCH  22  23
ATOM     23  C   UNL     1      -4.224   2.159   3.924  0.00  0.00    +0.183 C 
ATOM     24  O   UNL     1      -3.026   2.351   3.913  0.00  0.00    -0.290 OA
BRANCH  23  28
ATOM     25  C   UNL     1      -8.058   2.482   7.265  0.00  0.00    +0.064 C 
ATOM     26  C   UNL     1      -6.698   2.519   6.616  0.00  0.00    +0.023 A 
ATOM     27  C   UNL     1      -6.436   2.199   5.338  0.00  0.00    +0.034 A 
ATOM     28  C   UNL     1      -4.990   2.383   5.152  0.00  0.00    +0.040 A 
ATOM     29  C   UNL     1      -4.500   2.804   6.373  0.00  0.00    +0.033 A 
ATOM     30  N   UNL     1      -5.534   2.885   7.234  0.00  0.00    -0.299 N 
ATOM     31  C   UNL     1      -5.431   3.281   8.572  0.00  0.00    +0.181 A 
ATOM     32  C   UNL     1      -6.007   2.637   9.698  0.00  0.00    +0.094 A 
ATOM     33  C   UNL     1      -5.616   3.399  10.745  0.00  0.00    +0.136 A 
ATOM     34  O   UNL     1      -4.883   4.400  10.237  0.00  0.00    -0.358 OA
ATOM     35  N   UNL     1      -4.789   4.321   9.034  0.00  0.00    -0.060 NA
ATOM     36  C   UNL     1      -5.946   3.172  12.198  0.00  0.00    +0.089 C 
ATOM     37  C   UNL     1      -3.061   3.120   6.687  0.00  0.00    +0.064 C 
ENDBRANCH  23  28
ENDBRANCH  22  23
ENDBRANCH   1  22
TORSDOF 5
