REMARK  Name = ZINC22085317
REMARK  8 active torsions:
REMARK  status: ('A' for Active; 'I' for Inactive)
REMARK    1  A    between atoms: C_1  and  C_2
REMARK    2  A    between atoms: C_3  and  C_7
REMARK    3  A    between atoms: C_10  and  S_13
REMARK    4  A    between atoms: N_11  and  N_12
REMARK    5  A    between atoms: S_13  and  C_14
REMARK    6  A    between atoms: C_14  and  C_16
REMARK    7  A    between atoms: C_14  and  C_17
REMARK    8  A    between atoms: N_19  and  C_20
REMARK                            x       y       z     vdW  Elec       q    Type
REMARK                         _______ _______ _______ _____ _____    ______ ____
ROOT
ATOM      1  C   UNL     1       1.279   2.115   0.011  0.00  0.00    +0.137 C 
ATOM      2  C   UNL     1       1.851   2.150   1.430  0.00  0.00    +0.029 C 
ENDROOT
BRANCH   1   3
ATOM      3  C   UNL     1      -0.016   1.343   0.012  0.00  0.00    +0.230 C 
ATOM      4  O   UNL     1      -1.074   1.936   0.015  0.00  0.00    -0.274 OA
ATOM      5  N   UNL     1       0.002  -0.004   0.002  0.00  0.00    -0.284 N 
ATOM      6  H   UNL     1       0.958  -0.541  -0.095  0.00  0.00    +0.155 HD
BRANCH   5   7
ATOM      7  C   UNL     1      -1.192  -0.719   0.115  0.00  0.00    +0.041 A 
ATOM      8  C   UNL     1      -2.287  -0.151   0.729  0.00  0.00    +0.024 A 
ATOM      9  C   UNL     1      -3.483  -0.853   0.843  0.00  0.00    +0.002 A 
ATOM     10  C   UNL     1      -3.602  -2.121   0.361  0.00  0.00    +0.008 A 
ATOM     11  C   UNL     1      -2.508  -2.739  -0.268  0.00  0.00    -0.016 A 
ATOM     12  C   UNL     1      -1.286  -2.032  -0.393  0.00  0.00    +0.003 A 
ATOM     13  C   UNL     1      -0.193  -2.651  -1.020  0.00  0.00    +0.010 A 
ATOM     14  C   UNL     1      -0.320  -3.919  -1.499  0.00  0.00    +0.001 A 
ATOM     15  C   UNL     1      -1.521  -4.615  -1.375  0.00  0.00    +0.001 A 
ATOM     16  C   UNL     1      -2.601  -4.047  -0.774  0.00  0.00    +0.008 A 
ENDBRANCH   5   7
ENDBRANCH   1   3
BRANCH   1  17
ATOM     17  S   UNL     1       0.974   3.805  -0.559  0.00  0.00    -0.072 S 
BRANCH  17  21
ATOM     18  C   UNL     1       4.388   5.684  -0.854  0.00  0.00    +0.185 A 
ATOM     19  N   UNL     1       4.749   4.492  -0.439  0.00  0.00    -0.127 NA
ATOM     20  N   UNL     1       3.712   3.748  -0.287  0.00  0.00    -0.121 NA
ATOM     21  C   UNL     1       2.627   4.415  -0.606  0.00  0.00    +0.209 A 
ATOM     22  N   UNL     1       3.018   5.672  -0.974  0.00  0.00    -0.224 N 
BRANCH  18  25
ATOM     23  C   UNL     1       7.510   5.709  -0.568  0.00  0.00    +0.087 C 
ATOM     24  C   UNL     1       6.640   6.854  -1.020  0.00  0.00    +0.112 A 
ATOM     25  C   UNL     1       5.285   6.825  -1.139  0.00  0.00    +0.061 A 
ATOM     26  C   UNL     1       4.898   8.163  -1.602  0.00  0.00    +0.053 A 
ATOM     27  C   UNL     1       6.040   8.860  -1.722  0.00  0.00    +0.196 A 
ATOM     28  O   UNL     1       7.071   8.073  -1.377  0.00  0.00    -0.467 OA
ENDBRANCH  18  25
BRANCH  22  29
ATOM     29  N   UNL     1       2.215   6.701  -1.377  0.00  0.00    -0.295 N 
ATOM     30  H   UNL     1       1.125   6.560  -1.430  0.00  0.00    +0.163 HD
ATOM     31  H   UNL     1       2.658   7.671  -1.647  0.00  0.00    +0.163 HD
ENDBRANCH  22  29
ENDBRANCH  17  21
ENDBRANCH   1  17
TORSDOF 6
