REMARK  Name = ZINC32913426
REMARK  4 active torsions:
REMARK  status: ('A' for Active; 'I' for Inactive)
REMARK    1  A    between atoms: C_6  and  C_7
REMARK    2  A    between atoms: N_12  and  C_13
REMARK    3  A    between atoms: C_13  and  C_14
REMARK    4  A    between atoms: N_16  and  C_17
REMARK                            x       y       z     vdW  Elec       q    Type
REMARK                         _______ _______ _______ _____ _____    ______ ____
ROOT
ATOM      1  C   UNL     1      -1.149   2.967   1.056  0.00  0.00    -0.037 C 
ATOM      2  C   UNL     1      -2.292   3.109   2.092  0.00  0.00    -0.013 C 
ATOM      3  C   UNL     1      -3.021   1.750   1.992  0.00  0.00    -0.020 C 
ATOM      4  C   UNL     1      -1.984   0.780   1.395  0.00  0.00    -0.077 C 
ATOM      5  N   UNL     1      -0.734   1.548   1.201  0.00  0.00    +0.390 N 
ATOM      6  H   UNL     1      -0.041   1.409   2.043  0.00  0.00    -0.080 HD
ENDROOT
BRANCH   1  12
ATOM      7  C   UNL     1       0.825   3.599   2.457  0.00  0.00    +0.006 A 
ATOM      8  C   UNL     1       1.875   4.444   2.772  0.00  0.00    +0.049 A 
ATOM      9  C   UNL     1       2.088   5.584   2.018  0.00  0.00    +0.162 A 
ATOM     10  C   UNL     1       1.252   5.878   0.949  0.00  0.00    +0.162 A 
ATOM     11  C   UNL     1       0.206   5.028   0.633  0.00  0.00    +0.051 A 
ATOM     12  C   UNL     1      -0.008   3.892   1.393  0.00  0.00    -0.057 A 
ATOM     13  O   UNL     1       1.471   7.004   0.211  0.00  0.00    -0.488 OA
ATOM     14  C   UNL     1       2.661   7.011  -0.581  0.00  0.00    +0.232 C 
ATOM     15  C   UNL     1       3.857   7.455   0.246  0.00  0.00    +0.082 C 
ATOM     16  C   UNL     1       4.182   6.478   1.365  0.00  0.00    +0.232 C 
ATOM     17  O   UNL     1       3.119   6.427   2.318  0.00  0.00    -0.488 OA
ENDBRANCH   1  12
BRANCH   5  18
ATOM     18  C   UNL     1      -0.013   1.086   0.008  0.00  0.00    +0.019 C 
BRANCH  18  19
ATOM     19  C   UNL     1       0.458  -0.330   0.222  0.00  0.00    +0.197 C 
ATOM     20  O   UNL     1       0.315  -0.859   1.304  0.00  0.00    -0.278 OA
ATOM     21  N   UNL     1       1.036  -1.008  -0.789  0.00  0.00    -0.306 N 
ATOM     22  H   UNL     1       1.165  -0.528  -1.770  0.00  0.00    +0.149 HD
BRANCH  21  23
ATOM     23  C   UNL     1       1.494  -2.384  -0.581  0.00  0.00    +0.159 C 
ATOM     24  C   UNL     1       2.612  -2.710  -1.573  0.00  0.00    +0.032 C 
ATOM     25  C   UNL     1       3.498  -3.821  -1.039  0.00  0.00    +0.004 C 
ATOM     26  C   UNL     1       2.799  -5.164  -0.932  0.00  0.00    +0.019 C 
ATOM     27  C   UNL     1       1.704  -5.126   0.136  0.00  0.00    +0.104 C 
ATOM     28  N   UNL     1       0.463  -4.627  -0.479  0.00  0.00    -0.314 N 
ATOM     29  C   UNL     1       0.346  -3.343  -0.819  0.00  0.00    +0.233 C 
ATOM     30  O   UNL     1      -0.683  -2.942  -1.320  0.00  0.00    -0.274 OA
ATOM     31  H   UNL     1      -0.375  -5.316  -0.661  0.00  0.00    +0.149 HD
ENDBRANCH  21  23
ENDBRANCH  18  19
ENDBRANCH   5  18
TORSDOF 4
