REMARK  Name = ZINC15427436
REMARK  6 active torsions:
REMARK  status: ('A' for Active; 'I' for Inactive)
REMARK    1  A    between atoms: C_1  and  C_2
REMARK    2  A    between atoms: C_4  and  C_8
REMARK    3  A    between atoms: C_5  and  C_7
REMARK    4  A    between atoms: N_10  and  N_11
REMARK    5  A    between atoms: C_12  and  C_14
REMARK    6  A    between atoms: C_15  and  C_27
REMARK                            x       y       z     vdW  Elec       q    Type
REMARK                         _______ _______ _______ _____ _____    ______ ____
ROOT
ATOM      1  N   UNL     1      -0.011   0.966   0.007  0.00  0.00    -0.228 N 
ATOM      2  C   UNL     1      -1.187   1.624   0.017  0.00  0.00    +0.296 C 
ATOM      3  O   UNL     1      -1.204   2.840   0.023  0.00  0.00    -0.265 OA
ATOM      4  H   UNL     1       0.002  -0.004   0.002  0.00  0.00    +0.173 HD
ENDROOT
BRANCH   2   5
ATOM      5  C   UNL     1      -2.449   0.872   0.018  0.00  0.00    +0.195 A 
ATOM      6  C   UNL     1      -3.692   1.421   0.033  0.00  0.00    +0.008 A 
ATOM      7  C   UNL     1      -4.617   0.347   0.025  0.00  0.00    +0.024 A 
ATOM      8  C   UNL     1      -6.026   0.286   0.030  0.00  0.00    +0.012 A 
ATOM      9  C   UNL     1      -6.667  -0.906   0.028  0.00  0.00    +0.009 A 
ATOM     10  C   UNL     1      -5.932  -2.111   0.020  0.00  0.00    -0.014 A 
ATOM     11  C   UNL     1      -6.586  -3.353   0.018  0.00  0.00    +0.008 A 
ATOM     12  C   UNL     1      -5.855  -4.503   0.009  0.00  0.00    +0.001 A 
ATOM     13  C   UNL     1      -4.463  -4.466   0.002  0.00  0.00    +0.001 A 
ATOM     14  C   UNL     1      -3.796  -3.278   0.004  0.00  0.00    +0.012 A 
ATOM     15  C   UNL     1      -4.517  -2.075   0.013  0.00  0.00    +0.025 A 
ATOM     16  C   UNL     1      -3.856  -0.827   0.016  0.00  0.00    +0.144 A 
ATOM     17  O   UNL     1      -2.558  -0.474   0.012  0.00  0.00    -0.449 OA
ATOM     18  C   UNL     1      -4.024   2.891   0.049  0.00  0.00    +0.048 C 
ENDBRANCH   2   5
BRANCH   1  21
ATOM     19  C   UNL     1       2.369   1.025  -0.015  0.00  0.00    +0.263 C 
ATOM     20  O   UNL     1       2.385  -0.191  -0.022  0.00  0.00    -0.269 OA
ATOM     21  N   UNL     1       1.193   1.683  -0.000  0.00  0.00    -0.230 N 
ATOM     22  H   UNL     1       1.179   2.653   0.005  0.00  0.00    +0.173 HD
BRANCH  19  26
ATOM     23  C   UNL     1       5.780   4.818  -0.030  0.00  0.00    +0.086 C 
ATOM     24  C   UNL     1       5.122   3.462  -0.030  0.00  0.00    +0.103 A 
ATOM     25  C   UNL     1       3.799   3.240  -0.023  0.00  0.00    +0.057 A 
ATOM     26  C   UNL     1       3.635   1.779  -0.023  0.00  0.00    +0.079 A 
ATOM     27  C   UNL     1       4.899   1.267  -0.038  0.00  0.00    +0.114 A 
ATOM     28  O   UNL     1       5.766   2.285  -0.042  0.00  0.00    -0.464 OA
ATOM     29  C   UNL     1       5.258  -0.196  -0.048  0.00  0.00    +0.087 C 
ENDBRANCH  19  26
ENDBRANCH   1  21
TORSDOF 3
