REMARK  Name = ZINC03211750
REMARK  7 active torsions:
REMARK  status: ('A' for Active; 'I' for Inactive)
REMARK    1  A    between atoms: C_1  and  C_2
REMARK    2  A    between atoms: C_5  and  C_8
REMARK    3  A    between atoms: C_10  and  C_24
REMARK    4  A    between atoms: N_12  and  C_14
REMARK    5  A    between atoms: C_14  and  N_16
REMARK    6  A    between atoms: N_16  and  C_17
REMARK    7  A    between atoms: C_17  and  C_18
REMARK                            x       y       z     vdW  Elec       q    Type
REMARK                         _______ _______ _______ _____ _____    ______ ____
ROOT
ATOM      1  C   UNL     1       2.182  -3.419   1.663  0.00  0.00    +0.050 C 
ATOM      2  C   UNL     1       1.081  -2.722   1.385  0.00  0.00    +0.027 C 
ATOM      3  C   UNL     1       1.233  -2.186  -0.021  0.00  0.00    +0.153 C 
ATOM      4  N   UNL     1       2.545  -2.677  -0.472  0.00  0.00    -0.222 N 
ATOM      5  N   UNL     1       3.069  -3.418   0.595  0.00  0.00    -0.262 N 
ATOM      6  H   UNL     1       3.929  -3.867   0.589  0.00  0.00    +0.170 HD
ENDROOT
BRANCH   1  11
ATOM      7  C   UNL     1       3.135  -6.106   6.665  0.00  0.00    +0.044 C 
ATOM      8  C   UNL     1       2.886  -5.403   5.355  0.00  0.00    -0.050 A 
ATOM      9  C   UNL     1       3.835  -5.461   4.350  0.00  0.00    +0.004 A 
ATOM     10  C   UNL     1       3.612  -4.819   3.149  0.00  0.00    +0.010 A 
ATOM     11  C   UNL     1       2.428  -4.111   2.950  0.00  0.00    -0.003 A 
ATOM     12  C   UNL     1       1.477  -4.051   3.969  0.00  0.00    +0.010 A 
ATOM     13  C   UNL     1       1.709  -4.702   5.163  0.00  0.00    +0.004 A 
ENDBRANCH   1  11
BRANCH   3  14
ATOM     14  C   UNL     1       1.211  -0.679  -0.013  0.00  0.00    +0.014 A 
ATOM     15  C   UNL     1       2.397   0.030  -0.021  0.00  0.00    +0.008 A 
ATOM     16  C   UNL     1       2.377   1.412  -0.013  0.00  0.00    +0.001 A 
ATOM     17  C   UNL     1       1.171   2.087   0.002  0.00  0.00    +0.003 A 
ATOM     18  C   UNL     1      -0.017   1.381   0.010  0.00  0.00    +0.039 A 
ATOM     19  C   UNL     1       0.002  -0.004   0.002  0.00  0.00    +0.129 A 
ATOM     20  F   UNL     1      -1.158  -0.696   0.009  0.00  0.00    -0.205 F 
ENDBRANCH   3  14
BRANCH   4  21
ATOM     21  C   UNL     1       3.125  -2.458  -1.669  0.00  0.00    +0.150 C 
ATOM     22  S   UNL     1       2.319  -1.518  -2.851  0.00  0.00    -0.017 S 
BRANCH  21  23
ATOM     23  N   UNL     1       4.339  -2.978  -1.935  0.00  0.00    -0.321 N 
ATOM     24  H   UNL     1       4.796  -3.511  -1.265  0.00  0.00    +0.148 HD
BRANCH  23  25
ATOM     25  C   UNL     1       4.970  -2.740  -3.236  0.00  0.00    +0.138 C 
BRANCH  25  26
ATOM     26  C   UNL     1       6.311  -3.426  -3.277  0.00  0.00    -0.030 A 
ATOM     27  C   UNL     1       7.446  -2.750  -2.869  0.00  0.00    +0.005 A 
ATOM     28  C   UNL     1       8.675  -3.381  -2.903  0.00  0.00    +0.000 A 
ATOM     29  C   UNL     1       8.772  -4.684  -3.353  0.00  0.00    +0.000 A 
ATOM     30  C   UNL     1       7.638  -5.358  -3.767  0.00  0.00    +0.000 A 
ATOM     31  C   UNL     1       6.407  -4.729  -3.728  0.00  0.00    +0.005 A 
ENDBRANCH  25  26
ENDBRANCH  23  25
ENDBRANCH  21  23
ENDBRANCH   4  21
TORSDOF 6
