REMARK  Name = ZINC12623273
REMARK  5 active torsions:
REMARK  status: ('A' for Active; 'I' for Inactive)
REMARK    1  A    between atoms: C_1  and  C_2
REMARK    2  A    between atoms: C_9  and  C_14
REMARK    3  A    between atoms: C_14  and  O_16
REMARK    4  A    between atoms: O_16  and  C_17
REMARK    5  A    between atoms: C_17  and  C_18
REMARK                            x       y       z     vdW  Elec       q    Type
REMARK                         _______ _______ _______ _____ _____    ______ ____
ROOT
ATOM      1  C   UNL     1       4.002   5.704  -0.938  0.00  0.00    +0.340 C 
ATOM      2  O   UNL     1       4.882   4.961  -1.326  0.00  0.00    -0.245 OA
ENDROOT
BRANCH   1  10
ATOM      3  C   UNL     1      -1.759   2.247  -1.414  0.00  0.00    +0.029 C 
ATOM      4  C   UNL     1      -1.350   1.901   0.019  0.00  0.00    +0.134 C 
ATOM      5  C   UNL     1      -0.014   1.209   0.009  0.00  0.00    +0.230 C 
ATOM      6  O   UNL     1       0.002  -0.004   0.002  0.00  0.00    -0.274 OA
ATOM      7  N   UNL     1       1.149   1.853   0.001  0.00  0.00    -0.284 N 
ATOM      8  C   UNL     1       1.328   3.234  -0.003  0.00  0.00    +0.048 A 
ATOM      9  C   UNL     1       2.527   3.763  -0.452  0.00  0.00    +0.039 A 
ATOM     10  C   UNL     1       2.724   5.146  -0.460  0.00  0.00    +0.061 A 
ATOM     11  C   UNL     1       1.712   6.002  -0.014  0.00  0.00    +0.016 A 
ATOM     12  C   UNL     1       0.520   5.477   0.431  0.00  0.00    +0.017 A 
ATOM     13  C   UNL     1       0.323   4.103   0.438  0.00  0.00    +0.030 A 
ATOM     14  S   UNL     1      -1.207   3.427   1.004  0.00  0.00    -0.111 S 
ATOM     15  H   UNL     1       1.952   1.307  -0.002  0.00  0.00    +0.155 HD
ENDBRANCH   1  10
BRANCH   1  16
ATOM     16  O   UNL     1       4.194   7.038  -0.946  0.00  0.00    -0.453 OA
BRANCH  16  17
ATOM     17  C   UNL     1       5.476   7.516  -1.430  0.00  0.00    +0.306 C 
BRANCH  17  18
ATOM     18  C   UNL     1       5.508   9.021  -1.365  0.00  0.00    +0.148 A 
ATOM     19  N   UNL     1       6.634   9.662  -1.773  0.00  0.00    -0.307 N 
ATOM     20  H   UNL     1       7.396   9.156  -2.097  0.00  0.00    +0.170 HD
ATOM     21  C   UNL     1       6.682  11.016  -1.728  0.00  0.00    +0.266 A 
ATOM     22  O   UNL     1       7.676  11.621  -2.092  0.00  0.00    -0.267 OA
ATOM     23  C   UNL     1       5.563  11.697  -1.249  0.00  0.00    +0.102 A 
ATOM     24  C   UNL     1       4.411  11.010  -0.827  0.00  0.00    +0.085 A 
ATOM     25  N   UNL     1       4.462   9.640  -0.918  0.00  0.00    -0.230 NA
ATOM     26  C   UNL     1       3.361  11.816  -0.369  0.00  0.00    +0.036 A 
ATOM     27  C   UNL     1       3.493  13.160  -0.353  0.00  0.00    +0.048 A 
ATOM     28  S   UNL     1       5.141  13.401  -0.995  0.00  0.00    -0.090 S 
ENDBRANCH  17  18
ENDBRANCH  16  17
ENDBRANCH   1  16
TORSDOF 4
