REMARK  Name = ZINC39489520
REMARK  7 active torsions:
REMARK  status: ('A' for Active; 'I' for Inactive)
REMARK    1  A    between atoms: C_1  and  C_2
REMARK    2  A    between atoms: C_2  and  C_4
REMARK    3  A    between atoms: C_2  and  N_17
REMARK    4  A    between atoms: N_6  and  C_7
REMARK    5  A    between atoms: C_10  and  O_13
REMARK    6  A    between atoms: O_13  and  C_14
REMARK    7  A    between atoms: C_24  and  N_28
REMARK                            x       y       z     vdW  Elec       q    Type
REMARK                         _______ _______ _______ _____ _____    ______ ____
ROOT
ATOM      1  C   UNL     1      -0.013   1.521  -0.004  0.00  0.00    +0.038 C 
ATOM      2  C   UNL     1       0.004  -0.009  -0.002  0.00  0.00    +0.168 C 
ENDROOT
BRANCH   2   3
ATOM      3  N   UNL     1      -1.371  -0.513   0.011  0.00  0.00    -0.222 N 
ATOM      4  C   UNL     1      -2.271  -0.248   0.976  0.00  0.00    +0.255 C 
ATOM      5  O   UNL     1      -2.074   0.436   1.959  0.00  0.00    -0.270 OA
ATOM      6  C   UNL     1      -3.538  -0.929   0.638  0.00  0.00    +0.052 A 
ATOM      7  C   UNL     1      -4.782  -1.015   1.243  0.00  0.00    +0.014 A 
ATOM      8  C   UNL     1      -5.787  -1.760   0.646  0.00  0.00    +0.003 A 
ATOM      9  C   UNL     1      -5.557  -2.417  -0.548  0.00  0.00    +0.033 A 
ATOM     10  C   UNL     1      -4.318  -2.339  -1.166  0.00  0.00    +0.139 A 
ATOM     11  C   UNL     1      -3.304  -1.598  -0.581  0.00  0.00    +0.080 A 
ATOM     12  C   UNL     1      -1.903  -1.297  -0.944  0.00  0.00    +0.257 C 
ATOM     13  O   UNL     1      -1.328  -1.693  -1.938  0.00  0.00    -0.269 OA
BRANCH  10  14
ATOM     14  N   UNL     1      -4.080  -3.045  -2.445  0.00  0.00    +0.057 N 
ATOM     15  O   UNL     1      -4.966  -3.691  -2.953  0.00  0.00    -0.126 OA
ATOM     16  O   UNL     1      -2.998  -2.976  -2.981  0.00  0.00    -0.126 OA
ENDBRANCH  10  14
ENDBRANCH   2   3
BRANCH   2  17
ATOM     17  C   UNL     1       0.730  -0.502   1.224  0.00  0.00    +0.238 C 
ATOM     18  O   UNL     1       0.155  -1.204   2.028  0.00  0.00    -0.273 OA
ATOM     19  N   UNL     1       2.019  -0.161   1.426  0.00  0.00    -0.284 N 
ATOM     20  H   UNL     1       2.498   0.344   0.751  0.00  0.00    +0.155 HD
BRANCH  19  21
ATOM     21  C   UNL     1       2.665  -0.537   2.611  0.00  0.00    +0.034 A 
ATOM     22  C   UNL     1       3.603   0.308   3.189  0.00  0.00    +0.027 A 
ATOM     23  C   UNL     1       4.239  -0.063   4.357  0.00  0.00    +0.047 A 
ATOM     24  C   UNL     1       3.942  -1.280   4.952  0.00  0.00    +0.127 A 
ATOM     25  C   UNL     1       3.006  -2.126   4.375  0.00  0.00    +0.047 A 
ATOM     26  C   UNL     1       2.364  -1.753   3.210  0.00  0.00    +0.027 A 
BRANCH  24  27
ATOM     27  O   UNL     1       4.569  -1.645   6.102  0.00  0.00    -0.434 OA
BRANCH  27  28
ATOM     28  C   UNL     1       4.215  -2.912   6.660  0.00  0.00    +0.541 C 
ATOM     29  F   UNL     1       2.848  -2.925   6.957  0.00  0.00    -0.166 F 
ATOM     30  F   UNL     1       4.502  -3.925   5.738  0.00  0.00    -0.166 F 
ENDBRANCH  27  28
ENDBRANCH  24  27
ENDBRANCH  19  21
ENDBRANCH   2  17
TORSDOF 6
