REMARK  Name = ZINC16906297
REMARK  8 active torsions:
REMARK  status: ('A' for Active; 'I' for Inactive)
REMARK    1  A    between atoms: C_1  and  O_2
REMARK    2  A    between atoms: O_2  and  C_3
REMARK    3  A    between atoms: C_6  and  C_13
REMARK    4  A    between atoms: C_7  and  C_11
REMARK    5  A    between atoms: C_8  and  O_9
REMARK    6  A    between atoms: O_9  and  C_10
REMARK    7  A    between atoms: N_17  and  C_21
REMARK    8  A    between atoms: C_25  and  O_27
REMARK                            x       y       z     vdW  Elec       q    Type
REMARK                         _______ _______ _______ _____ _____    ______ ____
ROOT
ATOM      1  C   UNL     1       3.621  -1.004  -0.443  0.00  0.00    +0.029 C 
ATOM      2  C   UNL     1       3.768  -2.042   0.419  0.00  0.00    +0.080 C 
ATOM      3  C   UNL     1       2.738  -2.832   1.129  0.00  0.00    +0.265 C 
ATOM      4  O   UNL     1       1.551  -2.602   0.994  0.00  0.00    -0.269 OA
ATOM      5  N   UNL     1       3.174  -3.803   1.913  0.00  0.00    -0.196 N 
ATOM      6  C   UNL     1       4.491  -4.049   2.066  0.00  0.00    +0.290 C 
ATOM      7  O   UNL     1       5.025  -4.898   2.753  0.00  0.00    -0.262 OA
ATOM      8  S   UNL     1       5.260  -2.828   1.015  0.00  0.00    -0.025 S 
ENDROOT
BRANCH   1  12
ATOM      9  C   UNL     1      -0.252   0.055  -1.844  0.00  0.00    +0.162 A 
ATOM     10  C   UNL     1       0.123  -1.278  -1.761  0.00  0.00    +0.050 A 
ATOM     11  C   UNL     1       1.379  -1.625  -1.307  0.00  0.00    +0.012 A 
ATOM     12  C   UNL     1       2.287  -0.634  -0.925  0.00  0.00    -0.006 A 
ATOM     13  C   UNL     1       1.911   0.727  -1.007  0.00  0.00    +0.115 A 
ATOM     14  C   UNL     1       0.636   1.062  -1.469  0.00  0.00    +0.176 A 
BRANCH  13  15
ATOM     15  C   UNL     1       2.857   1.782  -0.608  0.00  0.00    +0.391 C 
ATOM     16  O   UNL     1       3.615   2.260  -1.428  0.00  0.00    -0.240 OA
ATOM     17  O   UNL     1       2.881   2.218   0.668  0.00  0.00    -0.240 OA
ENDBRANCH  13  15
BRANCH   9  19
ATOM     18  C   UNL     1      -2.350  -0.698  -2.672  0.00  0.00    +0.277 C 
ATOM     19  O   UNL     1      -1.491   0.381  -2.299  0.00  0.00    -0.491 OA
ENDBRANCH   9  19
BRANCH  14  20
ATOM     20  O   UNL     1       0.263   2.365  -1.553  0.00  0.00    -0.491 OA
ATOM     21  C   UNL     1      -0.361   2.936  -0.401  0.00  0.00    +0.277 C 
ENDBRANCH  14  20
ENDBRANCH   1  12
BRANCH   5  22
ATOM     22  C   UNL     1       2.245  -4.589   2.609  0.00  0.00    +0.048 A 
ATOM     23  C   UNL     1       2.076  -5.926   2.272  0.00  0.00    +0.024 A 
ATOM     24  C   UNL     1       1.161  -6.702   2.957  0.00  0.00    +0.005 A 
ATOM     25  C   UNL     1       0.412  -6.150   3.980  0.00  0.00    +0.045 A 
ATOM     26  C   UNL     1       0.578  -4.816   4.321  0.00  0.00    +0.119 A 
ATOM     27  C   UNL     1       1.498  -4.035   3.638  0.00  0.00    +0.069 A 
BRANCH  26  28
ATOM     28  O   UNL     1      -0.159  -4.274   5.327  0.00  0.00    -0.507 OA
ATOM     29  H   UNL     1       0.254  -4.344   6.198  0.00  0.00    +0.292 HD
ENDBRANCH  26  28
ENDBRANCH   5  22
TORSDOF 6
