REMARK  Name = ZINC55620931
REMARK  7 active torsions:
REMARK  status: ('A' for Active; 'I' for Inactive)
REMARK    1  A    between atoms: C_3  and  N_11
REMARK    2  A    between atoms: C_5  and  O_7
REMARK    3  A    between atoms: O_7  and  C_8
REMARK    4  A    between atoms: C_8  and  C_9
REMARK    5  A    between atoms: N_11  and  S_12
REMARK    6  A    between atoms: S_12  and  C_15
REMARK    7  A    between atoms: C_17  and  C_25
REMARK                            x       y       z     vdW  Elec       q    Type
REMARK                         _______ _______ _______ _____ _____    ______ ____
ROOT
ATOM      1  S   UNL     1       3.840   3.471   0.898  0.00  0.00    +0.073 S 
ATOM      2  O   UNL     1       3.491   2.448  -0.024  0.00  0.00    -0.150 OA
ATOM      3  O   UNL     1       5.044   4.218   0.787  0.00  0.00    -0.150 OA
ENDROOT
BRANCH   1   4
ATOM      4  C   UNL     1       3.856   2.725   2.495  0.00  0.00    +0.113 A 
ATOM      5  C   UNL     1       4.946   2.901   3.317  0.00  0.00    +0.044 A 
ATOM      6  C   UNL     1       4.958   2.308   4.582  0.00  0.00    +0.065 A 
ATOM      7  C   UNL     1       3.866   1.545   4.992  0.00  0.00    +0.019 A 
ATOM      8  C   UNL     1       2.775   1.375   4.155  0.00  0.00    -0.042 A 
ATOM      9  C   UNL     1       2.764   1.971   2.912  0.00  0.00    -0.018 A 
ATOM     10  C   UNL     1       1.601   1.843   1.963  0.00  0.00    +0.037 C 
ATOM     11  C   UNL     1       0.707   0.671   2.363  0.00  0.00    +0.005 C 
ATOM     12  C   UNL     1       0.364   0.811   3.851  0.00  0.00    +0.005 C 
ATOM     13  C   UNL     1       1.633   0.531   4.659  0.00  0.00    +0.035 C 
BRANCH   6  14
ATOM     14  C   UNL     1       6.118   2.489   5.476  0.00  0.00    +0.387 C 
ATOM     15  O   UNL     1       7.074   3.159   5.111  0.00  0.00    -0.241 OA
ATOM     16  O   UNL     1       6.124   1.968   6.583  0.00  0.00    -0.241 OA
ENDBRANCH   6  14
ENDBRANCH   1   4
BRANCH   1  17
ATOM     17  N   UNL     1       2.599   4.567   0.882  0.00  0.00    -0.216 N 
ATOM     18  H   UNL     1       1.853   4.447   0.274  0.00  0.00    +0.174 HD
BRANCH  17  21
ATOM     19  C   UNL     1       3.816   7.497   2.740  0.00  0.00    +0.005 A 
ATOM     20  C   UNL     1       3.790   6.410   1.887  0.00  0.00    +0.025 A 
ATOM     21  C   UNL     1       2.626   5.665   1.745  0.00  0.00    +0.052 A 
ATOM     22  C   UNL     1       1.489   6.013   2.462  0.00  0.00    +0.070 A 
ATOM     23  C   UNL     1       1.519   7.103   3.317  0.00  0.00    +0.124 A 
ATOM     24  C   UNL     1       2.685   7.845   3.454  0.00  0.00    +0.046 A 
BRANCH  23  25
ATOM     25  O   UNL     1       0.408   7.447   4.020  0.00  0.00    -0.477 OA
BRANCH  25  26
ATOM     26  C   UNL     1       0.512   8.582   4.882  0.00  0.00    +0.346 C 
BRANCH  26  27
ATOM     27  C   UNL     1      -0.777   8.805   5.557  0.00  0.00    +0.104 C 
ATOM     28  N   UNL     1      -1.772   8.976   6.078  0.00  0.00    -0.193 NA
ENDBRANCH  26  27
ENDBRANCH  25  26
ENDBRANCH  23  25
ENDBRANCH  17  21
ENDBRANCH   1  17
TORSDOF 7
