REMARK  Name = ZINC32858048
REMARK  6 active torsions:
REMARK  status: ('A' for Active; 'I' for Inactive)
REMARK    1  A    between atoms: C_1  and  C_2
REMARK    2  A    between atoms: C_7  and  S_30
REMARK    3  A    between atoms: N_11  and  C_12
REMARK    4  A    between atoms: C_12  and  C_13
REMARK    5  A    between atoms: C_23  and  C_25
REMARK    6  A    between atoms: S_30  and  N_33
REMARK                            x       y       z     vdW  Elec       q    Type
REMARK                         _______ _______ _______ _____ _____    ______ ____
ROOT
ATOM      1  C   UNL     1      -5.668  -3.405  -0.707  0.00  0.00    +0.201 C 
ENDROOT
BRANCH   1   2
ATOM      2  C   UNL     1      -5.694  -2.862  -2.112  0.00  0.00    +0.234 C 
ATOM      3  O   UNL     1      -5.687  -1.663  -2.300  0.00  0.00    -0.274 OA
ATOM      4  N   UNL     1      -5.725  -3.708  -3.161  0.00  0.00    -0.288 N 
ATOM      5  C   UNL     1      -5.727  -5.162  -2.946  0.00  0.00    +0.114 C 
ATOM      6  C   UNL     1      -7.070  -5.718  -3.461  0.00  0.00    +0.062 C 
ATOM      7  C   UNL     1      -7.385  -5.071  -4.770  0.00  0.00    -0.003 A 
ATOM      8  C   UNL     1      -6.835  -3.945  -5.300  0.00  0.00    -0.012 A 
ATOM      9  C   UNL     1      -7.312  -3.542  -6.546  0.00  0.00    +0.013 A 
ATOM     10  C   UNL     1      -8.274  -4.263  -7.168  0.00  0.00    +0.046 A 
ATOM     11  S   UNL     1      -8.562  -5.580  -5.995  0.00  0.00    -0.101 S 
ATOM     12  C   UNL     1      -5.750  -3.189  -4.536  0.00  0.00    +0.144 C 
BRANCH  12  13
ATOM     13  C   UNL     1      -4.411  -3.414  -5.191  0.00  0.00    +0.015 A 
ATOM     14  C   UNL     1      -3.715  -2.593  -6.014  0.00  0.00    +0.013 A 
ATOM     15  C   UNL     1      -2.491  -3.014  -6.502  0.00  0.00    +0.008 A 
ATOM     16  C   UNL     1      -2.025  -4.234  -6.142  0.00  0.00    +0.045 A 
ATOM     17  S   UNL     1      -3.328  -4.829  -5.077  0.00  0.00    -0.099 S 
ENDBRANCH  12  13
ENDBRANCH   1   2
BRANCH   1  27
ATOM     18  C   UNL     1      -3.513  -1.871   1.194  0.00  0.00    +0.028 C 
ATOM     19  C   UNL     1      -4.569  -1.428   0.179  0.00  0.00    +0.075 C 
ATOM     20  C   UNL     1      -5.135  -0.038   0.548  0.00  0.00    +0.059 C 
ATOM     21  C   UNL     1      -6.593  -0.152   0.149  0.00  0.00    -0.023 A 
ATOM     22  C   UNL     1      -7.564   0.807  -0.054  0.00  0.00    +0.034 A 
ATOM     23  C   UNL     1      -8.841   0.431  -0.428  0.00  0.00    +0.105 A 
ATOM     24  C   UNL     1      -9.144  -0.907  -0.595  0.00  0.00    +0.030 A 
ATOM     25  C   UNL     1      -8.176  -1.869  -0.398  0.00  0.00    +0.025 A 
ATOM     26  C   UNL     1      -6.888  -1.500  -0.017  0.00  0.00    +0.034 A 
ATOM     27  N   UNL     1      -5.766  -2.294   0.249  0.00  0.00    -0.318 N 
BRANCH  23  28
ATOM     28  S   UNL     1     -10.081   1.656  -0.684  0.00  0.00    +0.056 S 
ATOM     29  O   UNL     1      -9.691   2.795   0.072  0.00  0.00    -0.153 OA
ATOM     30  O   UNL     1     -11.334   1.011  -0.498  0.00  0.00    -0.153 OA
BRANCH  28  31
ATOM     31  N   UNL     1     -10.010   2.100  -2.278  0.00  0.00    -0.204 NA
ATOM     32  H   UNL     1     -10.772   2.867  -2.480  0.00  0.00    +0.144 HD
ATOM     33  H   UNL     1     -10.198   1.220  -2.912  0.00  0.00    +0.144 HD
ENDBRANCH  28  31
ENDBRANCH  23  28
ENDBRANCH   1  27
TORSDOF 5
