REMARK  Name = ZINC39929640
REMARK  9 active torsions:
REMARK  status: ('A' for Active; 'I' for Inactive)
REMARK    1  A    between atoms: C_1  and  C_2
REMARK    2  A    between atoms: C_3  and  C_29
REMARK    3  A    between atoms: C_4  and  C_20
REMARK    4  A    between atoms: C_10  and  C_15
REMARK    5  A    between atoms: C_23  and  O_28
REMARK    6  A    between atoms: C_24  and  O_26
REMARK    7  A    between atoms: O_26  and  C_27
REMARK    8  A    between atoms: C_29  and  O_31
REMARK    9  A    between atoms: O_31  and  C_32
REMARK                            x       y       z     vdW  Elec       q    Type
REMARK                         _______ _______ _______ _____ _____    ______ ____
ROOT
ATOM      1  C   UNL     1      -0.018   1.503   0.010  0.00  0.00    +0.061 C 
ATOM      2  C   UNL     1       0.002  -0.004   0.002  0.00  0.00    +0.016 C 
ATOM      3  C   UNL     1      -1.155  -0.687   0.004  0.00  0.00    +0.065 C 
ATOM      4  C   UNL     1      -1.174  -2.188  -0.012  0.00  0.00    +0.092 C 
ATOM      5  C   UNL     1       0.164  -2.749   0.399  0.00  0.00    +0.024 C 
ATOM      6  C   UNL     1       1.272  -1.979   0.376  0.00  0.00    +0.016 C 
ATOM      7  N   UNL     1       1.198  -0.667  -0.013  0.00  0.00    -0.321 N 
ATOM      8  C   UNL     1       2.616  -2.539   0.768  0.00  0.00    +0.062 C 
ATOM      9  C   UNL     1       2.429  -3.633   1.822  0.00  0.00    +0.068 C 
ATOM     10  C   UNL     1       1.521  -4.720   1.240  0.00  0.00    +0.091 C 
ATOM     11  C   UNL     1       0.224  -4.094   0.806  0.00  0.00    +0.162 C 
ATOM     12  O   UNL     1      -0.791  -4.762   0.808  0.00  0.00    -0.292 OA
ATOM     13  H   UNL     1       2.000  -0.203  -0.298  0.00  0.00    +0.152 HD
ENDROOT
BRANCH   4  14
ATOM     14  C   UNL     1      -1.503  -2.664  -1.404  0.00  0.00    -0.032 A 
ATOM     15  C   UNL     1      -0.677  -2.328  -2.461  0.00  0.00    +0.008 A 
ATOM     16  C   UNL     1      -0.975  -2.762  -3.739  0.00  0.00    +0.049 A 
ATOM     17  C   UNL     1      -2.102  -3.536  -3.963  0.00  0.00    +0.158 A 
ATOM     18  C   UNL     1      -2.933  -3.875  -2.899  0.00  0.00    +0.162 A 
ATOM     19  C   UNL     1      -2.626  -3.440  -1.619  0.00  0.00    +0.054 A 
BRANCH  18  20
ATOM     20  O   UNL     1      -4.040  -4.634  -3.114  0.00  0.00    -0.491 OA
ATOM     21  C   UNL     1      -4.846  -4.942  -1.975  0.00  0.00    +0.277 C 
ENDBRANCH  18  20
BRANCH  17  22
ATOM     22  O   UNL     1      -2.397  -3.964  -5.220  0.00  0.00    -0.503 OA
ATOM     23  H   UNL     1      -2.006  -4.819  -5.446  0.00  0.00    +0.292 HD
ENDBRANCH  17  22
ENDBRANCH   4  14
BRANCH   9  24
ATOM     24  C   UNL     1       3.768  -4.225   2.181  0.00  0.00    +0.109 A 
ATOM     25  C   UNL     1       4.322  -4.233   3.407  0.00  0.00    +0.045 A 
ATOM     26  C   UNL     1       5.571  -4.885   3.288  0.00  0.00    +0.041 A 
ATOM     27  C   UNL     1       5.706  -5.236   1.996  0.00  0.00    +0.195 A 
ATOM     28  O   UNL     1       4.608  -4.839   1.332  0.00  0.00    -0.468 OA
ENDBRANCH   9  24
BRANCH   3  29
ATOM     29  C   UNL     1      -2.380   0.021   0.021  0.00  0.00    +0.337 C 
ATOM     30  O   UNL     1      -2.378   1.238   0.035  0.00  0.00    -0.245 OA
BRANCH  29  31
ATOM     31  O   UNL     1      -3.549  -0.652   0.024  0.00  0.00    -0.465 OA
ATOM     32  C   UNL     1      -4.746   0.128   0.042  0.00  0.00    +0.280 C 
ENDBRANCH  29  31
ENDBRANCH   3  29
TORSDOF 6
