REMARK  Name = ZINC46028380
REMARK  7 active torsions:
REMARK  status: ('A' for Active; 'I' for Inactive)
REMARK    1  A    between atoms: C_1  and  C_2
REMARK    2  A    between atoms: C_5  and  C_8
REMARK    3  A    between atoms: C_10  and  C_13
REMARK    4  A    between atoms: C_13  and  S_14
REMARK    5  A    between atoms: S_14  and  C_15
REMARK    6  A    between atoms: C_17  and  C_21
REMARK    7  A    between atoms: C_18  and  C_20
REMARK                            x       y       z     vdW  Elec       q    Type
REMARK                         _______ _______ _______ _____ _____    ______ ____
ROOT
ATOM      1  C   UNL     1       0.059  -4.256  -0.021  0.00  0.00    +0.202 A 
ATOM      2  N   UNL     1       0.070  -5.047   1.067  0.00  0.00    -0.191 NA
ATOM      3  C   UNL     1       0.086  -6.299   0.708  0.00  0.00    +0.238 A 
ATOM      4  O   UNL     1       0.086  -6.357  -0.630  0.00  0.00    -0.337 OA
ATOM      5  N   UNL     1       0.064  -5.015  -1.090  0.00  0.00    -0.056 NA
ENDROOT
BRANCH   1  10
ATOM      6  C   UNL     1      -0.018   1.503   0.010  0.00  0.00    +0.044 C 
ATOM      7  C   UNL     1       0.002  -0.004   0.002  0.00  0.00    -0.050 A 
ATOM      8  C   UNL     1       0.006  -0.686  -1.201  0.00  0.00    +0.004 A 
ATOM      9  C   UNL     1       0.024  -2.067  -1.214  0.00  0.00    +0.012 A 
ATOM     10  C   UNL     1       0.040  -2.772  -0.013  0.00  0.00    +0.022 A 
ATOM     11  C   UNL     1       0.036  -2.080   1.196  0.00  0.00    +0.012 A 
ATOM     12  C   UNL     1       0.023  -0.700   1.198  0.00  0.00    +0.004 A 
ENDBRANCH   1  10
BRANCH   3  13
ATOM     13  C   UNL     1       0.102  -7.482   1.642  0.00  0.00    +0.177 C 
BRANCH  13  14
ATOM     14  S   UNL     1      -1.602  -7.979   2.018  0.00  0.00    -0.058 S 
BRANCH  14  15
ATOM     15  C   UNL     1      -1.415  -9.353   3.104  0.00  0.00    +0.258 A 
ATOM     16  N   UNL     1      -0.276  -9.854   3.517  0.00  0.00    -0.208 NA
ATOM     17  C   UNL     1      -0.533 -10.894   4.333  0.00  0.00    +0.080 A 
ATOM     18  C   UNL     1      -1.865 -11.028   4.418  0.00  0.00    +0.126 A 
ATOM     19  O   UNL     1      -2.416 -10.061   3.653  0.00  0.00    -0.436 OA
ATOM     20  C   UNL     1      -2.609 -12.063   5.223  0.00  0.00    +0.088 C 
ATOM     21  C   UNL     1       0.492 -11.754   5.026  0.00  0.00    +0.069 C 
ENDBRANCH  14  15
ENDBRANCH  13  14
ENDBRANCH   3  13
TORSDOF 4
