REMARK  Name = ZINC48084320
REMARK  7 active torsions:
REMARK  status: ('A' for Active; 'I' for Inactive)
REMARK    1  A    between atoms: C_1  and  N_2
REMARK    2  A    between atoms: N_2  and  C_3
REMARK    3  A    between atoms: N_2  and  C_4
REMARK    4  A    between atoms: C_4  and  C_6
REMARK    5  A    between atoms: C_4  and  C_22
REMARK    6  A    between atoms: C_6  and  N_7
REMARK    7  A    between atoms: N_10  and  C_11
REMARK                            x       y       z     vdW  Elec       q    Type
REMARK                         _______ _______ _______ _____ _____    ______ ____
ROOT
ATOM      1  N   UNL     1      -1.782   1.536  -1.156  0.00  0.00    -0.300 N 
ATOM      2  C   UNL     1      -2.274   2.266  -2.177  0.00  0.00    +0.304 C 
ATOM      3  O   UNL     1      -2.962   1.736  -3.027  0.00  0.00    -0.253 OA
ATOM      4  N   UNL     1      -2.004   3.585  -2.254  0.00  0.00    -0.268 N 
ATOM      5  H   UNL     1      -1.234   1.960  -0.477  0.00  0.00    +0.150 HD
ATOM      6  H   UNL     1      -1.396   3.993  -1.618  0.00  0.00    +0.156 HD
ENDROOT
BRANCH   4   7
ATOM      7  C   UNL     1      -2.603   4.366  -3.253  0.00  0.00    +0.051 A 
ATOM      8  C   UNL     1      -3.899   4.088  -3.683  0.00  0.00    +0.028 A 
ATOM      9  C   UNL     1      -4.450   4.884  -4.670  0.00  0.00    +0.043 A 
ATOM     10  C   UNL     1      -3.698   5.928  -5.198  0.00  0.00    +0.099 A 
ATOM     11  N   UNL     1      -2.470   6.163  -4.765  0.00  0.00    -0.348 N 
ATOM     12  C   UNL     1      -1.915   5.426  -3.821  0.00  0.00    +0.107 A 
ATOM     13  N   UNL     1      -4.244   6.736  -6.192  0.00  0.00    -0.317 N 
ATOM     14  C   UNL     1      -5.591   6.599  -6.764  0.00  0.00    +0.106 C 
ATOM     15  C   UNL     1      -5.744   7.691  -7.844  0.00  0.00    +0.020 C 
ATOM     16  C   UNL     1      -4.273   8.020  -8.215  0.00  0.00    +0.020 C 
ATOM     17  C   UNL     1      -3.568   7.874  -6.841  0.00  0.00    +0.106 C 
ATOM     18  H   UNL     1      -1.965   6.897  -5.149  0.00  0.00    +0.167 HD
ENDBRANCH   4   7
BRANCH   1  19
ATOM     19  C   UNL     1      -2.076   0.104  -1.072  0.00  0.00    +0.095 C 
BRANCH  19  20
ATOM     20  C   UNL     1      -1.304  -0.507   0.099  0.00  0.00    -0.014 C 
BRANCH  20  21
ATOM     21  C   UNL     1      -1.810   0.076   1.393  0.00  0.00    -0.022 A 
ATOM     22  C   UNL     1      -1.278   1.067   2.150  0.00  0.00    +0.009 A 
ATOM     23  C   UNL     1      -1.923   1.443   3.313  0.00  0.00    +0.008 A 
ATOM     24  C   UNL     1      -3.070   0.809   3.663  0.00  0.00    +0.045 A 
ATOM     25  S   UNL     1      -3.272  -0.354   2.324  0.00  0.00    -0.103 S 
ENDBRANCH  20  21
BRANCH  20  27
ATOM     26  C   UNL     1      -0.907  -2.544  -1.104  0.00  0.00    -0.096 C 
ATOM     27  N   UNL     1      -1.499  -1.963   0.108  0.00  0.00    +0.382 N 
ATOM     28  C   UNL     1      -0.849  -2.537   1.294  0.00  0.00    -0.096 C 
ATOM     29  H   UNL     1      -2.486  -2.170   0.133  0.00  0.00    -0.082 HD
ENDBRANCH  20  27
ENDBRANCH  19  20
ENDBRANCH   1  19
TORSDOF 5
