REMARK  Name = ZINC16013124
REMARK  2 active torsions:
REMARK  status: ('A' for Active; 'I' for Inactive)
REMARK    1  A    between atoms: C_1  and  C_2
REMARK    2  A    between atoms: N_24  and  C_27
REMARK                            x       y       z     vdW  Elec       q    Type
REMARK                         _______ _______ _______ _____ _____    ______ ____
ROOT
ATOM      1  C   UNL     1      -0.065   5.407  -0.256  0.00  0.00    +0.046 C 
ATOM      2  C   UNL     1      -0.051   3.900  -0.216  0.00  0.00    -0.028 A 
ATOM      3  C   UNL     1      -1.240   3.201  -0.226  0.00  0.00    +0.025 A 
ATOM      4  C   UNL     1      -1.238   1.817  -0.196  0.00  0.00    +0.042 A 
ATOM      5  C   UNL     1      -0.035   1.132  -0.144  0.00  0.00    +0.024 A 
ATOM      6  C   UNL     1       1.153   1.827  -0.133  0.00  0.00    -0.026 A 
ATOM      7  C   UNL     1       1.162   3.218  -0.168  0.00  0.00    +0.039 A 
ATOM      8  N   UNL     1       2.476   3.693  -0.149  0.00  0.00    -0.286 N 
ATOM      9  C   UNL     1       3.377   2.693  -0.101  0.00  0.00    +0.212 C 
ATOM     10  O   UNL     1       4.584   2.806  -0.075  0.00  0.00    -0.277 OA
ATOM     11  C   UNL     1       2.595   1.407  -0.087  0.00  0.00    +0.053 C 
ATOM     12  C   UNL     1       2.955   0.520  -1.284  0.00  0.00    +0.089 C 
ATOM     13  C   UNL     1       3.962  -0.519  -0.718  0.00  0.00    +0.074 C 
ATOM     14  C   UNL     1       4.116  -0.159   0.771  0.00  0.00    -0.054 C 
ATOM     15  N   UNL     1       2.885   0.613   1.119  0.00  0.00    +0.395 N 
ATOM     16  C   UNL     1       1.836  -0.418   1.305  0.00  0.00    -0.076 C 
ATOM     17  C   UNL     1       2.550  -1.605   1.985  0.00  0.00    -0.020 C 
ATOM     18  C   UNL     1       4.038  -1.442   1.617  0.00  0.00    -0.016 C 
ATOM     19  C   UNL     1       3.217  -1.829  -0.843  0.00  0.00    +0.228 C 
ATOM     20  O   UNL     1       3.646  -2.913  -0.508  0.00  0.00    -0.275 OA
ATOM     21  N   UNL     1       2.013  -1.607  -1.383  0.00  0.00    -0.210 N 
ATOM     22  C   UNL     1       1.762  -0.325  -1.671  0.00  0.00    +0.229 C 
ATOM     23  O   UNL     1       0.738   0.095  -2.166  0.00  0.00    -0.275 OA
ATOM     24 CL   UNL     1      -2.738   0.944  -0.218  0.00  0.00    -0.084 Cl
ATOM     25  H   UNL     1       2.670   4.775  -0.172  0.00  0.00    +0.155 HD
ATOM     26  H   UNL     1       2.954   1.264   2.002  0.00  0.00    -0.079 HD
ENDROOT
BRANCH  21  27
ATOM     27  C   UNL     1       1.090  -2.634  -1.625  0.00  0.00    +0.044 A 
ATOM     28  C   UNL     1       1.353  -3.590  -2.597  0.00  0.00    +0.025 A 
ATOM     29  C   UNL     1       0.444  -4.603  -2.831  0.00  0.00    +0.022 A 
ATOM     30  C   UNL     1      -0.733  -4.660  -2.105  0.00  0.00    +0.041 A 
ATOM     31  C   UNL     1      -1.000  -3.705  -1.140  0.00  0.00    +0.022 A 
ATOM     32  C   UNL     1      -0.091  -2.693  -0.899  0.00  0.00    +0.025 A 
ATOM     33 CL   UNL     1      -1.876  -5.931  -2.406  0.00  0.00    -0.084 Cl
ENDBRANCH  21  27
TORSDOF 1
