REMARK  Name = ZINC01473270
REMARK  12 active torsions:
REMARK  status: ('A' for Active; 'I' for Inactive)
REMARK    1  A    between atoms: C_1  and  C_2
REMARK    2  A    between atoms: C_2  and  C_25
REMARK    3  A    between atoms: C_4  and  O_24
REMARK    4  A    between atoms: C_6  and  C_22
REMARK    5  A    between atoms: C_6  and  C_23
REMARK    6  A    between atoms: C_7  and  C_8
REMARK    7  A    between atoms: C_7  and  N_53
REMARK    8  A    between atoms: C_8  and  C_10
REMARK    9  A    between atoms: C_8  and  O_21
REMARK   10  A    between atoms: C_10  and  O_11
REMARK   11  A    between atoms: O_11  and  C_12
REMARK   12  A    between atoms: C_15  and  N_18
REMARK                            x       y       z     vdW  Elec       q    Type
REMARK                         _______ _______ _______ _____ _____    ______ ____
ROOT
ATOM      1  C   UNL     1      -0.310   2.916   2.638  0.00  0.00    -0.042 C 
ENDROOT
BRANCH   1  11
ATOM      2  C   UNL     1      -3.108   3.245   2.298  0.00  0.00    -0.010 C 
ATOM      3  C   UNL     1      -2.383   3.788   3.535  0.00  0.00    -0.068 C 
ATOM      4  C   UNL     1      -3.134   5.003   4.074  0.00  0.00    +0.019 C 
ATOM      5  C   UNL     1      -2.884   6.220   3.184  0.00  0.00    +0.112 C 
ATOM      6  C   UNL     1      -1.385   6.515   3.172  0.00  0.00    +0.019 C 
ATOM      7  C   UNL     1      -0.612   5.318   2.625  0.00  0.00    -0.068 C 
ATOM      8  C   UNL     1       0.887   5.563   2.910  0.00  0.00    -0.010 C 
ATOM      9  C   UNL     1      -0.779   5.254   1.102  0.00  0.00    -0.010 C 
ATOM     10  C   UNL     1      -2.439   2.688   4.618  0.00  0.00    -0.010 C 
ATOM     11  N   UNL     1      -0.918   4.046   3.339  0.00  0.00    +0.388 N 
ATOM     12  H   UNL     1      -0.491   4.110   4.271  0.00  0.00    -0.080 HD
BRANCH   5  13
ATOM     13  O   UNL     1      -3.583   7.349   3.723  0.00  0.00    -0.392 OA
ATOM     14  H   UNL     1      -4.542   7.236   3.762  0.00  0.00    +0.210 HD
ENDBRANCH   5  13
ENDBRANCH   1  11
BRANCH   1  15
ATOM     15  C   UNL     1       1.057   2.726   3.297  0.00  0.00    +0.135 C 
BRANCH  15  16
ATOM     16  O   UNL     1       0.886   2.538   4.704  0.00  0.00    -0.390 OA
ATOM     17  H   UNL     1       0.326   1.784   4.934  0.00  0.00    +0.210 HD
ENDBRANCH  15  16
BRANCH  15  18
ATOM     18  C   UNL     1       1.746   1.498   2.699  0.00  0.00    +0.258 C 
BRANCH  18  19
ATOM     19  O   UNL     1       3.068   1.387   3.230  0.00  0.00    -0.489 OA
BRANCH  19  20
ATOM     20  C   UNL     1       3.821   0.341   2.798  0.00  0.00    +0.121 A 
ATOM     21  C   UNL     1       3.295  -0.563   1.886  0.00  0.00    +0.048 A 
ATOM     22  C   UNL     1       4.064  -1.623   1.445  0.00  0.00    +0.036 A 
ATOM     23  C   UNL     1       5.352  -1.788   1.919  0.00  0.00    +0.126 A 
ATOM     24  C   UNL     1       5.876  -0.891   2.831  0.00  0.00    +0.036 A 
ATOM     25  C   UNL     1       5.114   0.173   3.272  0.00  0.00    +0.048 A 
BRANCH  23  26
ATOM     26  N   UNL     1       6.172  -2.927   1.448  0.00  0.00    +0.056 N 
ATOM     27  O   UNL     1       7.307  -3.074   1.865  0.00  0.00    -0.126 OA
ATOM     28  O   UNL     1       5.712  -3.718   0.644  0.00  0.00    -0.126 OA
ENDBRANCH  23  26
ENDBRANCH  19  20
ENDBRANCH  18  19
ENDBRANCH  15  18
ENDBRANCH   1  15
TORSDOF 8
