REMARK  Name = ZINC06279856
REMARK  10 active torsions:
REMARK  status: ('A' for Active; 'I' for Inactive)
REMARK    1  A    between atoms: C_1  and  C_2
REMARK    2  A    between atoms: C_5  and  C_8
REMARK    3  A    between atoms: N_11  and  C_13
REMARK    4  A    between atoms: C_13  and  C_14
REMARK    5  A    between atoms: N_16  and  C_17
REMARK    6  A    between atoms: N_16  and  C_23
REMARK    7  A    between atoms: C_17  and  C_18
REMARK    8  A    between atoms: C_23  and  C_25
REMARK    9  A    between atoms: C_23  and  C_31
REMARK   10  A    between atoms: N_33  and  C_34
REMARK                            x       y       z     vdW  Elec       q    Type
REMARK                         _______ _______ _______ _____ _____    ______ ____
ROOT
ATOM      1  C   UNL     1       2.185  -7.680   1.383  0.00  0.00    +0.240 C 
ATOM      2  O   UNL     1       3.289  -7.470   0.926  0.00  0.00    -0.273 OA
ATOM      3  N   UNL     1       1.968  -8.770   2.145  0.00  0.00    -0.279 N 
ENDROOT
BRANCH   1   4
ATOM      4  C   UNL     1       1.056  -6.723   1.097  0.00  0.00    +0.264 C 
BRANCH   4   8
ATOM      5  C   UNL     1       2.368  -3.792  -0.365  0.00  0.00    +0.205 A 
ATOM      6  N   UNL     1       2.042  -4.510  -1.449  0.00  0.00    -0.108 NA
ATOM      7  N   UNL     1       1.543  -5.624  -1.034  0.00  0.00    -0.045 NA
ATOM      8  N   UNL     1       1.545  -5.630   0.254  0.00  0.00    -0.154 N 
ATOM      9  N   UNL     1       2.049  -4.524   0.683  0.00  0.00    -0.130 NA
BRANCH   5  14
ATOM     10  C   UNL     1       4.726   1.463  -0.303  0.00  0.00    +0.044 C 
ATOM     11  C   UNL     1       4.109   0.088  -0.319  0.00  0.00    -0.050 A 
ATOM     12  C   UNL     1       3.824  -0.525  -1.526  0.00  0.00    +0.004 A 
ATOM     13  C   UNL     1       3.259  -1.784  -1.546  0.00  0.00    +0.012 A 
ATOM     14  C   UNL     1       2.977  -2.438  -0.349  0.00  0.00    +0.023 A 
ATOM     15  C   UNL     1       3.267  -1.816   0.863  0.00  0.00    +0.012 A 
ATOM     16  C   UNL     1       3.836  -0.559   0.873  0.00  0.00    +0.004 A 
ENDBRANCH   5  14
ENDBRANCH   4   8
ENDBRANCH   1   4
BRANCH   3  17
ATOM     17  C   UNL     1       0.635  -9.024   2.697  0.00  0.00    +0.151 C 
BRANCH  17  18
ATOM     18  C   UNL     1      -0.238  -9.645   1.637  0.00  0.00    +0.007 A 
ATOM     19  C   UNL     1      -0.539 -10.952   1.438  0.00  0.00    +0.013 A 
ATOM     20  C   UNL     1      -1.372 -11.295   0.389  0.00  0.00    +0.008 A 
ATOM     21  C   UNL     1      -1.862 -10.315  -0.409  0.00  0.00    +0.045 A 
ATOM     22  S   UNL     1      -1.148  -8.851   0.323  0.00  0.00    -0.100 S 
ENDBRANCH  17  18
ENDBRANCH   3  17
BRANCH   3  23
ATOM     23  C   UNL     1       3.065  -9.700   2.422  0.00  0.00    +0.193 C 
BRANCH  23  24
ATOM     24  C   UNL     1       4.003  -9.085   3.429  0.00  0.00    -0.015 A 
ATOM     25  C   UNL     1       3.518  -8.312   4.471  0.00  0.00    +0.025 A 
ATOM     26  C   UNL     1       4.408  -7.763   5.375  0.00  0.00    +0.111 A 
ATOM     27  N   UNL     1       5.705  -7.969   5.253  0.00  0.00    -0.263 NA
ATOM     28  C   UNL     1       6.202  -8.699   4.274  0.00  0.00    +0.111 A 
ATOM     29  C   UNL     1       5.372  -9.284   3.336  0.00  0.00    +0.025 A 
ENDBRANCH  23  24
BRANCH  23  30
ATOM     30  C   UNL     1       2.506 -10.985   2.977  0.00  0.00    +0.238 C 
ATOM     31  O   UNL     1       1.310 -11.185   2.956  0.00  0.00    -0.273 OA
ATOM     32  N   UNL     1       3.335 -11.912   3.497  0.00  0.00    -0.311 N 
ATOM     33  H   UNL     1       4.291 -11.752   3.514  0.00  0.00    +0.149 HD
BRANCH  32  34
ATOM     34  C   UNL     1       2.791 -13.161   4.036  0.00  0.00    +0.073 C 
ATOM     35  C   UNL     1       2.418 -12.977   5.522  0.00  0.00    +0.022 C 
ATOM     36  C   UNL     1       2.792 -14.329   6.178  0.00  0.00    +0.002 C 
ATOM     37  C   UNL     1       4.099 -14.716   5.442  0.00  0.00    +0.002 C 
ATOM     38  C   UNL     1       3.860 -14.267   3.985  0.00  0.00    +0.022 C 
ENDBRANCH  32  34
ENDBRANCH  23  30
ENDBRANCH   3  23
TORSDOF 9
