REMARK  Name = ZINC02750945
REMARK  5 active torsions:
REMARK  status: ('A' for Active; 'I' for Inactive)
REMARK    1  A    between atoms: C_1  and  C_2
REMARK    2  A    between atoms: C_5  and  C_7
REMARK    3  A    between atoms: N_8  and  N_9
REMARK    4  A    between atoms: C_10  and  C_12
REMARK    5  A    between atoms: C_12  and  C_17
REMARK                            x       y       z     vdW  Elec       q    Type
REMARK                         _______ _______ _______ _____ _____    ______ ____
ROOT
ATOM      1  N   UNL     1      -3.158   2.319   2.195  0.00  0.00    -0.206 N 
ATOM      2  C   UNL     1      -2.148   1.767   1.494  0.00  0.00    +0.240 C 
ATOM      3  O   UNL     1      -2.045   0.560   1.427  0.00  0.00    -0.273 OA
ATOM      4  H   UNL     1      -3.240   3.284   2.249  0.00  0.00    +0.177 HD
ENDROOT
BRANCH   2   5
ATOM      5  C   UNL     1      -1.147   2.649   0.793  0.00  0.00    +0.073 C 
ATOM      6  C   UNL     1      -1.162   2.657  -0.738  0.00  0.00    +0.048 C 
ATOM      7  C   UNL     1      -0.025   1.962   0.013  0.00  0.00    +0.096 C 
ATOM      8 BR   UNL     1       0.002  -0.004   0.002  0.00  0.00    -0.071 Br
ATOM      9 BR   UNL     1       1.737   2.834   0.001  0.00  0.00    -0.071 Br
ATOM     10  C   UNL     1      -0.813   3.962   1.503  0.00  0.00    +0.023 C 
ENDBRANCH   2   5
BRANCH   1  12
ATOM     11  C   UNL     1      -5.063   2.032   3.524  0.00  0.00    +0.176 C 
ATOM     12  N   UNL     1      -4.088   1.499   2.847  0.00  0.00    -0.185 NA
BRANCH  11  17
ATOM     13  C   UNL     1      -7.422  -2.062   5.185  0.00  0.00    +0.086 C 
ATOM     14  C   UNL     1      -7.077  -0.617   4.938  0.00  0.00    +0.103 A 
ATOM     15  C   UNL     1      -7.760   0.446   5.410  0.00  0.00    +0.045 A 
ATOM     16  C   UNL     1      -7.101   1.600   4.946  0.00  0.00    +0.051 A 
ATOM     17  C   UNL     1      -6.037   1.174   4.206  0.00  0.00    +0.148 A 
ATOM     18  O   UNL     1      -6.041  -0.174   4.207  0.00  0.00    -0.459 OA
ENDBRANCH  11  17
ENDBRANCH   1  12
TORSDOF 3
