REMARK  Name = ZINC40783322
REMARK  5 active torsions:
REMARK  status: ('A' for Active; 'I' for Inactive)
REMARK    1  A    between atoms: C_6  and  C_7
REMARK    2  A    between atoms: C_7  and  N_8
REMARK    3  A    between atoms: C_15  and  N_29
REMARK    4  A    between atoms: C_16  and  N_20
REMARK    5  A    between atoms: N_20  and  C_21
REMARK                            x       y       z     vdW  Elec       q    Type
REMARK                         _______ _______ _______ _____ _____    ______ ____
ROOT
ATOM      1  N   UNL     1      -1.689  -0.936  -1.408  0.00  0.00    +0.384 N 
ATOM      2  C   UNL     1      -2.013   0.339  -2.058  0.00  0.00    -0.059 C 
ATOM      3  C   UNL     1      -2.363   0.088  -3.529  0.00  0.00    +0.088 C 
ATOM      4  N   UNL     1      -3.439  -0.914  -3.587  0.00  0.00    -0.317 N 
ATOM      5  C   UNL     1      -3.266  -2.161  -2.826  0.00  0.00    +0.088 C 
ATOM      6  C   UNL     1      -2.873  -1.803  -1.389  0.00  0.00    -0.059 C 
ATOM      7  C   UNL     1      -4.585  -0.688  -4.339  0.00  0.00    +0.147 A 
ATOM      8  C   UNL     1      -4.609  -0.988  -5.702  0.00  0.00    +0.106 A 
ATOM      9  C   UNL     1      -5.787  -0.742  -6.410  0.00  0.00    +0.149 A 
ATOM     10  N   UNL     1      -6.834  -0.235  -5.764  0.00  0.00    -0.219 NA
ATOM     11  C   UNL     1      -6.770   0.033  -4.476  0.00  0.00    +0.225 A 
ATOM     12  N   UNL     1      -5.679  -0.189  -3.769  0.00  0.00    -0.219 NA
ATOM     13  H   UNL     1      -0.948  -1.393  -1.919  0.00  0.00    -0.081 HD
ENDROOT
BRANCH   8  14
ATOM     14  N   UNL     1      -3.480  -1.520  -6.344  0.00  0.00    -0.353 N 
ATOM     15  H   UNL     1      -2.693  -1.754  -5.827  0.00  0.00    +0.143 HD
ATOM     16  H   UNL     1      -3.486  -1.655  -7.305  0.00  0.00    +0.143 HD
ENDBRANCH   8  14
BRANCH   9  17
ATOM     17  N   UNL     1      -5.864  -1.021  -7.770  0.00  0.00    -0.297 N 
ATOM     18  H   UNL     1      -5.128  -1.469  -8.216  0.00  0.00    +0.154 HD
BRANCH  17  19
ATOM     19  C   UNL     1      -7.003  -0.656  -8.495  0.00  0.00    +0.051 A 
ATOM     20  C   UNL     1      -7.805   0.388  -8.053  0.00  0.00    +0.026 A 
ATOM     21  C   UNL     1      -8.929   0.746  -8.770  0.00  0.00    +0.022 A 
ATOM     22  C   UNL     1      -9.257   0.067  -9.931  0.00  0.00    +0.042 A 
ATOM     23  C   UNL     1      -8.461  -0.974 -10.375  0.00  0.00    +0.041 A 
ATOM     24  C   UNL     1      -7.332  -1.333  -9.664  0.00  0.00    +0.063 A 
ATOM     25 CL   UNL     1      -6.328  -2.634 -10.226  0.00  0.00    -0.082 Cl
ATOM     26 CL   UNL     1     -10.671   0.520 -10.830  0.00  0.00    -0.083 Cl
ENDBRANCH  17  19
ENDBRANCH   9  17
BRANCH   1  27
ATOM     27  C   UNL     1      -1.247  -0.683  -0.030  0.00  0.00    -0.043 C 
BRANCH  27  33
ATOM     28  C   UNL     1       0.001   1.485  -0.048  0.00  0.00    +0.005 A 
ATOM     29  C   UNL     1       1.177   2.211  -0.067  0.00  0.00    +0.050 A 
ATOM     30  C   UNL     1       2.397   1.555  -0.089  0.00  0.00    +0.166 A 
ATOM     31  C   UNL     1       2.434   0.162  -0.092  0.00  0.00    +0.166 A 
ATOM     32  C   UNL     1       1.252  -0.559  -0.073  0.00  0.00    +0.051 A 
ATOM     33  C   UNL     1       0.038   0.103  -0.051  0.00  0.00    -0.060 A 
ATOM     34  O   UNL     1       3.739  -0.239  -0.116  0.00  0.00    -0.453 OA
ATOM     35  C   UNL     1       4.488   0.915  -0.540  0.00  0.00    +0.466 C 
ATOM     36  O   UNL     1       3.678   2.026  -0.111  0.00  0.00    -0.453 OA
ENDBRANCH  27  33
ENDBRANCH   1  27
TORSDOF 5
