REMARK  Name = ZINC56326418
REMARK  6 active torsions:
REMARK  status: ('A' for Active; 'I' for Inactive)
REMARK    1  A    between atoms: C_3  and  N_14
REMARK    2  A    between atoms: C_6  and  C_7
REMARK    3  A    between atoms: C_7  and  C_8
REMARK    4  A    between atoms: C_8  and  N_9
REMARK    5  A    between atoms: C_15  and  C_17
REMARK    6  A    between atoms: C_17  and  N_18
REMARK                            x       y       z     vdW  Elec       q    Type
REMARK                         _______ _______ _______ _____ _____    ______ ____
ROOT
ATOM      1  N   UNL     1       3.584   2.123  -0.021  0.00  0.00    -0.284 N 
ATOM      2  C   UNL     1       3.628   3.375   0.478  0.00  0.00    +0.235 C 
ATOM      3  O   UNL     1       2.649   3.848   1.016  0.00  0.00    -0.274 OA
ATOM      4  H   UNL     1       4.387   1.717  -0.382  0.00  0.00    +0.155 HD
ENDROOT
BRANCH   1   7
ATOM      5  C   UNL     1      -0.013   1.375  -0.179  0.00  0.00    +0.005 A 
ATOM      6  C   UNL     1       1.174   2.081  -0.182  0.00  0.00    +0.023 A 
ATOM      7  C   UNL     1       2.380   1.411  -0.018  0.00  0.00    +0.033 A 
ATOM      8  C   UNL     1       2.387   0.032   0.148  0.00  0.00    +0.023 A 
ATOM      9  C   UNL     1       1.197  -0.668   0.150  0.00  0.00    +0.005 A 
ATOM     10  C   UNL     1      -0.002   0.002  -0.014  0.00  0.00    -0.049 A 
BRANCH  10  11
ATOM     11  C   UNL     1      -1.299  -0.765  -0.011  0.00  0.00    +0.016 C 
BRANCH  11  12
ATOM     12  C   UNL     1      -1.639  -1.196  -1.439  0.00  0.00    -0.074 C 
BRANCH  12  13
ATOM     13  N   UNL     1      -2.903  -1.944  -1.437  0.00  0.00    +0.380 N 
ATOM     14  C   UNL     1      -4.034  -1.038  -1.110  0.00  0.00    -0.079 C 
ATOM     15  C   UNL     1      -5.264  -1.784  -1.686  0.00  0.00    -0.020 C 
ATOM     16  C   UNL     1      -4.712  -2.406  -2.989  0.00  0.00    -0.020 C 
ATOM     17  C   UNL     1      -3.187  -2.472  -2.789  0.00  0.00    -0.079 C 
ATOM     18  H   UNL     1      -2.859  -2.701  -0.770  0.00  0.00    -0.082 HD
ENDBRANCH  12  13
ENDBRANCH  11  12
ENDBRANCH  10  11
ENDBRANCH   1   7
BRANCH   2  19
ATOM     19  C   UNL     1       4.893   4.186   0.368  0.00  0.00    +0.214 C 
BRANCH  19  20
ATOM     20  N   UNL     1       4.686   5.500   0.981  0.00  0.00    -0.215 N 
ATOM     21  C   UNL     1       4.229   6.584   0.318  0.00  0.00    +0.247 C 
ATOM     22  O   UNL     1       3.923   6.654  -0.854  0.00  0.00    -0.273 OA
ATOM     23  C   UNL     1       4.179   7.687   1.344  0.00  0.00    +0.113 C 
ATOM     24  C   UNL     1       2.751   8.225   1.507  0.00  0.00    +0.035 C 
ATOM     25  C   UNL     1       2.950   9.739   1.777  0.00  0.00    +0.003 C 
ATOM     26  C   UNL     1       4.146  10.099   0.859  0.00  0.00    +0.003 C 
ATOM     27  C   UNL     1       5.070   8.863   0.939  0.00  0.00    +0.035 C 
ATOM     28  N   UNL     1       4.652   7.059   2.579  0.00  0.00    -0.285 N 
ATOM     29  C   UNL     1       4.920   5.775   2.271  0.00  0.00    +0.310 C 
ATOM     30  O   UNL     1       5.333   4.959   3.071  0.00  0.00    -0.252 OA
ATOM     31  H   UNL     1       4.749   7.482   3.447  0.00  0.00    +0.151 HD
ENDBRANCH  19  20
ENDBRANCH   2  19
TORSDOF 6
