REMARK  Name = ZINC08456486
REMARK  5 active torsions:
REMARK  status: ('A' for Active; 'I' for Inactive)
REMARK    1  A    between atoms: C_3  and  C_23
REMARK    2  A    between atoms: C_5  and  N_7
REMARK    3  A    between atoms: C_8  and  C_10
REMARK    4  A    between atoms: C_10  and  S_11
REMARK    5  A    between atoms: S_11  and  C_12
REMARK                            x       y       z     vdW  Elec       q    Type
REMARK                         _______ _______ _______ _____ _____    ______ ____
ROOT
ATOM      1  C   UNL     1       3.615   6.368  -0.213  0.00  0.00    +0.173 C 
ENDROOT
BRANCH   1   3
ATOM      2  N   UNL     1       2.351   4.253   0.002  0.00  0.00    -0.285 N 
ATOM      3  C   UNL     1       2.326   5.597  -0.092  0.00  0.00    +0.227 C 
ATOM      4  O   UNL     1       1.266   6.187  -0.080  0.00  0.00    -0.275 OA
ATOM      5  H   UNL     1       3.199   3.787   0.070  0.00  0.00    +0.155 HD
BRANCH   2  10
ATOM      6  C   UNL     1      -0.131   1.639   0.749  0.00  0.00    +0.003 A 
ATOM      7  C   UNL     1      -1.217   2.082   0.022  0.00  0.00    +0.019 A 
ATOM      8  C   UNL     1      -1.122   3.255  -0.730  0.00  0.00    +0.054 A 
ATOM      9  C   UNL     1       0.070   3.981  -0.734  0.00  0.00    +0.042 A 
ATOM     10  C   UNL     1       1.153   3.530   0.004  0.00  0.00    +0.035 A 
ATOM     11  C   UNL     1       1.050   2.358   0.745  0.00  0.00    +0.023 A 
BRANCH   8  12
ATOM     12  C   UNL     1      -2.245   3.715  -1.490  0.00  0.00    +0.099 C 
ATOM     13  N   UNL     1      -3.136   4.079  -2.092  0.00  0.00    -0.191 NA
ENDBRANCH   8  12
ENDBRANCH   2  10
ENDBRANCH   1   3
BRANCH   1  14
ATOM     14  S   UNL     1       3.252   8.138  -0.321  0.00  0.00    -0.078 S 
BRANCH  14  15
ATOM     15  C   UNL     1       4.889   8.779  -0.451  0.00  0.00    +0.170 A 
ATOM     16  N   UNL     1       5.077  10.126  -0.563  0.00  0.00    -0.301 N 
ATOM     17  H   UNL     1       4.283  10.733  -0.573  0.00  0.00    +0.171 HD
ATOM     18  C   UNL     1       6.312  10.652  -0.659  0.00  0.00    +0.260 A 
ATOM     19  O   UNL     1       6.464  11.858  -0.753  0.00  0.00    -0.267 OA
ATOM     20  C   UNL     1       7.444   9.778  -0.654  0.00  0.00    +0.072 A 
ATOM     21  C   UNL     1       8.857  10.102  -0.751  0.00  0.00    +0.023 A 
ATOM     22  C   UNL     1       9.760   9.111  -0.727  0.00  0.00    +0.048 A 
ATOM     23  S   UNL     1       8.760   7.644  -0.570  0.00  0.00    -0.077 S 
ATOM     24  C   UNL     1       7.157   8.404  -0.541  0.00  0.00    +0.116 A 
ATOM     25  N   UNL     1       5.913   7.951  -0.444  0.00  0.00    -0.216 NA
ENDBRANCH  14  15
ENDBRANCH   1  14
TORSDOF 5
