REMARK  Name = ZINC44154640
REMARK  1 active torsions:
REMARK  status: ('A' for Active; 'I' for Inactive)
REMARK    1  A    between atoms: C_3  and  C_8
REMARK                            x       y       z     vdW  Elec       q    Type
REMARK                         _______ _______ _______ _____ _____    ______ ____
ROOT
ATOM      1  C   UNL     1      -0.016   1.318   0.009  0.00  0.00    +0.131 A 
ATOM      2  C   UNL     1       1.186   2.011   0.002  0.00  0.00    +0.066 A 
ATOM      3  C   UNL     1       2.368   1.287  -0.014  0.00  0.00    +0.162 A 
ATOM      4  N   UNL     1       2.315  -0.035  -0.020  0.00  0.00    -0.210 NA
ATOM      5  C   UNL     1       1.150  -0.666  -0.013  0.00  0.00    +0.213 A 
ATOM      6  N   UNL     1       0.002  -0.004   0.002  0.00  0.00    -0.222 NA
ATOM      7  N   UNL     1       1.131  -2.050  -0.020  0.00  0.00    -0.327 N 
ATOM      8 BR   UNL     1       1.211   3.902   0.011  0.00  0.00    -0.047 Br
ATOM      9  H   UNL     1       1.965  -2.546  -0.030  0.00  0.00    +0.145 HD
ATOM     10  H   UNL     1       0.285  -2.524  -0.014  0.00  0.00    +0.145 HD
ENDROOT
BRANCH   3  11
ATOM     11  C   UNL     1       3.697   1.997  -0.023  0.00  0.00    +0.435 C 
ATOM     12  F   UNL     1       4.122   2.209   1.293  0.00  0.00    -0.164 F 
ATOM     13  F   UNL     1       4.640   1.212  -0.696  0.00  0.00    -0.164 F 
ATOM     14  F   UNL     1       3.564   3.227  -0.675  0.00  0.00    -0.164 F 
ENDBRANCH   3  11
TORSDOF 1
