REMARK  Name = ZINC22325523
REMARK  6 active torsions:
REMARK  status: ('A' for Active; 'I' for Inactive)
REMARK    1  A    between atoms: C_1  and  C_2
REMARK    2  A    between atoms: N_5  and  C_11
REMARK    3  A    between atoms: C_7  and  C_10
REMARK    4  A    between atoms: C_11  and  C_12
REMARK    5  A    between atoms: C_18  and  C_20
REMARK    6  A    between atoms: C_25  and  O_26
REMARK                            x       y       z     vdW  Elec       q    Type
REMARK                         _______ _______ _______ _____ _____    ______ ____
ROOT
ATOM      1  C   UNL     1      -2.696  -4.052  -0.132  0.00  0.00    +0.064 A 
ATOM      2  C   UNL     1      -2.750  -4.892   0.931  0.00  0.00    +0.073 A 
ATOM      3  S   UNL     1      -2.623  -6.473   0.112  0.00  0.00    -0.060 S 
ATOM      4  C   UNL     1      -2.516  -5.909  -1.470  0.00  0.00    +0.165 A 
ATOM      5  N   UNL     1      -2.583  -4.602  -1.327  0.00  0.00    -0.228 NA
ATOM      6  N   UNL     1      -2.392  -6.643  -2.642  0.00  0.00    -0.261 N 
ATOM      7  C   UNL     1      -2.345  -7.989  -2.592  0.00  0.00    +0.253 C 
ATOM      8  O   UNL     1      -2.410  -8.560  -1.520  0.00  0.00    -0.270 OA
ATOM      9  H   UNL     1      -2.340  -6.187  -3.497  0.00  0.00    +0.157 HD
ENDROOT
BRANCH   7  10
ATOM     10  C   UNL     1      -2.213  -8.769  -3.837  0.00  0.00    +0.080 A 
ATOM     11  C   UNL     1      -2.131  -8.117  -5.069  0.00  0.00    +0.036 A 
ATOM     12  C   UNL     1      -2.009  -8.852  -6.229  0.00  0.00    +0.042 A 
ATOM     13  C   UNL     1      -1.966 -10.237  -6.178  0.00  0.00    +0.023 A 
ATOM     14  C   UNL     1      -2.045 -10.893  -4.966  0.00  0.00    +0.047 A 
ATOM     15  C   UNL     1      -2.163 -10.169  -3.789  0.00  0.00    +0.129 A 
ATOM     16 CL   UNL     1      -1.908  -8.040  -7.761  0.00  0.00    -0.084 Cl
BRANCH  15  17
ATOM     17  O   UNL     1      -2.236 -10.813  -2.597  0.00  0.00    -0.506 OA
ATOM     18  H   UNL     1      -3.136 -11.034  -2.324  0.00  0.00    +0.292 HD
ENDBRANCH  15  17
ENDBRANCH   7  10
BRANCH   1  19
ATOM     19  C   UNL     1      -2.768  -2.557   0.042  0.00  0.00    +0.140 C 
BRANCH  19  23
ATOM     20  C   UNL     1      -0.019   1.526   0.010  0.00  0.00    +0.039 C 
ATOM     21  C   UNL     1       0.002  -0.004   0.002  0.00  0.00    +0.130 C 
ATOM     22  C   UNL     1      -1.434  -0.535   0.015  0.00  0.00    +0.116 C 
ATOM     23  N   UNL     1      -1.407  -2.003   0.085  0.00  0.00    -0.292 NA
ATOM     24  C   UNL     1      -0.692  -2.455   1.287  0.00  0.00    +0.116 C 
ATOM     25  C   UNL     1       0.736  -1.905   1.261  0.00  0.00    +0.130 C 
ATOM     26  O   UNL     1       0.692  -0.479   1.161  0.00  0.00    -0.371 OA
ATOM     27  C   UNL     1       1.483  -2.478   0.055  0.00  0.00    +0.039 C 
ENDBRANCH  19  23
ENDBRANCH   1  19
TORSDOF 4
