REMARK  Name = ZINC09102311
REMARK  12 active torsions:
REMARK  status: ('A' for Active; 'I' for Inactive)
REMARK    1  A    between atoms: C_1  and  C_2
REMARK    2  A    between atoms: C_2  and  C_4
REMARK    3  A    between atoms: C_2  and  N_56
REMARK    4  A    between atoms: C_7  and  S_16
REMARK    5  A    between atoms: N_8  and  C_9
REMARK    6  A    between atoms: S_16  and  C_17
REMARK    7  A    between atoms: C_17  and  C_19
REMARK    8  A    between atoms: C_17  and  C_20
REMARK    9  A    between atoms: N_22  and  C_23
REMARK   10  A    between atoms: C_26  and  C_29
REMARK   11  A    between atoms: C_33  and  N_56
REMARK   12  A    between atoms: C_34  and  N_56
REMARK                            x       y       z     vdW  Elec       q    Type
REMARK                         _______ _______ _______ _____ _____    ______ ____
ROOT
ATOM      1  C   UNL     1      -1.454   3.498   2.498  0.00  0.00    +0.125 A 
ATOM      2  N   UNL     1      -2.569   3.013   2.965  0.00  0.00    -0.135 NA
ATOM      3  N   UNL     1      -2.894   3.618   4.051  0.00  0.00    -0.122 NA
ATOM      4  C   UNL     1      -1.996   4.531   4.340  0.00  0.00    +0.197 A 
ATOM      5  N   UNL     1      -1.044   4.480   3.360  0.00  0.00    -0.275 N 
ENDROOT
BRANCH   5   6
ATOM      6  C   UNL     1       0.110   5.271   3.257  0.00  0.00    +0.050 A 
ATOM      7  C   UNL     1       1.365   4.687   3.358  0.00  0.00    +0.028 A 
ATOM      8  C   UNL     1       2.500   5.467   3.252  0.00  0.00    +0.022 A 
ATOM      9  C   UNL     1       2.386   6.832   3.055  0.00  0.00    +0.041 A 
ATOM     10  C   UNL     1       1.136   7.418   2.959  0.00  0.00    +0.022 A 
ATOM     11  C   UNL     1      -0.001   6.641   3.059  0.00  0.00    +0.028 A 
ATOM     12 CL   UNL     1       3.814   7.811   2.927  0.00  0.00    -0.084 Cl
ENDBRANCH   5   6
BRANCH   1  14
ATOM     13  C   UNL     1      -1.486   3.592   0.020  0.00  0.00    -0.005 C 
ATOM     14  C   UNL     1      -0.743   3.055   1.245  0.00  0.00    -0.003 C 
BRANCH  14  17
ATOM     15  C   UNL     1      -0.022   1.119  -0.018  0.00  0.00    -0.096 C 
ATOM     16  C   UNL     1      -0.084   1.033   2.401  0.00  0.00    -0.096 C 
ATOM     17  N   UNL     1      -0.736   1.578   1.192  0.00  0.00    +0.382 N 
ATOM     18  H   UNL     1      -1.705   1.242   1.155  0.00  0.00    -0.082 HD
ENDBRANCH  14  17
ENDBRANCH   1  14
BRANCH   4  19
ATOM     19  S   UNL     1      -2.011   5.612   5.732  0.00  0.00    -0.073 S 
BRANCH  19  20
ATOM     20  C   UNL     1      -3.542   5.072   6.533  0.00  0.00    +0.137 C 
ATOM     21  C   UNL     1      -3.386   3.627   7.009  0.00  0.00    +0.029 C 
BRANCH  20  22
ATOM     22  C   UNL     1      -3.831   5.962   7.715  0.00  0.00    +0.230 C 
ATOM     23  O   UNL     1      -2.941   6.618   8.212  0.00  0.00    -0.274 OA
ATOM     24  N   UNL     1      -5.080   6.028   8.218  0.00  0.00    -0.285 N 
ATOM     25  H   UNL     1      -5.805   5.557   7.780  0.00  0.00    +0.155 HD
BRANCH  24  26
ATOM     26  C   UNL     1      -5.329   6.778   9.373  0.00  0.00    +0.033 A 
ATOM     27  C   UNL     1      -6.281   6.349  10.289  0.00  0.00    +0.024 A 
ATOM     28  C   UNL     1      -6.521   7.088  11.431  0.00  0.00    +0.014 A 
ATOM     29  C   UNL     1      -5.823   8.261  11.656  0.00  0.00    +0.055 A 
ATOM     30  C   UNL     1      -4.878   8.693  10.743  0.00  0.00    +0.014 A 
ATOM     31  C   UNL     1      -4.630   7.955   9.603  0.00  0.00    +0.024 A 
BRANCH  29  32
ATOM     32  C   UNL     1      -6.092   9.068  12.900  0.00  0.00    +0.417 C 
ATOM     33  F   UNL     1      -7.106   9.996  12.643  0.00  0.00    -0.166 F 
ATOM     34  F   UNL     1      -6.492   8.214  13.933  0.00  0.00    -0.166 F 
ATOM     35  F   UNL     1      -4.927   9.743  13.278  0.00  0.00    -0.166 F 
ENDBRANCH  29  32
ENDBRANCH  24  26
ENDBRANCH  20  22
ENDBRANCH  19  20
ENDBRANCH   4  19
TORSDOF 8
