REMARK  Name = ZINC13428262
REMARK  4 active torsions:
REMARK  status: ('A' for Active; 'I' for Inactive)
REMARK    1  A    between atoms: C_6  and  C_7
REMARK    2  A    between atoms: C_8  and  C_9
REMARK    3  A    between atoms: N_11  and  C_12
REMARK    4  A    between atoms: C_17  and  C_18
REMARK                            x       y       z     vdW  Elec       q    Type
REMARK                         _______ _______ _______ _____ _____    ______ ____
ROOT
ATOM      1  C   UNL     1       4.864   3.997  -0.020  0.00  0.00    +0.241 C 
ATOM      2  O   UNL     1       4.846   5.214  -0.028  0.00  0.00    -0.270 OA
ATOM      3  N   UNL     1       6.042   3.341  -0.041  0.00  0.00    -0.281 N 
ATOM      4  H   UNL     1       6.059   2.373   0.031  0.00  0.00    +0.155 HD
ENDROOT
BRANCH   3   5
ATOM      5  C   UNL     1       7.233   4.051  -0.165  0.00  0.00    +0.052 A 
ATOM      6  C   UNL     1       7.364   5.298   0.431  0.00  0.00    +0.073 A 
ATOM      7  C   UNL     1       8.552   5.998   0.309  0.00  0.00    +0.164 A 
ATOM      8  C   UNL     1       9.614   5.466  -0.418  0.00  0.00    +0.163 A 
ATOM      9  C   UNL     1       9.496   4.231  -1.019  0.00  0.00    +0.066 A 
ATOM     10  C   UNL     1       8.302   3.511  -0.898  0.00  0.00    +0.088 A 
ATOM     11  O   UNL     1      10.775   6.175  -0.532  0.00  0.00    -0.488 OA
ATOM     12  C   UNL     1      11.536   6.328   0.667  0.00  0.00    +0.232 C 
ATOM     13  C   UNL     1      11.027   7.506   1.483  0.00  0.00    +0.082 C 
ATOM     14  C   UNL     1       9.609   7.292   1.987  0.00  0.00    +0.232 C 
ATOM     15  O   UNL     1       8.687   7.221   0.898  0.00  0.00    -0.488 OA
BRANCH  10  16
ATOM     16  C   UNL     1       8.166   2.192  -1.536  0.00  0.00    +0.388 C 
ATOM     17  O   UNL     1       7.098   1.613  -1.514  0.00  0.00    -0.241 OA
ATOM     18  O   UNL     1       9.227   1.627  -2.147  0.00  0.00    -0.241 OA
ENDBRANCH  10  16
ENDBRANCH   3   5
BRANCH   1  20
ATOM     19  C   UNL     1       2.431   3.904   0.034  0.00  0.00    +0.013 C 
ATOM     20  C   UNL     1       3.610   3.247   0.013  0.00  0.00    +0.068 C 
BRANCH  19  26
ATOM     21  C   UNL     1       1.184   1.750   0.076  0.00  0.00    +0.011 A 
ATOM     22  C   UNL     1       0.003   1.047   0.103  0.00  0.00    +0.046 A 
ATOM     23  C   UNL     1      -1.221   1.719   0.115  0.00  0.00    +0.124 A 
ATOM     24  C   UNL     1      -1.229   3.112   0.118  0.00  0.00    -0.002 A 
ATOM     25  C   UNL     1      -0.058   3.825   0.089  0.00  0.00    +0.015 A 
ATOM     26  C   UNL     1       1.169   3.150   0.067  0.00  0.00    -0.024 A 
ATOM     27  C   UNL     1      -2.682   3.546   0.159  0.00  0.00    +0.080 C 
ATOM     28  C   UNL     1      -3.395   2.239   0.580  0.00  0.00    +0.234 C 
ATOM     29  O   UNL     1      -2.486   1.221   0.129  0.00  0.00    -0.491 OA
ENDBRANCH  19  26
ENDBRANCH   1  20
TORSDOF 4
