REMARK  Name = ZINC14721705
REMARK  11 active torsions:
REMARK  status: ('A' for Active; 'I' for Inactive)
REMARK    1  A    between atoms: C_1  and  C_2
REMARK    2  A    between atoms: C_2  and  C_3
REMARK    3  A    between atoms: C_2  and  C_4
REMARK    4  A    between atoms: C_4  and  N_5
REMARK    5  A    between atoms: C_6  and  N_29
REMARK    6  A    between atoms: C_7  and  N_14
REMARK    7  A    between atoms: N_14  and  C_15
REMARK    8  A    between atoms: C_15  and  C_16
REMARK    9  A    between atoms: C_16  and  O_17
REMARK   10  A    between atoms: O_17  and  C_18
REMARK   11  A    between atoms: C_19  and  C_21
REMARK                            x       y       z     vdW  Elec       q    Type
REMARK                         _______ _______ _______ _____ _____    ______ ____
ROOT
ATOM      1  N   UNL     1      -1.412   3.913  -0.425  0.00  0.00    -0.280 N 
ATOM      2  C   UNL     1      -0.144   4.401  -0.211  0.00  0.00    +0.127 A 
ATOM      3  C   UNL     1       0.922   3.525  -0.202  0.00  0.00    +0.140 A 
ATOM      4  C   UNL     1       0.677   2.155  -0.413  0.00  0.00    +0.277 A 
ATOM      5  O   UNL     1       1.601   1.359  -0.410  0.00  0.00    -0.266 OA
ATOM      6  N   UNL     1      -0.584   1.729  -0.618  0.00  0.00    -0.273 N 
ATOM      7  H   UNL     1      -0.760   0.756  -0.764  0.00  0.00    +0.173 HD
ATOM      8  C   UNL     1      -1.610   2.598  -0.629  0.00  0.00    +0.331 A 
ATOM      9  O   UNL     1      -2.738   2.188  -0.823  0.00  0.00    -0.246 OA
ENDROOT
BRANCH   3  10
ATOM     10  N   UNL     1       2.234   3.994   0.016  0.00  0.00    -0.258 N 
ATOM     11  C   UNL     1       2.532   4.663   1.148  0.00  0.00    +0.253 C 
ATOM     12  O   UNL     1       3.641   5.138   1.300  0.00  0.00    -0.270 OA
BRANCH  11  13
ATOM     13  C   UNL     1       1.510   4.820   2.204  0.00  0.00    +0.057 A 
ATOM     14  C   UNL     1       1.637   5.822   3.174  0.00  0.00    +0.037 A 
ATOM     15  C   UNL     1       0.653   5.927   4.141  0.00  0.00    +0.078 A 
ATOM     16  C   UNL     1      -0.417   5.045   4.119  0.00  0.00    +0.147 A 
ATOM     17  N   UNL     1      -0.509   4.110   3.191  0.00  0.00    -0.241 NA
ATOM     18  C   UNL     1       0.400   3.975   2.247  0.00  0.00    +0.125 A 
ATOM     19 CL   UNL     1      -1.654   5.171   5.330  0.00  0.00    -0.060 Cl
ATOM     20 CL   UNL     1       0.757   7.150   5.370  0.00  0.00    -0.080 Cl
ENDBRANCH  11  13
BRANCH  10  21
ATOM     21  C   UNL     1       3.274   3.755  -0.988  0.00  0.00    +0.142 C 
BRANCH  21  22
ATOM     22  C   UNL     1       3.210   4.846  -2.058  0.00  0.00    +0.179 C 
BRANCH  22  23
ATOM     23  O   UNL     1       3.535   6.108  -1.472  0.00  0.00    -0.381 OA
ATOM     24  C   UNL     1       3.504   7.201  -2.392  0.00  0.00    +0.194 C 
ENDBRANCH  22  23
ENDBRANCH  21  22
ENDBRANCH  10  21
ENDBRANCH   3  10
BRANCH   2  25
ATOM     25  N   UNL     1       0.059   5.745  -0.007  0.00  0.00    -0.343 N 
ATOM     26  H   UNL     1       0.960   6.102   0.015  0.00  0.00    +0.144 HD
ATOM     27  H   UNL     1      -0.700   6.337   0.114  0.00  0.00    +0.144 HD
ENDBRANCH   2  25
BRANCH   1  28
ATOM     28  C   UNL     1      -2.553   4.832  -0.437  0.00  0.00    +0.131 C 
BRANCH  28  30
ATOM     29  C   UNL     1      -4.048   6.201  -1.898  0.00  0.00    +0.009 C 
ATOM     30  C   UNL     1      -2.783   5.341  -1.862  0.00  0.00    +0.003 C 
ATOM     31  C   UNL     1      -1.583   6.181  -2.303  0.00  0.00    +0.009 C 
ENDBRANCH  28  30
ENDBRANCH   1  28
TORSDOF 8
