REMARK  Name = ZINC39399481
REMARK  10 active torsions:
REMARK  status: ('A' for Active; 'I' for Inactive)
REMARK    1  A    between atoms: C_1  and  C_2
REMARK    2  A    between atoms: C_5  and  C_9
REMARK    3  A    between atoms: C_7  and  C_8
REMARK    4  A    between atoms: C_13  and  C_15
REMARK    5  A    between atoms: C_15  and  N_16
REMARK    6  A    between atoms: C_19  and  C_22
REMARK    7  A    between atoms: C_22  and  C_24
REMARK    8  A    between atoms: C_22  and  O_32
REMARK    9  A    between atoms: C_24  and  C_25
REMARK   10  A    between atoms: C_25  and  C_26
REMARK                            x       y       z     vdW  Elec       q    Type
REMARK                         _______ _______ _______ _____ _____    ______ ____
ROOT
ATOM      1  N   UNL     1      -1.234  -5.739  -3.306  0.00  0.00    +0.380 N 
ATOM      2  C   UNL     1      -1.338  -7.164  -2.969  0.00  0.00    -0.078 C 
ATOM      3  C   UNL     1      -1.291  -8.000  -4.249  0.00  0.00    -0.013 C 
ATOM      4  C   UNL     1      -2.460  -7.602  -5.155  0.00  0.00    +0.014 C 
ATOM      5  C   UNL     1      -2.383  -6.099  -5.440  0.00  0.00    -0.013 C 
ATOM      6  C   UNL     1      -2.389  -5.333  -4.115  0.00  0.00    -0.078 C 
ATOM      7  H   UNL     1      -0.385  -5.581  -3.829  0.00  0.00    -0.082 HD
ENDROOT
BRANCH   1   8
ATOM      8  C   UNL     1      -1.200  -4.946  -2.070  0.00  0.00    -0.063 C 
BRANCH   8  13
ATOM      9  C   UNL     1      -0.977  -2.621  -1.164  0.00  0.00    +0.077 C 
ATOM     10  N   UNL     1       0.214  -2.102  -1.046  0.00  0.00    -0.153 NA
ATOM     11  N   UNL     1       1.065  -2.500  -2.072  0.00  0.00    -0.161 NA
ATOM     12  C   UNL     1       0.488  -3.296  -2.913  0.00  0.00    +0.115 C 
ATOM     13  C   UNL     1      -0.931  -3.479  -2.413  0.00  0.00    +0.066 C 
BRANCH   9  18
ATOM     14  C   UNL     1      -5.462  -1.841   2.345  0.00  0.00    +0.044 C 
ATOM     15  C   UNL     1      -4.286  -2.045   1.425  0.00  0.00    -0.048 A 
ATOM     16  C   UNL     1      -4.413  -2.867   0.319  0.00  0.00    +0.004 A 
ATOM     17  C   UNL     1      -3.342  -3.059  -0.528  0.00  0.00    +0.010 A 
ATOM     18  C   UNL     1      -2.125  -2.421  -0.266  0.00  0.00    -0.001 A 
ATOM     19  C   UNL     1      -2.005  -1.593   0.854  0.00  0.00    +0.013 A 
ATOM     20  C   UNL     1      -3.088  -1.406   1.688  0.00  0.00    -0.047 A 
ATOM     21  C   UNL     1      -2.963  -0.509   2.893  0.00  0.00    +0.044 C 
ENDBRANCH   9  18
ENDBRANCH   8  13
ENDBRANCH   1   8
BRANCH   4  22
ATOM     22  C   UNL     1      -2.375  -8.377  -6.471  0.00  0.00    +0.118 C 
BRANCH  22  23
ATOM     23  O   UNL     1      -1.141  -8.072  -7.125  0.00  0.00    -0.392 OA
ATOM     24  H   UNL     1      -1.030  -7.135  -7.338  0.00  0.00    +0.210 HD
ENDBRANCH  22  23
BRANCH  22  25
ATOM     25  C   UNL     1      -3.543  -7.978  -7.375  0.00  0.00    +0.036 C 
BRANCH  25  26
ATOM     26  C   UNL     1      -3.529  -8.842  -8.637  0.00  0.00    +0.037 C 
BRANCH  26  27
ATOM     27  C   UNL     1      -4.680  -8.449  -9.528  0.00  0.00    -0.047 A 
ATOM     28  C   UNL     1      -5.906  -9.072  -9.388  0.00  0.00    +0.003 A 
ATOM     29  C   UNL     1      -6.962  -8.711 -10.204  0.00  0.00    +0.000 A 
ATOM     30  C   UNL     1      -6.791  -7.728 -11.161  0.00  0.00    +0.000 A 
ATOM     31  C   UNL     1      -5.565  -7.105 -11.300  0.00  0.00    +0.000 A 
ATOM     32  C   UNL     1      -4.511  -7.462 -10.480  0.00  0.00    +0.003 A 
ENDBRANCH  26  27
ENDBRANCH  25  26
ENDBRANCH  22  25
ENDBRANCH   4  22
TORSDOF 8
