REMARK  Name = ZINC08628622
REMARK  4 active torsions:
REMARK  status: ('A' for Active; 'I' for Inactive)
REMARK    1  A    between atoms: C_3  and  N_17
REMARK    2  A    between atoms: C_6  and  C_7
REMARK    3  A    between atoms: C_7  and  C_15
REMARK    4  A    between atoms: N_8  and  N_9
REMARK                            x       y       z     vdW  Elec       q    Type
REMARK                         _______ _______ _______ _____ _____    ______ ____
ROOT
ATOM      1  C   UNL     1       4.367  -0.123   1.438  0.00  0.00    +0.077 C 
ATOM      2  N   UNL     1       3.204  -0.669   1.622  0.00  0.00    -0.188 NA
ENDROOT
BRANCH   1   8
ATOM      3  C   UNL     1       5.455  -2.361   1.377  0.00  0.00    +0.012 A 
ATOM      4  C   UNL     1       6.580  -3.148   1.243  0.00  0.00    +0.033 A 
ATOM      5  C   UNL     1       7.818  -2.563   1.046  0.00  0.00    +0.126 A 
ATOM      6  C   UNL     1       7.936  -1.186   0.977  0.00  0.00    +0.033 A 
ATOM      7  C   UNL     1       6.819  -0.387   1.103  0.00  0.00    +0.012 A 
ATOM      8  C   UNL     1       5.566  -0.971   1.302  0.00  0.00    -0.001 A 
BRANCH   5   9
ATOM      9  N   UNL     1       9.021  -3.413   0.909  0.00  0.00    +0.056 N 
ATOM     10  O   UNL     1      10.113  -2.901   0.735  0.00  0.00    -0.126 OA
ATOM     11  O   UNL     1       8.920  -4.626   0.970  0.00  0.00    -0.126 OA
ENDBRANCH   5   9
ENDBRANCH   1   8
BRANCH   2  12
ATOM     12  N   UNL     1       2.049   0.124   1.618  0.00  0.00    -0.255 N 
ATOM     13  C   UNL     1       1.270   0.318   2.848  0.00  0.00    +0.126 C 
ATOM     14  C   UNL     1      -0.190  -0.056   2.572  0.00  0.00    +0.021 C 
ATOM     15  C   UNL     1      -0.699   0.747   1.372  0.00  0.00    +0.003 C 
ATOM     16  C   UNL     1       0.132   0.400   0.134  0.00  0.00    +0.021 C 
ATOM     17  C   UNL     1       1.595   0.779   0.383  0.00  0.00    +0.126 C 
ENDBRANCH   2  12
BRANCH   1  18
ATOM     18  C   UNL     1       4.492   1.377   1.362  0.00  0.00    +0.137 C 
ATOM     19 BR   UNL     1       4.718   2.108   3.173  0.00  0.00    -0.085 Br
ENDBRANCH   1  18
TORSDOF 4
