REMARK  Name = ZINC15669049
REMARK  9 active torsions:
REMARK  status: ('A' for Active; 'I' for Inactive)
REMARK    1  A    between atoms: C_1  and  C_2
REMARK    2  A    between atoms: N_5  and  C_7
REMARK    3  A    between atoms: C_10  and  O_13
REMARK    4  A    between atoms: O_13  and  C_14
REMARK    5  A    between atoms: C_20  and  C_22
REMARK    6  A    between atoms: C_25  and  O_30
REMARK    7  A    between atoms: C_26  and  O_28
REMARK    8  A    between atoms: O_28  and  C_29
REMARK    9  A    between atoms: O_30  and  C_31
REMARK                            x       y       z     vdW  Elec       q    Type
REMARK                         _______ _______ _______ _____ _____    ______ ____
ROOT
ATOM      1  C   UNL     1      -3.565  -0.567  -2.607  0.00  0.00    +0.068 C 
ATOM      2  C   UNL     1      -5.051  -0.460  -2.379  0.00  0.00    +0.067 A 
ATOM      3  C   UNL     1      -5.675  -0.182  -1.145  0.00  0.00    +0.033 A 
ATOM      4  C   UNL     1      -7.010  -0.167  -1.350  0.00  0.00    +0.133 A 
ATOM      5  N   UNL     1      -7.215  -0.436  -2.686  0.00  0.00    -0.218 N 
ATOM      6  N   UNL     1      -5.970  -0.610  -3.290  0.00  0.00    -0.170 NA
ATOM      7  N   UNL     1      -8.066   0.059  -0.501  0.00  0.00    -0.269 N 
ATOM      8  C   UNL     1      -8.188   0.282   0.773  0.00  0.00    +0.228 C 
ATOM      9  O   UNL     1      -9.331   0.329   1.176  0.00  0.00    -0.275 OA
ATOM     10  C   UNL     1      -7.155   0.487   1.810  0.00  0.00    +0.166 C 
ATOM     11  S   UNL     1      -5.714  -0.564   1.583  0.00  0.00    -0.138 S 
ATOM     12  C   UNL     1      -4.887   0.041   0.109  0.00  0.00    +0.112 C 
ATOM     13  H   UNL     1      -8.921   0.050  -0.960  0.00  0.00    +0.156 HD
ENDROOT
BRANCH   5  14
ATOM     14  C   UNL     1      -8.460  -0.519  -3.326  0.00  0.00    +0.068 A 
ATOM     15  C   UNL     1      -8.709  -1.544  -4.229  0.00  0.00    +0.031 A 
ATOM     16  C   UNL     1      -9.936  -1.629  -4.856  0.00  0.00    +0.048 A 
ATOM     17  C   UNL     1     -10.916  -0.683  -4.592  0.00  0.00    +0.120 A 
ATOM     18  C   UNL     1     -10.666   0.344  -3.694  0.00  0.00    +0.048 A 
ATOM     19  C   UNL     1      -9.441   0.427  -3.063  0.00  0.00    +0.031 A 
BRANCH  17  20
ATOM     20  O   UNL     1     -12.123  -0.763  -5.214  0.00  0.00    -0.495 OA
ATOM     21  C   UNL     1     -12.312  -1.847  -6.126  0.00  0.00    +0.277 C 
ENDBRANCH  17  20
ENDBRANCH   5  14
BRANCH  12  22
ATOM     22  C   UNL     1      -3.560  -0.660  -0.023  0.00  0.00    -0.026 A 
ATOM     23  C   UNL     1      -3.518  -2.027  -0.220  0.00  0.00    +0.009 A 
ATOM     24  C   UNL     1      -2.303  -2.675  -0.342  0.00  0.00    +0.050 A 
ATOM     25  C   UNL     1      -1.123  -1.952  -0.273  0.00  0.00    +0.162 A 
ATOM     26  C   UNL     1      -1.164  -0.576  -0.069  0.00  0.00    +0.162 A 
ATOM     27  C   UNL     1      -2.386   0.067   0.052  0.00  0.00    +0.054 A 
BRANCH  26  28
ATOM     28  O   UNL     1      -0.009   0.137   0.005  0.00  0.00    -0.491 OA
ATOM     29  C   UNL     1      -0.128   1.547   0.209  0.00  0.00    +0.277 C 
ENDBRANCH  26  28
BRANCH  25  30
ATOM     30  O   UNL     1       0.074  -2.586  -0.399  0.00  0.00    -0.491 OA
ATOM     31  C   UNL     1       0.040  -4.000  -0.606  0.00  0.00    +0.277 C 
ENDBRANCH  25  30
ENDBRANCH  12  22
TORSDOF 5
