REMARK  Name = ZINC43120596
REMARK  8 active torsions:
REMARK  status: ('A' for Active; 'I' for Inactive)
REMARK    1  A    between atoms: C_1  and  N_2
REMARK    2  A    between atoms: N_2  and  C_3
REMARK    3  A    between atoms: N_2  and  C_4
REMARK    4  A    between atoms: C_4  and  C_5
REMARK    5  A    between atoms: C_5  and  C_6
REMARK    6  A    between atoms: C_6  and  N_7
REMARK    7  A    between atoms: C_9  and  C_16
REMARK    8  A    between atoms: C_17  and  N_23
REMARK                            x       y       z     vdW  Elec       q    Type
REMARK                         _______ _______ _______ _____ _____    ______ ____
ROOT
ATOM      1  C   UNL     1      -6.307   1.949  -4.521  0.00  0.00    +0.075 C 
ATOM      2  C   UNL     1      -5.944   3.220  -4.883  0.00  0.00    +0.122 C 
ATOM      3  C   UNL     1      -7.162   3.871  -5.399  0.00  0.00    +0.268 C 
ATOM      4  O   UNL     1      -7.233   5.010  -5.817  0.00  0.00    -0.268 OA
ATOM      5  N   UNL     1      -8.179   2.996  -5.332  0.00  0.00    -0.247 N 
ATOM      6  C   UNL     1      -7.751   1.826  -4.825  0.00  0.00    +0.253 C 
ATOM      7  O   UNL     1      -8.433   0.838  -4.645  0.00  0.00    -0.270 OA
ATOM      8  H   UNL     1      -9.090   3.180  -5.611  0.00  0.00    +0.158 HD
ENDROOT
BRANCH   1  11
ATOM      9  N   UNL     1      -4.186  -0.254  -2.519  0.00  0.00    -0.346 N 
ATOM     10  C   UNL     1      -4.963   0.852  -2.671  0.00  0.00    +0.095 A 
ATOM     11  C   UNL     1      -5.432   0.910  -3.950  0.00  0.00    +0.014 A 
ATOM     12  C   UNL     1      -4.894  -0.270  -4.649  0.00  0.00    +0.008 A 
ATOM     13  C   UNL     1      -4.116  -0.958  -3.703  0.00  0.00    +0.050 A 
ATOM     14  C   UNL     1      -3.465  -2.129  -4.077  0.00  0.00    +0.026 A 
ATOM     15  C   UNL     1      -3.585  -2.601  -5.367  0.00  0.00    +0.002 A 
ATOM     16  C   UNL     1      -4.350  -1.918  -6.301  0.00  0.00    +0.001 A 
ATOM     17  C   UNL     1      -5.009  -0.761  -5.948  0.00  0.00    +0.010 A 
BRANCH   9  18
ATOM     18  C   UNL     1      -3.513  -0.640  -1.275  0.00  0.00    +0.120 C 
BRANCH  18  19
ATOM     19  C   UNL     1      -2.078  -0.110  -1.286  0.00  0.00    +0.003 C 
BRANCH  19  20
ATOM     20  C   UNL     1      -1.376  -0.512   0.012  0.00  0.00    -0.078 C 
BRANCH  20  22
ATOM     21  C   UNL     1      -0.018   1.465   0.010  0.00  0.00    -0.097 C 
ATOM     22  N   UNL     1       0.002  -0.004   0.002  0.00  0.00    +0.376 N 
ATOM     23  C   UNL     1       0.713  -0.491   1.192  0.00  0.00    -0.097 C 
ATOM     24  H   UNL     1       0.474  -0.330  -0.828  0.00  0.00    -0.083 HD
ENDBRANCH  20  22
ENDBRANCH  19  20
ENDBRANCH  18  19
ENDBRANCH   9  18
ENDBRANCH   1  11
BRANCH   2  25
ATOM     25  N   UNL     1      -4.675   3.786  -4.782  0.00  0.00    -0.309 N 
ATOM     26  C   UNL     1      -3.623   3.513  -5.612  0.00  0.00    +0.094 A 
ATOM     27  C   UNL     1      -2.547   4.227  -5.240  0.00  0.00    +0.048 A 
ATOM     28  C   UNL     1      -2.941   5.024  -4.075  0.00  0.00    +0.089 A 
ATOM     29  C   UNL     1      -4.293   4.711  -3.833  0.00  0.00    +0.072 A 
ATOM     30  C   UNL     1      -4.948   5.329  -2.774  0.00  0.00    +0.030 A 
ATOM     31  C   UNL     1      -4.239   6.232  -2.001  0.00  0.00    +0.022 A 
ATOM     32  C   UNL     1      -2.911   6.495  -2.299  0.00  0.00    +0.111 A 
ATOM     33  N   UNL     1      -2.304   5.896  -3.301  0.00  0.00    -0.253 NA
ENDBRANCH   2  25
TORSDOF 6
