REMARK  Name = ZINC21580696
REMARK  9 active torsions:
REMARK  status: ('A' for Active; 'I' for Inactive)
REMARK    1  A    between atoms: C_1  and  C_2
REMARK    2  A    between atoms: C_2  and  C_3
REMARK    3  A    between atoms: C_3  and  C_25
REMARK    4  A    between atoms: N_6  and  N_10
REMARK    5  A    between atoms: C_11  and  C_13
REMARK    6  A    between atoms: C_13  and  N_14
REMARK    7  A    between atoms: N_14  and  C_15
REMARK    8  A    between atoms: N_14  and  C_16
REMARK    9  A    between atoms: C_16  and  C_17
REMARK                            x       y       z     vdW  Elec       q    Type
REMARK                         _______ _______ _______ _____ _____    ______ ____
ROOT
ATOM      1  N   UNL     1      -1.581   3.630  -0.726  0.00  0.00    -0.225 N 
ATOM      2  C   UNL     1      -2.375   4.111  -1.704  0.00  0.00    +0.213 C 
ATOM      3  O   UNL     1      -2.354   3.605  -2.806  0.00  0.00    -0.276 OA
ATOM      4  H   UNL     1      -1.601   4.089   0.273  0.00  0.00    +0.173 HD
ENDROOT
BRANCH   1   8
ATOM      5  C   UNL     1       1.097   1.243  -1.402  0.00  0.00    +0.111 C 
ATOM      6  C   UNL     1       0.602   2.653  -1.148  0.00  0.00    +0.263 C 
ATOM      7  O   UNL     1       1.267   3.665  -1.101  0.00  0.00    -0.271 OA
ATOM      8  N   UNL     1      -0.731   2.547  -0.984  0.00  0.00    -0.137 N 
ATOM      9  C   UNL     1      -1.144   1.279  -1.102  0.00  0.00    +0.326 C 
ATOM     10  O   UNL     1      -2.305   0.934  -0.998  0.00  0.00    -0.251 OA
ATOM     11  N   UNL     1      -0.130   0.429  -1.346  0.00  0.00    -0.284 N 
ATOM     12  C   UNL     1       2.078   0.812  -0.310  0.00  0.00    +0.041 C 
ATOM     13  H   UNL     1      -0.076  -0.659  -1.494  0.00  0.00    +0.151 HD
BRANCH   5  15
ATOM     14  C   UNL     1       2.028  -0.332  -3.104  0.00  0.00    +0.006 C 
ATOM     15  C   UNL     1       1.750   1.138  -2.782  0.00  0.00    +0.032 C 
ENDBRANCH   5  15
ENDBRANCH   1   8
BRANCH   2  16
ATOM     16  C   UNL     1      -3.289   5.277  -1.427  0.00  0.00    +0.020 C 
BRANCH  16  17
ATOM     17  N   UNL     1      -4.043   5.607  -2.644  0.00  0.00    +0.386 N 
ATOM     18  C   UNL     1      -4.963   4.520  -3.005  0.00  0.00    -0.095 C 
ATOM     19  H   UNL     1      -3.322   5.727  -3.466  0.00  0.00    -0.081 HD
BRANCH  17  20
ATOM     20  C   UNL     1      -4.765   6.877  -2.487  0.00  0.00    -0.041 C 
BRANCH  20  21
ATOM     21  C   UNL     1      -3.794   8.024  -2.597  0.00  0.00    -0.044 A 
ATOM     22  C   UNL     1      -3.407   8.713  -1.462  0.00  0.00    +0.003 A 
ATOM     23  C   UNL     1      -2.512   9.761  -1.561  0.00  0.00    +0.002 A 
ATOM     24  C   UNL     1      -2.011  10.129  -2.796  0.00  0.00    +0.021 A 
ATOM     25  C   UNL     1      -2.401   9.444  -3.932  0.00  0.00    +0.059 A 
ATOM     26  C   UNL     1      -3.293   8.390  -3.833  0.00  0.00    +0.061 A 
ATOM     27 CL   UNL     1      -3.784   7.530  -5.258  0.00  0.00    -0.082 Cl
ATOM     28 CL   UNL     1      -1.771   9.906  -5.483  0.00  0.00    -0.082 Cl
ENDBRANCH  20  21
ENDBRANCH  17  20
ENDBRANCH  16  17
ENDBRANCH   2  16
TORSDOF 6
