REMARK  Name = ZINC41355459
REMARK  6 active torsions:
REMARK  status: ('A' for Active; 'I' for Inactive)
REMARK    1  A    between atoms: C_1  and  C_2
REMARK    2  A    between atoms: C_4  and  C_18
REMARK    3  A    between atoms: C_5  and  N_9
REMARK    4  A    between atoms: C_10  and  C_17
REMARK    5  A    between atoms: C_11  and  C_15
REMARK    6  A    between atoms: C_12  and  C_14
REMARK                            x       y       z     vdW  Elec       q    Type
REMARK                         _______ _______ _______ _____ _____    ______ ____
ROOT
ATOM      1  C   UNL     1      -0.480   1.462  -0.023  0.00  0.00    +0.044 C 
ATOM      2  C   UNL     1      -0.244  -0.026   0.009  0.00  0.00    -0.049 A 
ATOM      3  C   UNL     1       0.188  -0.680  -1.130  0.00  0.00    +0.009 A 
ATOM      4  C   UNL     1       0.405  -2.044  -1.105  0.00  0.00    -0.023 A 
ATOM      5  C   UNL     1       0.190  -2.759   0.065  0.00  0.00    +0.087 A 
ATOM      6  C   UNL     1      -0.244  -2.099   1.208  0.00  0.00    +0.067 A 
ATOM      7  C   UNL     1      -0.454  -0.733   1.178  0.00  0.00    +0.025 A 
ATOM      8 CL   UNL     1      -0.515  -2.988   2.675  0.00  0.00    -0.081 Cl
ATOM      9  C   UNL     1       0.875  -2.756  -2.348  0.00  0.00    +0.046 C 
ENDROOT
BRANCH   5  10
ATOM     10  N   UNL     1       0.409  -4.143   0.093  0.00  0.00    -0.234 N 
ATOM     11  C   UNL     1       1.290  -4.782   0.882  0.00  0.00    +0.052 A 
ATOM     12  C   UNL     1       1.192  -6.134   0.599  0.00  0.00    +0.058 A 
ATOM     13  C   UNL     1       0.203  -6.278  -0.404  0.00  0.00    +0.071 A 
ATOM     14  N   UNL     1      -0.257  -5.091  -0.690  0.00  0.00    -0.171 NA
ATOM     15  C   UNL     1      -0.245  -7.575  -1.027  0.00  0.00    +0.068 C 
ATOM     16  C   UNL     1       2.214  -4.145   1.887  0.00  0.00    +0.066 C 
BRANCH  12  17
ATOM     17  C   UNL     1       1.966  -7.213   1.220  0.00  0.00    +0.262 C 
ATOM     18  O   UNL     1       1.784  -8.364   0.881  0.00  0.00    -0.296 OA
ENDBRANCH  12  17
ENDBRANCH   5  10
TORSDOF 2
