REMARK  Name = ZINC15910317
REMARK  6 active torsions:
REMARK  status: ('A' for Active; 'I' for Inactive)
REMARK    1  A    between atoms: C_1  and  N_2
REMARK    2  A    between atoms: C_10  and  C_11
REMARK    3  A    between atoms: C_11  and  C_12
REMARK    4  A    between atoms: N_14  and  N_15
REMARK    5  A    between atoms: C_16  and  C_18
REMARK    6  A    between atoms: C_18  and  C_19
REMARK                            x       y       z     vdW  Elec       q    Type
REMARK                         _______ _______ _______ _____ _____    ______ ____
ROOT
ATOM      1  C   UNL     1       8.505  -2.656   3.025  0.00  0.00    +0.236 C 
ATOM      2  O   UNL     1       8.373  -1.934   3.990  0.00  0.00    -0.274 OA
ATOM      3  N   UNL     1       7.595  -2.626   2.032  0.00  0.00    -0.234 N 
ATOM      4  H   UNL     1       7.700  -3.204   1.260  0.00  0.00    +0.173 HD
ENDROOT
BRANCH   3   5
ATOM      5  N   UNL     1       6.496  -1.760   2.114  0.00  0.00    -0.234 N 
ATOM      6  C   UNL     1       5.586  -1.730   1.121  0.00  0.00    +0.233 C 
ATOM      7  O   UNL     1       5.717  -2.452   0.156  0.00  0.00    -0.274 OA
ATOM      8  H   UNL     1       6.391  -1.182   2.886  0.00  0.00    +0.173 HD
BRANCH   6   9
ATOM      9  C   UNL     1       4.404  -0.798   1.210  0.00  0.00    +0.146 C 
BRANCH   9  10
ATOM     10  C   UNL     1       3.532  -0.961  -0.037  0.00  0.00    +0.216 C 
ATOM     11  C   UNL     1       2.414   0.050  -0.021  0.00  0.00    +0.007 A 
ATOM     12  C   UNL     1       2.383   1.425  -0.013  0.00  0.00    +0.008 A 
ATOM     13  C   UNL     1       1.168   2.090   0.002  0.00  0.00    +0.000 A 
ATOM     14  C   UNL     1      -0.017   1.375   0.010  0.00  0.00    +0.001 A 
ATOM     15  C   UNL     1       0.002  -0.004   0.002  0.00  0.00    +0.015 A 
ATOM     16  C   UNL     1       1.223  -0.681  -0.013  0.00  0.00    +0.066 A 
ATOM     17  C   UNL     1       1.568  -2.115  -0.024  0.00  0.00    +0.340 C 
ATOM     18  O   UNL     1       0.762  -3.023  -0.021  0.00  0.00    -0.245 OA
ATOM     19  O   UNL     1       2.902  -2.271  -0.038  0.00  0.00    -0.453 OA
ENDBRANCH   9  10
ENDBRANCH   6   9
ENDBRANCH   3   5
BRANCH   1  20
ATOM     20  C   UNL     1       9.686  -3.587   2.936  0.00  0.00    +0.171 C 
BRANCH  20  30
ATOM     21  C   UNL     1       9.402  -5.179   5.572  0.00  0.00    +0.150 C 
ATOM     22  N   UNL     1      10.401  -4.140   5.314  0.00  0.00    -0.330 N 
ATOM     23  C   UNL     1      11.373  -3.703   6.192  0.00  0.00    +0.069 A 
ATOM     24  C   UNL     1      11.724  -4.042   7.492  0.00  0.00    +0.028 A 
ATOM     25  C   UNL     1      12.776  -3.396   8.105  0.00  0.00    +0.002 A 
ATOM     26  C   UNL     1      13.486  -2.412   7.432  0.00  0.00    +0.002 A 
ATOM     27  C   UNL     1      13.155  -2.066   6.153  0.00  0.00    +0.030 A 
ATOM     28  C   UNL     1      12.091  -2.706   5.511  0.00  0.00    +0.089 A 
ATOM     29  N   UNL     1      11.536  -2.592   4.277  0.00  0.00    -0.232 NA
ATOM     30  C   UNL     1      10.545  -3.428   4.164  0.00  0.00    +0.119 A 
ENDBRANCH  20  30
ENDBRANCH   1  20
TORSDOF 5
