REMARK  Name = ZINC39464598
REMARK  7 active torsions:
REMARK  status: ('A' for Active; 'I' for Inactive)
REMARK    1  A    between atoms: C_1  and  C_2
REMARK    2  A    between atoms: C_2  and  O_3
REMARK    3  A    between atoms: O_3  and  C_4
REMARK    4  A    between atoms: C_9  and  C_10
REMARK    5  A    between atoms: C_15  and  O_16
REMARK    6  A    between atoms: P_24  and  O_27
REMARK    7  A    between atoms: O_27  and  C_28
REMARK                            x       y       z     vdW  Elec       q    Type
REMARK                         _______ _______ _______ _____ _____    ______ ____
ROOT
ATOM      1  C   UNL     1      -1.498  -1.848   0.006  0.00  0.00    +0.129 A 
ATOM      2  C   UNL     1      -0.393  -2.679  -0.003  0.00  0.00    +0.051 A 
ATOM      3  C   UNL     1      -0.547  -4.058  -0.010  0.00  0.00    -0.020 A 
ATOM      4  C   UNL     1      -1.813  -4.608  -0.006  0.00  0.00    -0.041 A 
ATOM      5  C   UNL     1      -2.928  -3.787   0.003  0.00  0.00    +0.016 A 
ATOM      6  C   UNL     1      -2.781  -2.404   0.016  0.00  0.00    +0.028 A 
ATOM      7  C   UNL     1      -2.022  -6.101  -0.010  0.00  0.00    +0.052 C 
ATOM      8  C   UNL     1      -0.745  -6.797  -0.481  0.00  0.00    +0.108 C 
ATOM      9  N   UNL     1       0.387  -6.300   0.316  0.00  0.00    -0.224 NA
ATOM     10  C   UNL     1       0.695  -4.911  -0.023  0.00  0.00    +0.130 C 
ATOM     11  C   UNL     1       1.716  -4.320   0.954  0.00  0.00    +0.196 C 
ATOM     12  O   UNL     1       2.942  -5.070   0.849  0.00  0.00    -0.294 OA
ATOM     13  P   UNL     1       2.863  -6.693   0.934  0.00  0.00    +0.421 P 
ATOM     14  O   UNL     1       2.783  -7.127   2.347  0.00  0.00    -0.239 OA
ATOM     15  N   UNL     1       1.482  -7.114   0.128  0.00  0.00    -0.156 NA
ATOM     16  H   UNL     1       1.445  -7.893  -0.448  0.00  0.00    +0.153 HD
ENDROOT
BRANCH   6  17
ATOM     17  C   UNL     1      -3.976  -1.526   0.033  0.00  0.00    +0.027 A 
ATOM     18  C   UNL     1      -4.827  -1.524   1.136  0.00  0.00    +0.012 A 
ATOM     19  C   UNL     1      -5.938  -0.705   1.147  0.00  0.00    +0.001 A 
ATOM     20  C   UNL     1      -6.209   0.116   0.066  0.00  0.00    +0.004 A 
ATOM     21  C   UNL     1      -5.372   0.122  -1.033  0.00  0.00    +0.046 A 
ATOM     22  C   UNL     1      -4.250  -0.692  -1.055  0.00  0.00    +0.125 A 
BRANCH  22  23
ATOM     23  O   UNL     1      -3.423  -0.682  -2.133  0.00  0.00    -0.506 OA
ATOM     24  H   UNL     1      -3.661  -1.323  -2.817  0.00  0.00    +0.292 HD
ENDBRANCH  22  23
ENDBRANCH   6  17
BRANCH  13  25
ATOM     25  O   UNL     1       4.149  -7.351   0.223  0.00  0.00    -0.299 OA
ATOM     26  C   UNL     1       4.464  -8.741   0.317  0.00  0.00    +0.206 C 
ENDBRANCH  13  25
BRANCH   1  27
ATOM     27  O   UNL     1      -1.339  -0.499   0.012  0.00  0.00    -0.492 OA
BRANCH  27  29
ATOM     28  C   UNL     1      -0.019   1.526   0.010  0.00  0.00    +0.048 C 
ATOM     29  C   UNL     1       0.002  -0.004   0.002  0.00  0.00    +0.226 C 
ENDBRANCH  27  29
ENDBRANCH   1  27
TORSDOF 5
