REMARK  Name = ZINC15071694
REMARK  10 active torsions:
REMARK  status: ('A' for Active; 'I' for Inactive)
REMARK    1  A    between atoms: C_1  and  C_2
REMARK    2  A    between atoms: C_2  and  C_3
REMARK    3  A    between atoms: C_2  and  C_4
REMARK    4  A    between atoms: C_2  and  C_5
REMARK    5  A    between atoms: C_5  and  N_6
REMARK    6  A    between atoms: C_12  and  C_14
REMARK    7  A    between atoms: C_14  and  C_15
REMARK    8  A    between atoms: N_17  and  C_18
REMARK    9  A    between atoms: C_18  and  C_19
REMARK   10  A    between atoms: C_19  and  N_24
REMARK                            x       y       z     vdW  Elec       q    Type
REMARK                         _______ _______ _______ _____ _____    ______ ____
ROOT
ATOM      1  C   UNL     1       1.934  -0.442  -2.078  0.00  0.00    +0.212 C 
ATOM      2  O   UNL     1       2.545  -1.486  -2.160  0.00  0.00    -0.276 OA
ATOM      3  N   UNL     1       0.950  -0.306  -1.167  0.00  0.00    -0.314 N 
ATOM      4  H   UNL     1       0.396   0.641  -1.093  0.00  0.00    +0.149 HD
ENDROOT
BRANCH   1   5
ATOM      5  C   UNL     1       2.275   0.704  -2.995  0.00  0.00    +0.089 C 
BRANCH   5  12
ATOM      6  N   UNL     1       3.243  -0.897  -4.573  0.00  0.00    +0.389 N 
ATOM      7  C   UNL     1       4.482  -1.386  -5.199  0.00  0.00    -0.059 C 
ATOM      8  C   UNL     1       5.430  -1.870  -4.100  0.00  0.00    +0.085 C 
ATOM      9  N   UNL     1       5.561  -0.848  -3.066  0.00  0.00    -0.318 N 
ATOM     10  C   UNL     1       4.686   0.153  -2.919  0.00  0.00    +0.200 C 
ATOM     11  O   UNL     1       4.854   0.942  -2.013  0.00  0.00    -0.278 OA
ATOM     12  C   UNL     1       3.506   0.342  -3.829  0.00  0.00    +0.028 C 
ATOM     13  H   UNL     1       6.407  -0.881  -2.364  0.00  0.00    +0.149 HD
ATOM     14  H   UNL     1       2.884  -1.659  -3.865  0.00  0.00    -0.081 HD
BRANCH   6  15
ATOM     15  C   UNL     1       2.191  -0.694  -5.578  0.00  0.00    -0.072 C 
BRANCH  15  17
ATOM     16  C   UNL     1       3.665  -1.180  -7.536  0.00  0.00    +0.009 C 
ATOM     17  C   UNL     1       2.807  -0.113  -6.852  0.00  0.00    -0.052 C 
ATOM     18  C   UNL     1       1.692   0.330  -7.801  0.00  0.00    +0.009 C 
ATOM     19  C   UNL     1       3.680   1.091  -6.493  0.00  0.00    +0.009 C 
ENDBRANCH  15  17
ENDBRANCH   6  15
ENDBRANCH   5  12
ENDBRANCH   1   5
BRANCH   3  20
ATOM     20  C   UNL     1       0.619  -1.421  -0.276  0.00  0.00    +0.126 C 
BRANCH  20  21
ATOM     21  C   UNL     1      -0.600  -1.050   0.572  0.00  0.00    +0.038 C 
ATOM     22  C   UNL     1      -0.970  -2.220   1.507  0.00  0.00    +0.024 C 
ATOM     23  C   UNL     1      -0.272  -1.873   2.845  0.00  0.00    +0.002 C 
ATOM     24  C   UNL     1      -0.445  -0.336   2.933  0.00  0.00    +0.002 C 
ATOM     25  C   UNL     1      -0.266   0.148   1.479  0.00  0.00    +0.024 C 
BRANCH  21  26
ATOM     26  N   UNL     1      -1.737  -0.722  -0.297  0.00  0.00    -0.291 NA
ATOM     27  C   UNL     1      -2.105  -1.869  -1.139  0.00  0.00    +0.113 C 
ATOM     28  C   UNL     1      -3.252  -1.466  -2.070  0.00  0.00    +0.175 C 
ATOM     29  O   UNL     1      -4.351  -0.994  -1.286  0.00  0.00    -0.377 OA
ATOM     30  C   UNL     1      -4.028   0.124  -0.455  0.00  0.00    +0.175 C 
ATOM     31  C   UNL     1      -2.889  -0.264   0.492  0.00  0.00    +0.113 C 
ENDBRANCH  21  26
ENDBRANCH  20  21
ENDBRANCH   3  20
TORSDOF 7
