REMARK  Name = ZINC05923814
REMARK  6 active torsions:
REMARK  status: ('A' for Active; 'I' for Inactive)
REMARK    1  A    between atoms: C_1  and  C_2
REMARK    2  A    between atoms: C_2  and  C_3
REMARK    3  A    between atoms: C_3  and  S_4
REMARK    4  A    between atoms: S_4  and  C_5
REMARK    5  A    between atoms: C_15  and  C_17
REMARK    6  A    between atoms: C_20  and  N_23
REMARK                            x       y       z     vdW  Elec       q    Type
REMARK                         _______ _______ _______ _____ _____    ______ ____
ROOT
ATOM      1  C   UNL     1       1.641  -2.747   2.702  0.00  0.00    +0.171 A 
ATOM      2  N   UNL     1       2.084  -1.789   3.489  0.00  0.00    -0.185 NA
ATOM      3  C   UNL     1       2.755  -2.075   4.616  0.00  0.00    +0.280 A 
ATOM      4  O   UNL     1       3.157  -1.174   5.337  0.00  0.00    -0.265 OA
ATOM      5  C   UNL     1       2.993  -3.423   4.962  0.00  0.00    +0.069 A 
ATOM      6  C   UNL     1       2.527  -4.404   4.143  0.00  0.00    +0.111 A 
ATOM      7  N   UNL     1       1.843  -4.060   3.006  0.00  0.00    -0.322 N 
ATOM      8  N   UNL     1       2.735  -5.726   4.458  0.00  0.00    -0.304 N 
ATOM      9  C   UNL     1       3.053  -6.098   5.736  0.00  0.00    +0.017 C 
ATOM     10  C   UNL     1       3.536  -5.194   6.616  0.00  0.00    +0.024 C 
ATOM     11  C   UNL     1       3.751  -3.758   6.213  0.00  0.00    +0.092 C 
ATOM     12  C   UNL     1       3.851  -5.564   7.935  0.00  0.00    +0.162 C 
ATOM     13  O   UNL     1       4.290  -4.729   8.700  0.00  0.00    -0.292 OA
ATOM     14  C   UNL     1       3.657  -6.976   8.417  0.00  0.00    +0.080 C 
ATOM     15  C   UNL     1       2.516  -7.622   7.623  0.00  0.00    +0.014 C 
ATOM     16  C   UNL     1       2.856  -7.540   6.133  0.00  0.00    +0.051 C 
ATOM     17  H   UNL     1       2.655  -6.402   3.768  0.00  0.00    +0.153 HD
ATOM     18  H   UNL     1       1.506  -4.752   2.417  0.00  0.00    +0.169 HD
ENDROOT
BRANCH  11  19
ATOM     19  C   UNL     1       5.221  -3.527   5.976  0.00  0.00    -0.035 A 
ATOM     20  C   UNL     1       5.878  -4.224   4.979  0.00  0.00    +0.007 A 
ATOM     21  C   UNL     1       7.226  -4.012   4.761  0.00  0.00    +0.033 A 
ATOM     22  C   UNL     1       7.918  -3.103   5.540  0.00  0.00    +0.126 A 
ATOM     23  C   UNL     1       7.261  -2.406   6.536  0.00  0.00    +0.033 A 
ATOM     24  C   UNL     1       5.911  -2.614   6.751  0.00  0.00    +0.007 A 
BRANCH  22  25
ATOM     25  N   UNL     1       9.362  -2.877   5.307  0.00  0.00    +0.056 N 
ATOM     26  O   UNL     1       9.937  -3.487   4.436  0.00  0.00    -0.126 OA
ATOM     27  O   UNL     1       9.967  -2.083   5.988  0.00  0.00    -0.126 OA
ENDBRANCH  22  25
ENDBRANCH  11  19
BRANCH   1  28
ATOM     28  S   UNL     1       0.767  -2.325   1.232  0.00  0.00    -0.088 S 
BRANCH  28  29
ATOM     29  C   UNL     1       0.742  -0.511   1.242  0.00  0.00    +0.077 C 
BRANCH  29  31
ATOM     30  C   UNL     1      -0.019   1.526   0.010  0.00  0.00    +0.004 C 
ATOM     31  C   UNL     1       0.002  -0.004   0.002  0.00  0.00    +0.008 C 
ENDBRANCH  29  31
ENDBRANCH  28  29
ENDBRANCH   1  28
TORSDOF 5
