REMARK  Name = ZINC40322225
REMARK  7 active torsions:
REMARK  status: ('A' for Active; 'I' for Inactive)
REMARK    1  A    between atoms: C_4  and  C_7
REMARK    2  A    between atoms: C_7  and  C_9
REMARK    3  A    between atoms: C_7  and  N_28
REMARK    4  A    between atoms: C_9  and  N_10
REMARK    5  A    between atoms: C_11  and  C_13
REMARK    6  A    between atoms: C_16  and  S_18
REMARK    7  A    between atoms: S_18  and  C_21
REMARK                            x       y       z     vdW  Elec       q    Type
REMARK                         _______ _______ _______ _____ _____    ______ ____
ROOT
ATOM      1  N   UNL     1       4.267   0.117  -2.294  0.00  0.00    -0.310 N 
ATOM      2  C   UNL     1       4.558   0.023  -3.607  0.00  0.00    +0.279 C 
ATOM      3  O   UNL     1       4.746  -1.068  -4.112  0.00  0.00    -0.267 OA
ATOM      4  H   UNL     1       4.116   0.986  -1.891  0.00  0.00    +0.149 HD
ENDROOT
BRANCH   2   5
ATOM      5  C   UNL     1       4.646   1.236  -4.426  0.00  0.00    +0.192 A 
ATOM      6  C   UNL     1       4.926   1.284  -5.762  0.00  0.00    +0.056 A 
ATOM      7  C   UNL     1       4.909   2.638  -6.130  0.00  0.00    +0.070 A 
ATOM      8  C   UNL     1       4.622   3.349  -5.017  0.00  0.00    +0.246 A 
ATOM      9  O   UNL     1       4.460   2.501  -3.994  0.00  0.00    -0.433 OA
BRANCH   8  10
ATOM     10  S   UNL     1       4.481   5.103  -4.928  0.00  0.00    +0.058 S 
ATOM     11  O   UNL     1       4.733   5.463  -3.577  0.00  0.00    -0.161 OA
ATOM     12  O   UNL     1       5.238   5.627  -6.011  0.00  0.00    -0.161 OA
BRANCH  10  13
ATOM     13  C   UNL     1       2.796   5.506  -5.251  0.00  0.00    +0.097 A 
ATOM     14  C   UNL     1       2.377   5.738  -6.548  0.00  0.00    +0.029 A 
ATOM     15  C   UNL     1       1.056   6.054  -6.802  0.00  0.00    +0.022 A 
ATOM     16  C   UNL     1       0.152   6.139  -5.758  0.00  0.00    +0.041 A 
ATOM     17  C   UNL     1       0.572   5.908  -4.460  0.00  0.00    +0.022 A 
ATOM     18  C   UNL     1       1.892   5.586  -4.208  0.00  0.00    +0.029 A 
ATOM     19 CL   UNL     1      -1.507   6.537  -6.075  0.00  0.00    -0.084 Cl
ENDBRANCH  10  13
ENDBRANCH   8  10
ENDBRANCH   2   5
BRANCH   1  20
ATOM     20  C   UNL     1       4.178  -1.095  -1.475  0.00  0.00    +0.094 C 
BRANCH  20  21
ATOM     21  C   UNL     1       3.709  -0.726  -0.067  0.00  0.00    -0.020 C 
BRANCH  21  22
ATOM     22  N   UNL     1       3.678  -1.932   0.771  0.00  0.00    +0.385 N 
ATOM     23  C   UNL     1       3.134  -1.575   2.096  0.00  0.00    -0.078 C 
ATOM     24  C   UNL     1       2.543  -2.816   2.716  0.00  0.00    -0.019 C 
ATOM     25  C   UNL     1       3.543  -3.501   3.666  0.00  0.00    -0.002 C 
ATOM     26  C   UNL     1       4.974  -3.497   3.091  0.00  0.00    -0.002 C 
ATOM     27  C   UNL     1       5.001  -3.798   1.614  0.00  0.00    -0.019 C 
ATOM     28  C   UNL     1       4.964  -2.471   0.828  0.00  0.00    -0.078 C 
ATOM     29  H   UNL     1       3.063  -2.607   0.342  0.00  0.00    -0.081 HD
ENDBRANCH  21  22
BRANCH  21  33
ATOM     30  C   UNL     1      -0.206   0.971  -0.270  0.00  0.00    +0.000 A 
ATOM     31  C   UNL     1       0.899   1.794  -0.154  0.00  0.00    +0.000 A 
ATOM     32  C   UNL     1       2.166   1.245  -0.088  0.00  0.00    +0.002 A 
ATOM     33  C   UNL     1       2.328  -0.127  -0.138  0.00  0.00    -0.059 A 
ATOM     34  C   UNL     1       1.223  -0.950  -0.252  0.00  0.00    +0.002 A 
ATOM     35  C   UNL     1      -0.044  -0.401  -0.320  0.00  0.00    +0.000 A 
ENDBRANCH  21  33
ENDBRANCH  20  21
ENDBRANCH   1  20
TORSDOF 7
