REMARK  Name = ZINC50335746
REMARK  5 active torsions:
REMARK  status: ('A' for Active; 'I' for Inactive)
REMARK    1  A    between atoms: C_1  and  C_2
REMARK    2  A    between atoms: C_2  and  C_3
REMARK    3  A    between atoms: C_8  and  O_15
REMARK    4  A    between atoms: C_11  and  C_13
REMARK    5  A    between atoms: C_11  and  C_14
REMARK                            x       y       z     vdW  Elec       q    Type
REMARK                         _______ _______ _______ _____ _____    ______ ____
ROOT
ATOM      1  C   UNL     1      -1.412  -0.526   0.013  0.00  0.00    +0.079 A 
ATOM      2  N   UNL     1      -2.183  -0.807  -1.007  0.00  0.00    -0.249 NA
ATOM      3  C   UNL     1      -3.420  -1.264  -0.853  0.00  0.00    +0.055 A 
ATOM      4  C   UNL     1      -3.815  -1.415   0.439  0.00  0.00    +0.041 A 
ATOM      5  S   UNL     1      -2.381  -0.896   1.341  0.00  0.00    -0.074 S 
ATOM      6  C   UNL     1      -5.131  -1.906   0.939  0.00  0.00    +0.153 C 
ATOM      7  C   UNL     1      -5.871  -2.570  -0.234  0.00  0.00    +0.043 C 
ATOM      8  C   UNL     1      -5.795  -1.647  -1.453  0.00  0.00    -0.027 C 
ATOM      9  C   UNL     1      -4.365  -1.606  -1.996  0.00  0.00    +0.062 C 
ATOM     10  C   UNL     1      -6.224  -0.235  -1.047  0.00  0.00    +0.011 C 
ATOM     11  C   UNL     1      -6.736  -2.167  -2.542  0.00  0.00    +0.011 C 
ENDROOT
BRANCH   1  13
ATOM     12  C   UNL     1      -0.019   1.526   0.010  0.00  0.00    +0.011 C 
ATOM     13  C   UNL     1       0.002  -0.004   0.002  0.00  0.00    +0.059 C 
ENDBRANCH   1  13
BRANCH   6  14
ATOM     14  O   UNL     1      -4.925  -2.859   1.983  0.00  0.00    -0.387 OA
ATOM     15  H   UNL     1      -4.446  -2.509   2.746  0.00  0.00    +0.210 HD
ENDBRANCH   6  14
TORSDOF 2
