REMARK  Name = ZINC52916852
REMARK  8 active torsions:
REMARK  status: ('A' for Active; 'I' for Inactive)
REMARK    1  A    between atoms: C_1  and  C_2
REMARK    2  A    between atoms: C_3  and  C_8
REMARK    3  A    between atoms: C_4  and  C_7
REMARK    4  A    between atoms: C_8  and  N_9
REMARK    5  A    between atoms: N_9  and  C_10
REMARK    6  A    between atoms: N_9  and  C_11
REMARK    7  A    between atoms: C_11  and  C_12
REMARK    8  A    between atoms: C_15  and  N_18
REMARK                            x       y       z     vdW  Elec       q    Type
REMARK                         _______ _______ _______ _____ _____    ______ ____
ROOT
ATOM      1  C   UNL     1       1.365   0.174  -4.469  0.00  0.00    -0.043 C 
ENDROOT
BRANCH   1   2
ATOM      2  C   UNL     1       2.781   0.232  -4.982  0.00  0.00    -0.064 A 
ATOM      3  C   UNL     1       3.492   1.416  -4.913  0.00  0.00    +0.003 A 
ATOM      4  C   UNL     1       4.790   1.473  -5.382  0.00  0.00    +0.023 A 
ATOM      5  C   UNL     1       5.381   0.338  -5.923  0.00  0.00    +0.030 A 
ATOM      6  C   UNL     1       4.664  -0.850  -5.990  0.00  0.00    +0.023 A 
ATOM      7  C   UNL     1       3.369  -0.901  -5.514  0.00  0.00    +0.003 A 
BRANCH   5   8
ATOM      8  N   UNL     1       6.693   0.392  -6.399  0.00  0.00    -0.330 N 
ATOM      9  C   UNL     1       7.372  -0.826  -6.862  0.00  0.00    +0.105 C 
ATOM     10  C   UNL     1       7.905  -0.586  -8.278  0.00  0.00    +0.019 C 
ATOM     11  C   UNL     1       8.786   0.665  -8.281  0.00  0.00    +0.003 C 
ATOM     12  C   UNL     1       7.953   1.880  -7.866  0.00  0.00    +0.019 C 
ATOM     13  C   UNL     1       7.419   1.668  -6.451  0.00  0.00    +0.105 C 
ENDBRANCH   5   8
ENDBRANCH   1   2
BRANCH   1  14
ATOM     14  N   UNL     1       1.374  -0.192  -3.046  0.00  0.00    +0.383 N 
ATOM     15  C   UNL     1       2.025   0.872  -2.271  0.00  0.00    -0.095 C 
ATOM     16  H   UNL     1       1.882  -1.056  -2.925  0.00  0.00    -0.081 HD
BRANCH  14  17
ATOM     17  C   UNL     1      -0.007  -0.366  -2.577  0.00  0.00    -0.038 C 
BRANCH  17  20
ATOM     18  C   UNL     1      -0.010   1.452   0.028  0.00  0.00    +0.069 C 
ATOM     19  C   UNL     1       0.004  -0.055   0.000  0.00  0.00    +0.082 A 
ATOM     20  C   UNL     1       0.005  -0.860  -1.153  0.00  0.00    +0.001 A 
ATOM     21  C   UNL     1       0.019  -2.149  -0.764  0.00  0.00    +0.136 A 
ATOM     22  O   UNL     1       0.025  -2.178   0.577  0.00  0.00    -0.359 OA
ATOM     23  N   UNL     1       0.021  -0.839   1.040  0.00  0.00    -0.083 NA
ATOM     24  C   UNL     1       0.025  -3.350  -1.675  0.00  0.00    +0.089 C 
ENDBRANCH  17  20
ENDBRANCH  14  17
ENDBRANCH   1  14
TORSDOF 5
