REMARK  Name = ZINC08765298
REMARK  10 active torsions:
REMARK  status: ('A' for Active; 'I' for Inactive)
REMARK    1  A    between atoms: C_1  and  C_2
REMARK    2  A    between atoms: C_3  and  C_21
REMARK    3  A    between atoms: C_9  and  O_19
REMARK    4  A    between atoms: C_15  and  C_17
REMARK    5  A    between atoms: C_15  and  C_18
REMARK    6  A    between atoms: O_19  and  C_20
REMARK    7  A    between atoms: C_21  and  C_22
REMARK    8  A    between atoms: N_24  and  CA_25
REMARK    9  A    between atoms: CA_25  and  C_27
REMARK   10  A    between atoms: CA_25  and  C_33
REMARK                            x       y       z     vdW  Elec       q    Type
REMARK                         _______ _______ _______ _____ _____    ______ ____
ROOT
ATOM      1  C   UNL     1      -2.647  -2.835   2.302  0.00  0.00    +0.045 C 
ATOM      2  C   UNL     1      -3.646  -2.060   3.121  0.00  0.00    -0.026 A 
ATOM      3  C   UNL     1      -4.458  -1.142   2.535  0.00  0.00    +0.049 A 
ATOM      4  C   UNL     1      -5.392  -0.431   3.314  0.00  0.00    +0.341 A 
ATOM      5  O   UNL     1      -6.121   0.386   2.780  0.00  0.00    -0.245 OA
ATOM      6  O   UNL     1      -5.492  -0.640   4.638  0.00  0.00    -0.421 OA
ATOM      7  C   UNL     1      -4.697  -1.539   5.261  0.00  0.00    +0.149 A 
ATOM      8  C   UNL     1      -3.753  -2.271   4.520  0.00  0.00    +0.063 A 
ATOM      9  C   UNL     1      -2.930  -3.207   5.171  0.00  0.00    +0.134 A 
ATOM     10  C   UNL     1      -3.060  -3.395   6.531  0.00  0.00    +0.092 A 
ATOM     11  C   UNL     1      -3.998  -2.665   7.263  0.00  0.00    +0.131 A 
ATOM     12  C   UNL     1      -4.810  -1.740   6.630  0.00  0.00    +0.038 A 
ATOM     13  C   UNL     1      -5.824  -0.929   7.398  0.00  0.00    +0.046 C 
ATOM     14  C   UNL     1      -6.095  -1.589   8.752  0.00  0.00    +0.052 C 
ATOM     15  C   UNL     1      -4.747  -1.919   9.404  0.00  0.00    +0.105 C 
ATOM     16  O   UNL     1      -4.085  -2.895   8.599  0.00  0.00    -0.486 OA
ATOM     17  C   UNL     1      -4.977  -2.481  10.809  0.00  0.00    +0.055 C 
ATOM     18  C   UNL     1      -3.890  -0.654   9.488  0.00  0.00    +0.055 C 
ENDROOT
BRANCH   9  19
ATOM     19  O   UNL     1      -2.014  -3.919   4.466  0.00  0.00    -0.494 OA
ATOM     20  C   UNL     1      -1.215  -4.850   5.198  0.00  0.00    +0.277 C 
ENDBRANCH   9  19
BRANCH   3  21
ATOM     21  C   UNL     1      -4.365  -0.890   1.052  0.00  0.00    +0.138 C 
BRANCH  21  22
ATOM     22  C   UNL     1      -3.366   0.208   0.791  0.00  0.00    +0.218 C 
ATOM     23  O   UNL     1      -2.788   0.734   1.718  0.00  0.00    -0.275 OA
ATOM     24  N   UNL     1      -3.117   0.606  -0.472  0.00  0.00    -0.298 N 
ATOM     25  H   UNL     1      -3.580   0.186  -1.214  0.00  0.00    +0.150 HD
BRANCH  24  26
ATOM     26  CA  UNL     1      -2.146   1.674  -0.726  0.00  0.00    +0.217 C 
BRANCH  26  27
ATOM     27  C   UNL     1      -2.468   2.345  -2.035  0.00  0.00    -0.016 A 
ATOM     28  C   UNL     1      -2.870   1.588  -3.120  0.00  0.00    +0.006 A 
ATOM     29  C   UNL     1      -3.170   2.204  -4.320  0.00  0.00    +0.000 A 
ATOM     30  C   UNL     1      -3.059   3.577  -4.439  0.00  0.00    +0.000 A 
ATOM     31  C   UNL     1      -2.652   4.334  -3.356  0.00  0.00    +0.000 A 
ATOM     32  C   UNL     1      -2.356   3.718  -2.155  0.00  0.00    +0.006 A 
ENDBRANCH  26  27
BRANCH  26  33
ATOM     33  C   UNL     1      -0.759   1.087  -0.789  0.00  0.00    +0.380 C 
ATOM     34  O   UNL     1      -0.598  -0.101  -0.639  0.00  0.00    -0.244 OA
ATOM     35  OXT UNL     1       0.296   1.883  -1.019  0.00  0.00    -0.244 OA
ENDBRANCH  26  33
ENDBRANCH  24  26
ENDBRANCH  21  22
ENDBRANCH   3  21
TORSDOF 6
