REMARK  Name = ZINC64623234
REMARK  9 active torsions:
REMARK  status: ('A' for Active; 'I' for Inactive)
REMARK    1  A    between atoms: C_1  and  C_2
REMARK    2  A    between atoms: C_2  and  O_3
REMARK    3  A    between atoms: O_3  and  C_4
REMARK    4  A    between atoms: C_4  and  C_6
REMARK    5  A    between atoms: C_11  and  N_12
REMARK    6  A    between atoms: C_21  and  O_37
REMARK    7  A    between atoms: C_28  and  C_30
REMARK    8  A    between atoms: C_33  and  C_36
REMARK    9  A    between atoms: O_37  and  C_38
REMARK                            x       y       z     vdW  Elec       q    Type
REMARK                         _______ _______ _______ _____ _____    ______ ____
ROOT
ATOM      1  N   UNL     1      -1.689  -4.837  -2.000  0.00  0.00    -0.269 N 
ATOM      2  C   UNL     1      -1.855  -6.106  -1.578  0.00  0.00    +0.307 C 
ATOM      3  O   UNL     1      -2.947  -6.634  -1.652  0.00  0.00    -0.252 OA
ATOM      4  N   UNL     1      -0.808  -6.790  -1.074  0.00  0.00    -0.276 N 
ATOM      5  C   UNL     1       0.530  -6.191  -1.098  0.00  0.00    +0.114 C 
ATOM      6  C   UNL     1       1.084  -6.116   0.336  0.00  0.00    +0.052 C 
ATOM      7  C   UNL     1       0.807  -7.454   0.977  0.00  0.00    -0.035 C 
ATOM      8  C   UNL     1       1.602  -8.303   1.614  0.00  0.00    +0.003 A 
ATOM      9  C   UNL     1       3.012  -8.210   2.025  0.00  0.00    +0.055 A 
ATOM     10  C   UNL     1       3.536  -9.296   2.658  0.00  0.00    +0.121 A 
ATOM     11  C   UNL     1       2.816 -10.469   2.930  0.00  0.00    +0.047 A 
ATOM     12  C   UNL     1       1.512 -10.658   2.603  0.00  0.00    +0.029 A 
ATOM     13  C   UNL     1       0.832  -9.548   1.921  0.00  0.00    +0.043 A 
ATOM     14  N   UNL     1      -0.397  -9.435   1.515  0.00  0.00    -0.375 N 
ATOM     15  C   UNL     1      -0.577  -8.093   0.961  0.00  0.00    +0.131 C 
ATOM     16  C   UNL     1      -1.022  -8.128  -0.500  0.00  0.00    +0.134 C 
ATOM     17  H   UNL     1      -0.804  -4.439  -2.007  0.00  0.00    +0.156 HD
ATOM     18  H   UNL     1      -1.078 -10.123   1.570  0.00  0.00    +0.160 HD
ENDROOT
BRANCH  16  19
ATOM     19  C   UNL     1      -2.483  -8.489  -0.577  0.00  0.00    -0.025 A 
ATOM     20  C   UNL     1      -3.416  -7.751   0.129  0.00  0.00    +0.006 A 
ATOM     21  C   UNL     1      -4.756  -8.082   0.059  0.00  0.00    +0.004 A 
ATOM     22  C   UNL     1      -5.164  -9.150  -0.718  0.00  0.00    -0.050 A 
ATOM     23  C   UNL     1      -4.232  -9.888  -1.424  0.00  0.00    +0.004 A 
ATOM     24  C   UNL     1      -2.892  -9.554  -1.357  0.00  0.00    +0.006 A 
ATOM     25  C   UNL     1      -6.625  -9.512  -0.794  0.00  0.00    +0.044 C 
ENDBRANCH  16  19
BRANCH   1  31
ATOM     26  C   UNL     1      -2.796  -2.700  -2.284  0.00  0.00    +0.080 A 
ATOM     27  C   UNL     1      -3.904  -1.968  -2.721  0.00  0.00    +0.017 A 
ATOM     28  C   UNL     1      -4.980  -2.619  -3.282  0.00  0.00    +0.001 A 
ATOM     29  C   UNL     1      -4.972  -3.999  -3.415  0.00  0.00    +0.002 A 
ATOM     30  C   UNL     1      -3.886  -4.736  -2.988  0.00  0.00    +0.024 A 
ATOM     31  C   UNL     1      -2.789  -4.096  -2.426  0.00  0.00    +0.049 A 
BRANCH  26  32
ATOM     32  C   UNL     1      -1.641  -2.009  -1.684  0.00  0.00    +0.341 C 
ATOM     33  O   UNL     1      -0.732  -2.654  -1.200  0.00  0.00    -0.245 OA
BRANCH  32  34
ATOM     34  O   UNL     1      -1.592  -0.663  -1.673  0.00  0.00    -0.461 OA
BRANCH  34  36
ATOM     35  C   UNL     1      -0.566   1.463  -1.155  0.00  0.00    +0.048 C 
ATOM     36  C   UNL     1      -0.443  -0.060  -1.074  0.00  0.00    +0.229 C 
ENDBRANCH  34  36
ENDBRANCH  32  34
ENDBRANCH  26  32
ENDBRANCH   1  31
BRANCH  10  37
ATOM     37  O   UNL     1       4.836  -9.240   3.050  0.00  0.00    -0.495 OA
ATOM     38  C   UNL     1       5.365 -10.391   3.712  0.00  0.00    +0.277 C 
ENDBRANCH  10  37
TORSDOF 6
