REMARK  Name = ZINC09346832
REMARK  5 active torsions:
REMARK  status: ('A' for Active; 'I' for Inactive)
REMARK    1  A    between atoms: C_1  and  O_2
REMARK    2  A    between atoms: O_2  and  C_3
REMARK    3  A    between atoms: C_8  and  N_9
REMARK    4  A    between atoms: C_10  and  C_12
REMARK    5  A    between atoms: N_18  and  C_21
REMARK                            x       y       z     vdW  Elec       q    Type
REMARK                         _______ _______ _______ _____ _____    ______ ____
ROOT
ATOM      1  C   UNL     1       2.304   5.484   0.494  0.00  0.00    +0.118 A 
ATOM      2  C   UNL     1       1.061   5.995   0.813  0.00  0.00    +0.106 A 
ATOM      3  N   UNL     1      -0.036   5.205   0.681  0.00  0.00    -0.313 N 
ATOM      4  H   UNL     1      -0.909   5.565   0.906  0.00  0.00    +0.170 HD
ATOM      5  C   UNL     1       0.059   3.939   0.247  0.00  0.00    +0.334 A 
ATOM      6  O   UNL     1      -0.953   3.273   0.147  0.00  0.00    -0.246 OA
ATOM      7  N   UNL     1       1.238   3.382  -0.080  0.00  0.00    -0.228 N 
ATOM      8  C   UNL     1       2.382   4.091   0.026  0.00  0.00    +0.273 A 
ATOM      9  O   UNL     1       3.453   3.591  -0.264  0.00  0.00    -0.266 OA
ENDROOT
BRANCH   7  10
ATOM     10  C   UNL     1       1.281   2.054  -0.528  0.00  0.00    +0.056 A 
ATOM     11  C   UNL     1       1.601   1.032   0.356  0.00  0.00    +0.029 A 
ATOM     12  C   UNL     1       1.643  -0.275  -0.086  0.00  0.00    +0.042 A 
ATOM     13  C   UNL     1       1.367  -0.568  -1.411  0.00  0.00    +0.142 A 
ATOM     14  C   UNL     1       1.048   0.451  -2.296  0.00  0.00    +0.078 A 
ATOM     15  C   UNL     1       1.005   1.760  -1.856  0.00  0.00    +0.049 A 
ATOM     16 CL   UNL     1       0.704   0.081  -3.957  0.00  0.00    -0.081 Cl
ATOM     17  F   UNL     1       1.409  -1.847  -1.843  0.00  0.00    -0.204 F 
ENDBRANCH   7  10
BRANCH   1  19
ATOM     18  N   UNL     1       4.703   5.831   0.197  0.00  0.00    -0.278 N 
ATOM     19  C   UNL     1       3.516   6.308   0.622  0.00  0.00    +0.255 C 
ATOM     20  O   UNL     1       3.447   7.419   1.113  0.00  0.00    -0.270 OA
ATOM     21  H   UNL     1       4.748   4.971  -0.248  0.00  0.00    +0.155 HD
BRANCH  18  27
ATOM     22  C   UNL     1       7.103   5.937   0.489  0.00  0.00    +0.141 A 
ATOM     23  C   UNL     1       8.255   6.681   0.686  0.00  0.00    +0.049 A 
ATOM     24  C   UNL     1       8.180   8.058   0.791  0.00  0.00    +0.024 A 
ATOM     25  C   UNL     1       6.956   8.697   0.700  0.00  0.00    +0.043 A 
ATOM     26  C   UNL     1       5.802   7.961   0.498  0.00  0.00    +0.047 A 
ATOM     27  C   UNL     1       5.870   6.579   0.397  0.00  0.00    +0.077 A 
ATOM     28 CL   UNL     1       6.868  10.425   0.833  0.00  0.00    -0.083 Cl
BRANCH  22  30
ATOM     29  C   UNL     1       8.474   3.994   0.488  0.00  0.00    +0.277 C 
ATOM     30  O   UNL     1       7.176   4.583   0.384  0.00  0.00    -0.493 OA
ENDBRANCH  22  30
ENDBRANCH  18  27
ENDBRANCH   1  19
TORSDOF 4
