REMARK  Name = ZINC14472345
REMARK  7 active torsions:
REMARK  status: ('A' for Active; 'I' for Inactive)
REMARK    1  A    between atoms: C_1  and  C_2
REMARK    2  A    between atoms: C_2  and  C_3
REMARK    3  A    between atoms: C_3  and  C_4
REMARK    4  A    between atoms: C_4  and  N_5
REMARK    5  A    between atoms: C_6  and  C_8
REMARK    6  A    between atoms: C_21  and  C_24
REMARK    7  A    between atoms: C_28  and  N_30
REMARK                            x       y       z     vdW  Elec       q    Type
REMARK                         _______ _______ _______ _____ _____    ______ ____
ROOT
ATOM      1  C   UNL     1       0.501  -0.821   0.205  0.00  0.00    +0.037 A 
ATOM      2  C   UNL     1       1.789  -0.283   0.124  0.00  0.00    +0.015 A 
ATOM      3  C   UNL     1       1.963   1.079   0.068  0.00  0.00    +0.024 A 
ATOM      4  C   UNL     1       0.864   1.935   0.092  0.00  0.00    +0.031 A 
ATOM      5  C   UNL     1      -0.429   1.394   0.159  0.00  0.00    -0.019 A 
ATOM      6  C   UNL     1      -0.605   0.033   0.222  0.00  0.00    +0.019 A 
ATOM      7  C   UNL     1      -1.566   2.340   0.136  0.00  0.00    +0.049 C 
ATOM      8  C   UNL     1      -2.883   2.002   0.734  0.00  0.00    -0.023 C 
ATOM      9  C   UNL     1      -3.445   3.119   1.179  0.00  0.00    -0.030 C 
ATOM     10  C   UNL     1      -2.511   4.307   0.936  0.00  0.00    +0.033 C 
ATOM     11  C   UNL     1      -1.139   3.620   0.913  0.00  0.00    +0.029 C 
ATOM     12  C   UNL     1      -0.056   4.265   0.067  0.00  0.00    +0.105 C 
ATOM     13  N   UNL     1       1.075   3.313   0.071  0.00  0.00    -0.336 N 
ATOM     14  H   UNL     1       1.984   3.654   0.058  0.00  0.00    +0.147 HD
ENDROOT
BRANCH  12  15
ATOM     15  C   UNL     1      -0.552   4.478  -1.340  0.00  0.00    -0.025 A 
ATOM     16  C   UNL     1      -1.186   5.659  -1.678  0.00  0.00    +0.005 A 
ATOM     17  C   UNL     1      -1.641   5.854  -2.968  0.00  0.00    +0.003 A 
ATOM     18  C   UNL     1      -1.462   4.869  -3.921  0.00  0.00    +0.033 A 
ATOM     19  C   UNL     1      -0.828   3.688  -3.583  0.00  0.00    +0.127 A 
ATOM     20  C   UNL     1      -0.369   3.494  -2.293  0.00  0.00    +0.038 A 
BRANCH  19  21
ATOM     21  N   UNL     1      -0.636   2.632  -4.603  0.00  0.00    +0.056 N 
ATOM     22  O   UNL     1      -1.037   2.805  -5.740  0.00  0.00    -0.126 OA
ATOM     23  O   UNL     1      -0.078   1.592  -4.305  0.00  0.00    -0.126 OA
ENDBRANCH  19  21
ENDBRANCH  12  15
BRANCH   1  25
ATOM     24  N   UNL     1       1.379  -3.102   0.257  0.00  0.00    -0.311 N 
ATOM     25  C   UNL     1       0.310  -2.282   0.273  0.00  0.00    +0.244 C 
ATOM     26  O   UNL     1      -0.812  -2.746   0.344  0.00  0.00    -0.270 OA
ATOM     27  H   UNL     1       2.274  -2.732   0.200  0.00  0.00    +0.149 HD
BRANCH  24  28
ATOM     28  C   UNL     1       1.190  -4.554   0.324  0.00  0.00    +0.104 C 
BRANCH  28  29
ATOM     29  C   UNL     1       2.553  -5.248   0.289  0.00  0.00    +0.018 C 
BRANCH  29  31
ATOM     30  C   UNL     1       3.718  -7.458   0.324  0.00  0.00    +0.004 C 
ATOM     31  C   UNL     1       2.355  -6.763   0.359  0.00  0.00    -0.002 C 
ENDBRANCH  29  31
ENDBRANCH  28  29
ENDBRANCH  24  28
ENDBRANCH   1  25
TORSDOF 6
