REMARK  Name = ZINC59435023
REMARK  2 active torsions:
REMARK  status: ('A' for Active; 'I' for Inactive)
REMARK    1  A    between atoms: C_4  and  C_7
REMARK    2  A    between atoms: C_10  and  C_18
REMARK                            x       y       z     vdW  Elec       q    Type
REMARK                         _______ _______ _______ _____ _____    ______ ____
ROOT
ATOM      1  C   UNL     1       3.711  -0.707  -0.038  0.00  0.00    +0.104 C 
ATOM      2  C   UNL     1       4.048  -1.191   1.377  0.00  0.00    +0.062 C 
ATOM      3  C   UNL     1       5.417  -1.883   1.381  0.00  0.00    +0.178 C 
ATOM      4  N   UNL     1       5.452  -2.865   0.298  0.00  0.00    -0.221 N 
ATOM      5  C   UNL     1       4.600  -2.853  -0.771  0.00  0.00    +0.138 A 
ATOM      6  C   UNL     1       4.929  -3.901  -1.549  0.00  0.00    +0.179 A 
ATOM      7  N   UNL     1       5.956  -4.546  -0.984  0.00  0.00    -0.136 NA
ATOM      8  N   UNL     1       6.296  -3.959   0.116  0.00  0.00    -0.063 NA
ATOM      9  N   UNL     1       3.612  -1.879  -0.930  0.00  0.00    -0.321 N 
ATOM     10  H   UNL     1       2.901  -1.968  -1.585  0.00  0.00    +0.148 HD
ENDROOT
BRANCH   1  14
ATOM     11  C   UNL     1      -0.017   1.378   0.010  0.00  0.00    +0.000 A 
ATOM     12  C   UNL     1       1.171   2.086   0.002  0.00  0.00    +0.000 A 
ATOM     13  C   UNL     1       2.377   1.411  -0.013  0.00  0.00    +0.005 A 
ATOM     14  C   UNL     1       2.396   0.029  -0.020  0.00  0.00    -0.027 A 
ATOM     15  C   UNL     1       1.208  -0.679  -0.012  0.00  0.00    +0.005 A 
ATOM     16  C   UNL     1       0.002  -0.004   0.002  0.00  0.00    +0.000 A 
ENDBRANCH   1  14
BRANCH   3  17
ATOM     17  C   UNL     1       6.502  -0.858   1.172  0.00  0.00    +0.129 A 
ATOM     18  C   UNL     1       7.509  -0.594   2.024  0.00  0.00    +0.047 A 
ATOM     19  C   UNL     1       8.286   0.429   1.435  0.00  0.00    +0.041 A 
ATOM     20  C   UNL     1       7.707   0.730   0.259  0.00  0.00    +0.195 A 
ATOM     21  O   UNL     1       6.630  -0.057   0.102  0.00  0.00    -0.466 OA
ENDBRANCH   3  17
TORSDOF 2
