REMARK  Name = ZINC00850862
REMARK  5 active torsions:
REMARK  status: ('A' for Active; 'I' for Inactive)
REMARK    1  A    between atoms: C_1  and  O_2
REMARK    2  A    between atoms: O_2  and  C_3
REMARK    3  A    between atoms: C_6  and  N_9
REMARK    4  A    between atoms: N_9  and  S_10
REMARK    5  A    between atoms: S_10  and  C_13
REMARK                            x       y       z     vdW  Elec       q    Type
REMARK                         _______ _______ _______ _____ _____    ______ ____
ROOT
ATOM      1  C   UNL     1      -0.233   4.603   0.391  0.00  0.00    +0.116 A 
ATOM      2  C   UNL     1      -0.692   5.829  -0.008  0.00  0.00    +0.031 A 
ATOM      3  C   UNL     1       0.139   6.832  -0.505  0.00  0.00    +0.026 A 
ATOM      4  C   UNL     1       1.498   6.607  -0.625  0.00  0.00    +0.042 A 
ATOM      5  C   UNL     1       1.949   5.354  -0.222  0.00  0.00    +0.017 A 
ATOM      6  C   UNL     1       1.142   4.334   0.284  0.00  0.00    +0.011 A 
ATOM      7  C   UNL     1       1.774   3.131   0.640  0.00  0.00    +0.010 A 
ATOM      8  C   UNL     1       3.130   3.021   0.476  0.00  0.00    +0.001 A 
ATOM      9  C   UNL     1       3.922   4.051  -0.030  0.00  0.00    +0.014 A 
ATOM     10  C   UNL     1       3.338   5.251  -0.392  0.00  0.00    +0.047 A 
ATOM     11  C   UNL     1       3.731   6.555  -0.941  0.00  0.00    +0.249 C 
ATOM     12  O   UNL     1       4.862   6.894  -1.237  0.00  0.00    -0.270 OA
ATOM     13  N   UNL     1       2.611   7.316  -1.058  0.00  0.00    -0.281 N 
ATOM     14  H   UNL     1       2.592   8.225  -1.396  0.00  0.00    +0.155 HD
ENDROOT
BRANCH   1  15
ATOM     15  S   UNL     1      -1.342   3.385   1.017  0.00  0.00    +0.073 S 
ATOM     16  O   UNL     1      -2.645   3.948   0.947  0.00  0.00    -0.150 OA
ATOM     17  O   UNL     1      -0.781   2.913   2.234  0.00  0.00    -0.150 OA
BRANCH  15  18
ATOM     18  N   UNL     1      -1.319   2.111  -0.041  0.00  0.00    -0.216 N 
ATOM     19  H   UNL     1      -1.027   1.236   0.260  0.00  0.00    +0.174 HD
BRANCH  18  23
ATOM     20  C   UNL     1      -2.520   2.654  -3.995  0.00  0.00    +0.120 A 
ATOM     21  C   UNL     1      -1.352   1.962  -3.714  0.00  0.00    +0.047 A 
ATOM     22  C   UNL     1      -0.952   1.783  -2.405  0.00  0.00    +0.028 A 
ATOM     23  C   UNL     1      -1.720   2.297  -1.368  0.00  0.00    +0.048 A 
ATOM     24  C   UNL     1      -2.890   2.990  -1.650  0.00  0.00    +0.028 A 
ATOM     25  C   UNL     1      -3.288   3.168  -2.961  0.00  0.00    +0.047 A 
BRANCH  20  27
ATOM     26  C   UNL     1      -4.127   3.552  -5.501  0.00  0.00    +0.277 C 
ATOM     27  O   UNL     1      -2.913   2.829  -5.285  0.00  0.00    -0.495 OA
ENDBRANCH  20  27
ENDBRANCH  18  23
ENDBRANCH  15  18
ENDBRANCH   1  15
TORSDOF 4
