REMARK  Name = ZINC13033849
REMARK  8 active torsions:
REMARK  status: ('A' for Active; 'I' for Inactive)
REMARK    1  A    between atoms: C_1  and  C_2
REMARK    2  A    between atoms: C_5  and  C_8
REMARK    3  A    between atoms: C_8  and  N_66
REMARK    4  A    between atoms: C_9  and  C_10
REMARK    5  A    between atoms: C_9  and  N_66
REMARK    6  A    between atoms: C_26  and  C_27
REMARK    7  A    between atoms: C_26  and  N_66
REMARK    8  A    between atoms: N_31  and  C_32
REMARK                            x       y       z     vdW  Elec       q    Type
REMARK                         _______ _______ _______ _____ _____    ______ ____
ROOT
ATOM      1  N   UNL     1       2.504  -1.268  -1.733  0.00  0.00    +0.390 N 
ATOM      2  H   UNL     1       3.292  -1.025  -2.344  0.00  0.00    -0.080 HD
ENDROOT
BRANCH   1   3
ATOM      3  C   UNL     1       2.582  -2.706  -1.399  0.00  0.00    -0.042 C 
BRANCH   3   8
ATOM      4  C   UNL     1       8.139  -4.151  -0.743  0.00  0.00    +0.044 C 
ATOM      5  C   UNL     1       6.690  -3.774  -0.914  0.00  0.00    -0.050 A 
ATOM      6  C   UNL     1       5.842  -3.773   0.178  0.00  0.00    +0.003 A 
ATOM      7  C   UNL     1       4.513  -3.428   0.021  0.00  0.00    +0.002 A 
ATOM      8  C   UNL     1       4.031  -3.083  -1.228  0.00  0.00    -0.064 A 
ATOM      9  C   UNL     1       4.878  -3.088  -2.321  0.00  0.00    +0.002 A 
ATOM     10  C   UNL     1       6.208  -3.429  -2.163  0.00  0.00    +0.003 A 
ENDBRANCH   3   8
ENDBRANCH   1   3
BRANCH   1  11
ATOM     11  C   UNL     1       1.240  -0.982  -2.443  0.00  0.00    -0.036 C 
BRANCH  11  12
ATOM     12  C   UNL     1       1.384   0.325  -3.179  0.00  0.00    +0.001 A 
ATOM     13  C   UNL     1       1.791   0.330  -4.474  0.00  0.00    +0.017 A 
ATOM     14  C   UNL     1       1.916   1.615  -5.162  0.00  0.00    +0.002 A 
ATOM     15  C   UNL     1       2.327   1.681  -6.499  0.00  0.00    +0.059 A 
ATOM     16  C   UNL     1       2.441   2.907  -7.120  0.00  0.00    +0.163 A 
ATOM     17  C   UNL     1       2.147   4.081  -6.420  0.00  0.00    +0.164 A 
ATOM     18  C   UNL     1       1.741   4.024  -5.098  0.00  0.00    +0.075 A 
ATOM     19  C   UNL     1       1.622   2.798  -4.457  0.00  0.00    +0.053 A 
ATOM     20  N   UNL     1       1.219   2.724  -3.139  0.00  0.00    -0.322 N 
ATOM     21  H   UNL     1       1.017   3.539  -2.655  0.00  0.00    +0.169 HD
ATOM     22  C   UNL     1       1.102   1.538  -2.518  0.00  0.00    +0.251 A 
ATOM     23  O   UNL     1       0.744   1.510  -1.353  0.00  0.00    -0.268 OA
ATOM     24  O   UNL     1       2.253   5.294  -7.027  0.00  0.00    -0.485 OA
ATOM     25  C   UNL     1       3.020   5.345  -8.235  0.00  0.00    +0.270 C 
ATOM     26  C   UNL     1       2.591   4.173  -9.128  0.00  0.00    +0.270 C 
ATOM     27  O   UNL     1       2.844   2.955  -8.420  0.00  0.00    -0.485 OA
ENDBRANCH  11  12
ENDBRANCH   1  11
BRANCH   1  28
ATOM     28  C   UNL     1       2.585  -0.458  -0.499  0.00  0.00    +0.001 C 
BRANCH  28  29
ATOM     29  C   UNL     1       4.026  -0.390  -0.061  0.00  0.00    +0.135 A 
ATOM     30  N   UNL     1       4.591  -1.101   0.883  0.00  0.00    -0.115 NA
ATOM     31  N   UNL     1       5.828  -0.749   0.961  0.00  0.00    -0.023 NA
ATOM     32  N   UNL     1       6.067   0.165   0.086  0.00  0.00    -0.044 NA
ATOM     33  N   UNL     1       4.982   0.412  -0.566  0.00  0.00    -0.228 N 
BRANCH  33  34
ATOM     34  C   UNL     1       4.819   1.386  -1.648  0.00  0.00    +0.111 C 
ATOM     35  C   UNL     1       5.090   2.811  -1.122  0.00  0.00    +0.027 C 
ATOM     36  C   UNL     1       6.575   3.071  -1.479  0.00  0.00    +0.002 C 
ATOM     37  C   UNL     1       6.718   2.394  -2.865  0.00  0.00    +0.002 C 
ATOM     38  C   UNL     1       5.854   1.121  -2.755  0.00  0.00    +0.027 C 
ENDBRANCH  33  34
ENDBRANCH  28  29
ENDBRANCH   1  28
TORSDOF 7
