REMARK  Name = ZINC24757522
REMARK  3 active torsions:
REMARK  status: ('A' for Active; 'I' for Inactive)
REMARK    1  A    between atoms: C_1  and  C_2
REMARK    2  A    between atoms: C_4  and  O_14
REMARK    3  A    between atoms: O_14  and  C_15
REMARK                            x       y       z     vdW  Elec       q    Type
REMARK                         _______ _______ _______ _____ _____    ______ ____
ROOT
ATOM      1  C   UNL     1      -0.376   7.784  -0.150  0.00  0.00    +0.088 C 
ATOM      2  C   UNL     1       0.990   7.147  -0.175  0.00  0.00    +0.131 A 
ATOM      3  N   UNL     1       1.091   5.833  -0.082  0.00  0.00    -0.197 NA
ATOM      4  C   UNL     1       2.260   5.215  -0.096  0.00  0.00    +0.232 A 
ATOM      5  C   UNL     1       3.446   5.986  -0.209  0.00  0.00    +0.073 A 
ATOM      6  C   UNL     1       4.841   5.519  -0.250  0.00  0.00    -0.023 A 
ATOM      7  C   UNL     1       5.793   6.458  -0.372  0.00  0.00    -0.004 A 
ATOM      8  S   UNL     1       4.913   8.002  -0.445  0.00  0.00    -0.073 S 
ATOM      9  C   UNL     1       3.260   7.378  -0.310  0.00  0.00    +0.116 A 
ATOM     10  N   UNL     1       2.056   7.915  -0.287  0.00  0.00    -0.225 NA
ATOM     11  C   UNL     1       7.176   5.865  -0.402  0.00  0.00    +0.043 C 
ATOM     12  C   UNL     1       6.950   4.370  -0.716  0.00  0.00    +0.010 C 
ATOM     13  C   UNL     1       5.523   4.149  -0.177  0.00  0.00    +0.037 C 
ENDROOT
BRANCH   4  14
ATOM     14  O   UNL     1       2.324   3.865   0.001  0.00  0.00    -0.437 OA
BRANCH  14  15
ATOM     15  C   UNL     1       1.158   3.168  -0.015  0.00  0.00    +0.133 A 
ATOM     16  C   UNL     1       0.435   3.050  -1.194  0.00  0.00    +0.046 A 
ATOM     17  C   UNL     1      -0.750   2.340  -1.210  0.00  0.00    +0.006 A 
ATOM     18  C   UNL     1      -1.221   1.752  -0.050  0.00  0.00    +0.038 A 
ATOM     19  C   UNL     1      -0.500   1.863   1.127  0.00  0.00    +0.127 A 
ATOM     20  C   UNL     1       0.688   2.573   1.146  0.00  0.00    +0.084 A 
ATOM     21  F   UNL     1      -0.959   1.284   2.257  0.00  0.00    -0.205 F 
ENDBRANCH  14  15
ENDBRANCH   4  14
TORSDOF 2
