REMARK  Name = ZINC20082537
REMARK  8 active torsions:
REMARK  status: ('A' for Active; 'I' for Inactive)
REMARK    1  A    between atoms: C_1  and  C_2
REMARK    2  A    between atoms: C_7  and  C_14
REMARK    3  A    between atoms: C_14  and  C_16
REMARK    4  A    between atoms: C_14  and  N_25
REMARK    5  A    between atoms: N_20  and  C_21
REMARK    6  A    between atoms: C_21  and  C_22
REMARK    7  A    between atoms: C_21  and  C_23
REMARK    8  A    between atoms: C_21  and  C_24
REMARK                            x       y       z     vdW  Elec       q    Type
REMARK                         _______ _______ _______ _____ _____    ______ ____
ROOT
ATOM      1  C   UNL     1      -0.143   1.109   0.032  0.00  0.00    +0.162 C 
ENDROOT
BRANCH   1   2
ATOM      2  N   UNL     1      -1.039   1.490  -1.069  0.00  0.00    -0.286 NA
ATOM      3  C   UNL     1      -1.185   2.950  -1.149  0.00  0.00    +0.104 C 
ATOM      4  C   UNL     1      -2.059   3.307  -2.353  0.00  0.00    +0.122 C 
ATOM      5  N   UNL     1      -3.369   2.657  -2.214  0.00  0.00    -0.307 N 
ATOM      6  C   UNL     1      -3.224   1.196  -2.134  0.00  0.00    +0.122 C 
ATOM      7  C   UNL     1      -2.349   0.839  -0.930  0.00  0.00    +0.104 C 
ATOM      8  C   UNL     1      -4.211   3.014  -3.248  0.00  0.00    +0.162 A 
ATOM      9  N   UNL     1      -4.583   4.214  -3.630  0.00  0.00    -0.225 NA
ATOM     10  C   UNL     1      -5.420   4.417  -4.671  0.00  0.00    +0.080 A 
ATOM     11  C   UNL     1      -5.895   5.647  -5.182  0.00  0.00    +0.029 A 
ATOM     12  C   UNL     1      -6.747   5.677  -6.255  0.00  0.00    +0.002 A 
ATOM     13  C   UNL     1      -7.173   4.511  -6.876  0.00  0.00    +0.001 A 
ATOM     14  C   UNL     1      -6.728   3.291  -6.401  0.00  0.00    +0.017 A 
ATOM     15  C   UNL     1      -5.875   3.251  -5.328  0.00  0.00    +0.041 A 
ATOM     16  S   UNL     1      -5.066   1.961  -4.412  0.00  0.00    -0.052 S 
ENDBRANCH   1   2
BRANCH   1  23
ATOM     17  C   UNL     1       6.665   5.264   0.063  0.00  0.00    +0.044 C 
ATOM     18  C   UNL     1       5.339   4.578   0.265  0.00  0.00    -0.048 A 
ATOM     19  C   UNL     1       4.611   4.817   1.423  0.00  0.00    +0.004 A 
ATOM     20  C   UNL     1       3.407   4.205   1.626  0.00  0.00    +0.010 A 
ATOM     21  C   UNL     1       2.902   3.329   0.658  0.00  0.00    -0.001 A 
ATOM     22  C   UNL     1       1.615   2.656   0.844  0.00  0.00    +0.021 A 
ATOM     23  C   UNL     1       1.177   1.818  -0.128  0.00  0.00    +0.042 A 
ATOM     24  C   UNL     1       1.956   1.602  -1.285  0.00  0.00    +0.254 A 
ATOM     25  O   UNL     1       1.546   0.841  -2.144  0.00  0.00    -0.268 OA
ATOM     26  N   UNL     1       3.136   2.220  -1.466  0.00  0.00    -0.322 N 
ATOM     27  H   UNL     1       3.717   2.039  -2.383  0.00  0.00    +0.169 HD
ATOM     28  C   UNL     1       3.638   3.084  -0.517  0.00  0.00    +0.049 A 
ATOM     29  C   UNL     1       4.862   3.719  -0.701  0.00  0.00    +0.029 A 
ENDBRANCH   1  23
BRANCH   1  30
ATOM     30  C   UNL     1      -0.768   1.501   1.346  0.00  0.00    +0.174 A 
ATOM     31  N   UNL     1      -1.295   2.663   1.647  0.00  0.00    -0.111 NA
ATOM     32  N   UNL     1      -1.723   2.603   2.860  0.00  0.00    -0.023 NA
ATOM     33  N   UNL     1      -1.477   1.435   3.344  0.00  0.00    -0.043 NA
ATOM     34  N   UNL     1      -0.888   0.727   2.441  0.00  0.00    -0.222 N 
BRANCH  34  35
ATOM     35  C   UNL     1      -0.436  -0.660   2.580  0.00  0.00    +0.059 C 
ATOM     36  C   UNL     1       1.060  -0.742   2.272  0.00  0.00    +0.036 C 
ATOM     37  C   UNL     1      -0.689  -1.137   4.011  0.00  0.00    +0.036 C 
ATOM     38  C   UNL     1      -1.208  -1.548   1.602  0.00  0.00    +0.036 C 
ENDBRANCH  34  35
ENDBRANCH   1  30
TORSDOF 4
