REMARK  Name = ZINC08307980
REMARK  7 active torsions:
REMARK  status: ('A' for Active; 'I' for Inactive)
REMARK    1  A    between atoms: C_1  and  C_2
REMARK    2  A    between atoms: C_2  and  C_4
REMARK    3  A    between atoms: C_2  and  N_12
REMARK    4  A    between atoms: C_13  and  C_15
REMARK    5  A    between atoms: C_18  and  N_24
REMARK    6  A    between atoms: C_19  and  N_21
REMARK    7  A    between atoms: N_24  and  C_25
REMARK                            x       y       z     vdW  Elec       q    Type
REMARK                         _______ _______ _______ _____ _____    ______ ____
ROOT
ATOM      1  N   UNL     1       0.040   1.422   2.504  0.00  0.00    -0.305 N 
ATOM      2  C   UNL     1       1.106   2.136   2.917  0.00  0.00    +0.245 C 
ATOM      3  O   UNL     1       1.583   2.989   2.194  0.00  0.00    -0.270 OA
ATOM      4  H   UNL     1      -0.341   0.741   3.081  0.00  0.00    +0.150 HD
ENDROOT
BRANCH   2   5
ATOM      5  C   UNL     1       1.694   1.881   4.246  0.00  0.00    +0.039 A 
ATOM      6  C   UNL     1       1.143   0.904   5.080  0.00  0.00    +0.015 A 
ATOM      7  C   UNL     1       1.698   0.665   6.317  0.00  0.00    +0.026 A 
ATOM      8  C   UNL     1       2.799   1.404   6.742  0.00  0.00    +0.058 A 
ATOM      9  C   UNL     1       3.346   2.381   5.915  0.00  0.00    +0.148 A 
ATOM     10  C   UNL     1       2.800   2.621   4.675  0.00  0.00    +0.047 A 
BRANCH   9  11
ATOM     11  N   UNL     1       4.517   3.164   6.371  0.00  0.00    +0.058 N 
ATOM     12  O   UNL     1       4.932   4.088   5.695  0.00  0.00    -0.126 OA
ATOM     13  O   UNL     1       5.065   2.884   7.422  0.00  0.00    -0.126 OA
ENDBRANCH   9  11
BRANCH   8  14
ATOM     14  N   UNL     1       3.354   1.164   7.994  0.00  0.00    -0.345 N 
ATOM     15  C   UNL     1       2.701   0.233   8.918  0.00  0.00    +0.125 C 
ATOM     16  H   UNL     1       4.173   1.613   8.256  0.00  0.00    +0.146 HD
ENDBRANCH   8  14
ENDBRANCH   2   5
BRANCH   1  18
ATOM     17  C   UNL     1       0.261   0.928   0.119  0.00  0.00    +0.033 C 
ATOM     18  C   UNL     1      -0.545   1.675   1.185  0.00  0.00    +0.102 C 
BRANCH  18  19
ATOM     19  C   UNL     1      -1.972   1.191   1.166  0.00  0.00    -0.009 A 
ATOM     20  C   UNL     1      -2.362   0.159   2.000  0.00  0.00    +0.008 A 
ATOM     21  C   UNL     1      -3.671  -0.285   1.983  0.00  0.00    +0.020 A 
ATOM     22  C   UNL     1      -4.591   0.302   1.132  0.00  0.00    +0.042 A 
ATOM     23  C   UNL     1      -4.200   1.334   0.298  0.00  0.00    +0.040 A 
ATOM     24  C   UNL     1      -2.892   1.782   0.319  0.00  0.00    +0.047 A 
ATOM     25 CL   UNL     1      -2.402   3.083  -0.722  0.00  0.00    -0.083 Cl
ATOM     26 CL   UNL     1      -6.234  -0.256   1.112  0.00  0.00    -0.083 Cl
ENDBRANCH  18  19
ENDBRANCH   1  18
TORSDOF 5
