REMARK  Name = ZINC66701385
REMARK  9 active torsions:
REMARK  status: ('A' for Active; 'I' for Inactive)
REMARK    1  A    between atoms: C_1  and  C_2
REMARK    2  A    between atoms: C_5  and  C_30
REMARK    3  A    between atoms: N_8  and  C_10
REMARK    4  A    between atoms: C_10  and  C_11
REMARK    5  A    between atoms: C_11  and  C_13
REMARK    6  A    between atoms: C_11  and  N_14
REMARK    7  A    between atoms: N_17  and  C_18
REMARK    8  A    between atoms: C_18  and  C_19
REMARK    9  A    between atoms: C_23  and  C_25
REMARK                            x       y       z     vdW  Elec       q    Type
REMARK                         _______ _______ _______ _____ _____    ______ ____
ROOT
ATOM      1  N   UNL     1       2.811  -0.157   2.272  0.00  0.00    -0.299 N 
ATOM      2  C   UNL     1       3.852   0.578   1.833  0.00  0.00    +0.300 C 
ATOM      3  O   UNL     1       4.300   1.473   2.525  0.00  0.00    -0.253 OA
ATOM      4  N   UNL     1       4.398   0.322   0.627  0.00  0.00    -0.292 N 
ATOM      5  H   UNL     1       2.454  -0.870   1.720  0.00  0.00    +0.150 HD
ATOM      6  H   UNL     1       4.041  -0.391   0.075  0.00  0.00    +0.151 HD
ENDROOT
BRANCH   1   7
ATOM      7  C   UNL     1       2.219   0.122   3.582  0.00  0.00    +0.055 C 
ATOM      8  C   UNL     1       2.982  -0.649   4.661  0.00  0.00    +0.026 C 
BRANCH   7   9
ATOM      9  C   UNL     1       0.753  -0.316   3.583  0.00  0.00    -0.057 C 
BRANCH   9  15
ATOM     10  C   UNL     1      -1.275   0.115  -0.093  0.00  0.00    +0.005 C 
ATOM     11  C   UNL     1      -2.038   0.444   1.192  0.00  0.00    -0.031 C 
ATOM     12  C   UNL     1      -2.095   1.963   1.379  0.00  0.00    +0.003 C 
ATOM     13  C   UNL     1      -0.670   2.499   1.549  0.00  0.00    -0.031 C 
ATOM     14  C   UNL     1      -0.004   1.794   2.732  0.00  0.00    -0.076 C 
ATOM     15  N   UNL     1       0.043   0.348   2.481  0.00  0.00    +0.381 N 
ATOM     16  C   UNL     1      -1.322  -0.186   2.388  0.00  0.00    -0.076 C 
ATOM     17  C   UNL     1      -0.720   4.005   1.814  0.00  0.00    +0.005 C 
ATOM     18  H   UNL     1       0.531   0.174   1.616  0.00  0.00    -0.082 HD
ENDBRANCH   9  15
ENDBRANCH   7   9
ENDBRANCH   1   7
BRANCH   4  19
ATOM     19  C   UNL     1       5.529   1.121   0.150  0.00  0.00    +0.184 C 
BRANCH  19  20
ATOM     20  C   UNL     1       5.947   0.635  -1.214  0.00  0.00    +0.168 A 
ATOM     21  N   UNL     1       6.830  -0.301  -1.445  0.00  0.00    -0.156 NA
ATOM     22  H   UNL     1       7.493  -1.063  -3.324  0.00  0.00    +0.191 HD
ATOM     23  N   UNL     1       6.923  -0.446  -2.838  0.00  0.00    -0.258 N 
ATOM     24  C   UNL     1       6.051   0.453  -3.371  0.00  0.00    +0.163 A 
ATOM     25  N   UNL     1       5.471   1.089  -2.370  0.00  0.00    -0.209 NA
BRANCH  24  26
ATOM     26  C   UNL     1       5.796   0.672  -4.804  0.00  0.00    +0.056 A 
ATOM     27  C   UNL     1       4.940   1.560  -5.404  0.00  0.00    +0.019 A 
ATOM     28  C   UNL     1       4.870   1.586  -6.778  0.00  0.00    +0.008 A 
ATOM     29  C   UNL     1       5.647   0.734  -7.497  0.00  0.00    +0.046 A 
ATOM     30  S   UNL     1       6.527  -0.144  -6.215  0.00  0.00    -0.094 S 
ENDBRANCH  24  26
ENDBRANCH  19  20
ENDBRANCH   4  19
TORSDOF 6
