REMARK  Name = ZINC04808649
REMARK  5 active torsions:
REMARK  status: ('A' for Active; 'I' for Inactive)
REMARK    1  A    between atoms: C_1  and  C_2
REMARK    2  A    between atoms: C_9  and  N_27
REMARK    3  A    between atoms: C_10  and  C_25
REMARK    4  A    between atoms: C_11  and  C_13
REMARK    5  A    between atoms: C_16  and  C_18
REMARK                            x       y       z     vdW  Elec       q    Type
REMARK                         _______ _______ _______ _____ _____    ______ ____
ROOT
ATOM      1  C   UNL     1      -0.018   1.503   0.010  0.00  0.00    +0.068 C 
ATOM      2  C   UNL     1       0.002  -0.004   0.002  0.00  0.00    +0.068 A 
ATOM      3  C   UNL     1       0.008  -0.813  -1.126  0.00  0.00    +0.052 A 
ATOM      4  C   UNL     1       0.027  -2.116  -0.713  0.00  0.00    +0.223 A 
ATOM      5  N   UNL     1       0.034  -2.116   0.629  0.00  0.00    -0.246 N 
ATOM      6  H   UNL     1       0.048  -2.900   1.201  0.00  0.00    +0.192 HD
ATOM      7  N   UNL     1       0.023  -0.780   1.060  0.00  0.00    -0.176 NA
ATOM      8  O   UNL     1       0.034  -3.159  -1.580  0.00  0.00    -0.423 OA
ATOM      9  C   UNL     1      -0.255  -2.900  -2.872  0.00  0.00    +0.201 C 
ATOM     10  C   UNL     1      -0.291  -1.656  -3.399  0.00  0.00    +0.101 C 
ATOM     11  C   UNL     1      -0.002  -0.421  -2.581  0.00  0.00    +0.137 C 
ENDROOT
BRANCH  11  12
ATOM     12  C   UNL     1       1.341   0.142  -2.966  0.00  0.00    +0.119 A 
ATOM     13  C   UNL     1       1.567   1.384  -3.437  0.00  0.00    +0.046 A 
ATOM     14  C   UNL     1       2.953   1.493  -3.666  0.00  0.00    +0.050 A 
ATOM     15  C   UNL     1       3.503   0.299  -3.319  0.00  0.00    +0.137 A 
ATOM     16  O   UNL     1       2.514  -0.509  -2.891  0.00  0.00    -0.459 OA
BRANCH  15  17
ATOM     17  C   UNL     1       4.937  -0.050  -3.393  0.00  0.00    +0.036 A 
ATOM     18  C   UNL     1       5.658   0.192  -4.564  0.00  0.00    +0.013 A 
ATOM     19  C   UNL     1       6.996  -0.136  -4.627  0.00  0.00    +0.001 A 
ATOM     20  C   UNL     1       7.625  -0.704  -3.533  0.00  0.00    +0.001 A 
ATOM     21  C   UNL     1       6.918  -0.948  -2.370  0.00  0.00    +0.021 A 
ATOM     22  C   UNL     1       5.579  -0.619  -2.291  0.00  0.00    +0.052 A 
ATOM     23 CL   UNL     1       4.694  -0.917  -0.827  0.00  0.00    -0.083 Cl
ENDBRANCH  15  17
ENDBRANCH  11  12
BRANCH   9  24
ATOM     24  N   UNL     1      -0.527  -3.961  -3.699  0.00  0.00    -0.328 N 
ATOM     25  H   UNL     1      -0.509  -4.865  -3.349  0.00  0.00    +0.145 HD
ATOM     26  H   UNL     1      -0.738  -3.806  -4.633  0.00  0.00    +0.145 HD
ENDBRANCH   9  24
BRANCH  10  27
ATOM     27  C   UNL     1      -0.615  -1.504  -4.786  0.00  0.00    +0.101 C 
ATOM     28  N   UNL     1      -0.872  -1.384  -5.886  0.00  0.00    -0.191 NA
ENDBRANCH  10  27
TORSDOF 4
