REMARK  Name = ZINC53185329
REMARK  4 active torsions:
REMARK  status: ('A' for Active; 'I' for Inactive)
REMARK    1  A    between atoms: C_3  and  N_23
REMARK    2  A    between atoms: C_6  and  N_7
REMARK    3  A    between atoms: C_8  and  C_10
REMARK    4  A    between atoms: N_13  and  C_16
REMARK                            x       y       z     vdW  Elec       q    Type
REMARK                         _______ _______ _______ _____ _____    ______ ____
ROOT
ATOM      1  N   UNL     1      -1.316  -0.541  -0.409  0.00  0.00    -0.285 N 
ATOM      2  C   UNL     1      -1.248  -1.875  -0.227  0.00  0.00    +0.229 C 
ATOM      3  O   UNL     1      -0.168  -2.425  -0.174  0.00  0.00    -0.275 OA
ATOM      4  H   UNL     1      -2.175  -0.092  -0.385  0.00  0.00    +0.155 HD
ENDROOT
BRANCH   1  10
ATOM      5  C   UNL     1      -0.164   1.282  -1.498  0.00  0.00    +0.025 A 
ATOM      6  C   UNL     1       0.989   2.009  -1.718  0.00  0.00    +0.025 A 
ATOM      7  C   UNL     1       2.167   1.654  -1.075  0.00  0.00    +0.038 A 
ATOM      8  C   UNL     1       2.185   0.568  -0.210  0.00  0.00    +0.025 A 
ATOM      9  C   UNL     1       1.032  -0.160   0.010  0.00  0.00    +0.025 A 
ATOM     10  C   UNL     1      -0.146   0.196  -0.633  0.00  0.00    +0.034 A 
BRANCH   7  11
ATOM     11  N   UNL     1       3.337   2.391  -1.299  0.00  0.00    -0.254 N 
ATOM     12  C   UNL     1       4.616   2.193  -0.600  0.00  0.00    +0.134 C 
ATOM     13  C   UNL     1       5.545   3.252  -1.223  0.00  0.00    +0.125 C 
ATOM     14  N   UNL     1       4.691   3.935  -2.207  0.00  0.00    -0.297 N 
ATOM     15  C   UNL     1       3.470   3.384  -2.188  0.00  0.00    +0.307 C 
ATOM     16  O   UNL     1       2.564   3.755  -2.909  0.00  0.00    -0.252 OA
ATOM     17  H   UNL     1       4.970   4.665  -2.782  0.00  0.00    +0.150 HD
ENDBRANCH   7  11
ENDBRANCH   1  10
BRANCH   2  18
ATOM     18  C   UNL     1      -2.513  -2.682  -0.089  0.00  0.00    +0.163 C 
ATOM     19  C   UNL     1      -2.184  -4.190   0.015  0.00  0.00    +0.041 C 
ATOM     20  C   UNL     1      -3.354  -4.822  -0.771  0.00  0.00    +0.115 C 
ATOM     21  N   UNL     1      -3.804  -3.784  -1.705  0.00  0.00    -0.271 N 
ATOM     22  C   UNL     1      -3.351  -2.571  -1.343  0.00  0.00    +0.232 C 
ATOM     23  O   UNL     1      -3.581  -1.538  -1.936  0.00  0.00    -0.274 OA
BRANCH  21  24
ATOM     24  C   UNL     1      -4.603  -4.026  -2.829  0.00  0.00    +0.036 A 
ATOM     25  C   UNL     1      -5.072  -2.963  -3.590  0.00  0.00    +0.025 A 
ATOM     26  C   UNL     1      -5.859  -3.204  -4.699  0.00  0.00    +0.022 A 
ATOM     27  C   UNL     1      -6.182  -4.503  -5.051  0.00  0.00    +0.041 A 
ATOM     28  C   UNL     1      -5.717  -5.564  -4.293  0.00  0.00    +0.022 A 
ATOM     29  C   UNL     1      -4.924  -5.328  -3.187  0.00  0.00    +0.025 A 
ATOM     30 CL   UNL     1      -7.173  -4.803  -6.444  0.00  0.00    -0.084 Cl
ENDBRANCH  21  24
ENDBRANCH   2  18
TORSDOF 4
