REMARK  Name = ZINC35375471
REMARK  7 active torsions:
REMARK  status: ('A' for Active; 'I' for Inactive)
REMARK    1  A    between atoms: C_1  and  C_2
REMARK    2  A    between atoms: C_2  and  C_3
REMARK    3  A    between atoms: C_3  and  C_4
REMARK    4  A    between atoms: C_4  and  N_5
REMARK    5  A    between atoms: C_26  and  C_28
REMARK    6  A    between atoms: C_28  and  C_30
REMARK    7  A    between atoms: C_28  and  O_31
REMARK                            x       y       z     vdW  Elec       q    Type
REMARK                         _______ _______ _______ _____ _____    ______ ____
ROOT
ATOM      1  N   UNL     1      -2.787  -2.571   0.015  0.00  0.00    -0.242 N 
ATOM      2  C   UNL     1      -3.487  -2.833   1.158  0.00  0.00    +0.227 C 
ATOM      3  O   UNL     1      -3.037  -2.942   2.278  0.00  0.00    -0.275 OA
ATOM      4  C   UNL     1      -4.921  -2.959   0.751  0.00  0.00    +0.109 C 
ATOM      5  C   UNL     1      -4.660  -3.576  -0.674  0.00  0.00    +0.122 C 
ATOM      6  C   UNL     1      -3.510  -2.827  -1.123  0.00  0.00    +0.228 C 
ATOM      7  O   UNL     1      -3.241  -2.499  -2.258  0.00  0.00    -0.275 OA
ATOM      8  C   UNL     1      -5.984  -4.010  -1.115  0.00  0.00    +0.136 C 
ATOM      9  C   UNL     1      -5.975  -5.185  -2.061  0.00  0.00    +0.005 A 
ATOM     10  C   UNL     1      -5.424  -6.445  -1.991  0.00  0.00    +0.008 A 
ATOM     11  C   UNL     1      -5.586  -7.330  -3.041  0.00  0.00    +0.002 A 
ATOM     12  C   UNL     1      -6.303  -6.947  -4.160  0.00  0.00    +0.022 A 
ATOM     13  C   UNL     1      -6.857  -5.684  -4.234  0.00  0.00    +0.062 A 
ATOM     14  C   UNL     1      -6.698  -4.787  -3.179  0.00  0.00    +0.057 A 
ATOM     15  N   UNL     1      -7.155  -3.477  -3.018  0.00  0.00    -0.282 N 
ATOM     16  C   UNL     1      -6.781  -2.951  -1.838  0.00  0.00    +0.243 C 
ATOM     17  O   UNL     1      -7.037  -1.837  -1.431  0.00  0.00    -0.273 OA
ATOM     18 CL   UNL     1      -7.754  -5.214  -5.644  0.00  0.00    -0.082 Cl
ATOM     19  N   UNL     1      -6.706  -4.396   0.137  0.00  0.00    -0.293 NA
ATOM     20  C   UNL     1      -5.799  -4.075   1.310  0.00  0.00    +0.096 C 
ATOM     21  H   UNL     1      -7.680  -3.002  -3.680  0.00  0.00    +0.155 HD
ATOM     22  H   UNL     1      -7.581  -3.900   0.218  0.00  0.00    +0.124 HD
ENDROOT
BRANCH  20  23
ATOM     23  C   UNL     1      -6.608  -3.577   2.509  0.00  0.00    +0.129 C 
ATOM     24  C   UNL     1      -7.476  -4.715   3.048  0.00  0.00    +0.039 C 
BRANCH  23  25
ATOM     25  O   UNL     1      -5.716  -3.132   3.534  0.00  0.00    -0.390 OA
ATOM     26  H   UNL     1      -6.161  -2.801   4.326  0.00  0.00    +0.210 HD
ENDBRANCH  23  25
ENDBRANCH  20  23
BRANCH   1  27
ATOM     27  C   UNL     1      -1.413  -2.063   0.004  0.00  0.00    +0.116 C 
BRANCH  27  28
ATOM     28  C   UNL     1      -1.433  -0.534   0.013  0.00  0.00    +0.019 C 
BRANCH  28  30
ATOM     29  C   UNL     1      -0.019   1.526   0.010  0.00  0.00    +0.004 C 
ATOM     30  C   UNL     1       0.002  -0.004   0.002  0.00  0.00    -0.002 C 
ENDBRANCH  28  30
ENDBRANCH  27  28
ENDBRANCH   1  27
TORSDOF 5
