REMARK  Name = ZINC63165352
REMARK  10 active torsions:
REMARK  status: ('A' for Active; 'I' for Inactive)
REMARK    1  A    between atoms: C_1  and  C_2
REMARK    2  A    between atoms: C_5  and  O_8
REMARK    3  A    between atoms: O_8  and  C_9
REMARK    4  A    between atoms: C_9  and  C_10
REMARK    5  A    between atoms: C_14  and  S_25
REMARK    6  A    between atoms: N_16  and  C_17
REMARK    7  A    between atoms: C_20  and  O_23
REMARK    8  A    between atoms: O_23  and  C_24
REMARK    9  A    between atoms: S_25  and  C_26
REMARK   10  A    between atoms: C_26  and  C_27
REMARK                            x       y       z     vdW  Elec       q    Type
REMARK                         _______ _______ _______ _____ _____    ______ ____
ROOT
ATOM      1  C   UNL     1       0.089  -6.297   1.037  0.00  0.00    +0.195 C 
ATOM      2  N   UNL     1      -1.135  -6.741   0.320  0.00  0.00    -0.231 NA
ATOM      3  N   UNL     1      -0.717  -8.011  -0.293  0.00  0.00    -0.226 NA
ATOM      4  C   UNL     1       0.685  -7.776  -0.708  0.00  0.00    +0.217 C 
ATOM      5  N   UNL     1       1.198  -6.685   0.143  0.00  0.00    -0.285 N 
ATOM      6  H   UNL     1      -1.405  -6.071  -0.385  0.00  0.00    +0.143 HD
ATOM      7  H   UNL     1      -1.295  -8.238  -1.088  0.00  0.00    +0.143 HD
ENDROOT
BRANCH   5   8
ATOM      8  C   UNL     1       2.481  -6.126   0.109  0.00  0.00    +0.033 A 
ATOM      9  C   UNL     1       3.330  -6.269   1.198  0.00  0.00    +0.027 A 
ATOM     10  C   UNL     1       4.596  -5.718   1.163  0.00  0.00    +0.047 A 
ATOM     11  C   UNL     1       5.019  -5.021   0.041  0.00  0.00    +0.120 A 
ATOM     12  C   UNL     1       4.171  -4.877  -1.047  0.00  0.00    +0.047 A 
ATOM     13  C   UNL     1       2.907  -5.433  -1.017  0.00  0.00    +0.027 A 
BRANCH  11  14
ATOM     14  O   UNL     1       6.266  -4.478   0.007  0.00  0.00    -0.495 OA
ATOM     15  C   UNL     1       6.635  -3.774  -1.180  0.00  0.00    +0.277 C 
ENDBRANCH  11  14
ENDBRANCH   5   8
BRANCH   1  16
ATOM     16  C   UNL     1       0.070  -4.780   1.240  0.00  0.00    +0.268 C 
BRANCH  16  17
ATOM     17  O   UNL     1      -0.025  -4.131  -0.030  0.00  0.00    -0.489 OA
BRANCH  17  22
ATOM     18  C   UNL     1      -0.146   1.500  -0.019  0.00  0.00    +0.044 C 
ATOM     19  C   UNL     1      -0.113  -0.007  -0.022  0.00  0.00    -0.050 A 
ATOM     20  C   UNL     1      -0.174  -0.696  -1.219  0.00  0.00    +0.007 A 
ATOM     21  C   UNL     1      -0.145  -2.077  -1.224  0.00  0.00    +0.046 A 
ATOM     22  C   UNL     1      -0.054  -2.772  -0.027  0.00  0.00    +0.121 A 
ATOM     23  C   UNL     1       0.008  -2.079   1.172  0.00  0.00    +0.046 A 
ATOM     24  C   UNL     1      -0.017  -0.697   1.172  0.00  0.00    +0.007 A 
ENDBRANCH  17  22
ENDBRANCH  16  17
ENDBRANCH   1  16
BRANCH   4  25
ATOM     25  S   UNL     1       1.670  -9.277  -0.451  0.00  0.00    -0.118 S 
BRANCH  25  26
ATOM     26  C   UNL     1       1.499  -9.616   1.323  0.00  0.00    +0.119 C 
BRANCH  26  27
ATOM     27  C   UNL     1       2.292 -10.875   1.681  0.00  0.00    +0.184 C 
ATOM     28  N   UNL     1       3.699 -10.711   1.295  0.00  0.00    -0.363 N 
ATOM     29  C   UNL     1       3.976 -11.639   0.425  0.00  0.00    +0.060 A 
ATOM     30  C   UNL     1       5.199 -11.983  -0.314  0.00  0.00    +0.027 A 
ATOM     31  C   UNL     1       5.188 -13.024  -1.170  0.00  0.00    +0.002 A 
ATOM     32  C   UNL     1       4.043 -13.809  -1.395  0.00  0.00    +0.002 A 
ATOM     33  C   UNL     1       2.870 -13.579  -0.771  0.00  0.00    +0.027 A 
ATOM     34  C   UNL     1       2.764 -12.470   0.187  0.00  0.00    +0.060 A 
ATOM     35  N   UNL     1       1.785 -12.023   0.919  0.00  0.00    -0.363 N 
ATOM     36  H   UNL     1       4.310 -10.034   1.627  0.00  0.00    +0.162 HD
ATOM     37  H   UNL     1       0.885 -12.384   0.956  0.00  0.00    +0.162 HD
ENDBRANCH  26  27
ENDBRANCH  25  26
ENDBRANCH   4  25
TORSDOF 8
