REMARK  Name = ZINC67588199
REMARK  7 active torsions:
REMARK  status: ('A' for Active; 'I' for Inactive)
REMARK    1  A    between atoms: C_1  and  C_2
REMARK    2  A    between atoms: N_7  and  C_10
REMARK    3  A    between atoms: C_10  and  C_11
REMARK    4  A    between atoms: C_11  and  O_26
REMARK    5  A    between atoms: N_15  and  C_18
REMARK    6  A    between atoms: C_18  and  C_19
REMARK    7  A    between atoms: C_19  and  C_20
REMARK                            x       y       z     vdW  Elec       q    Type
REMARK                         _______ _______ _______ _____ _____    ______ ____
ROOT
ATOM      1  C   UNL     1      -5.620   2.724  -6.551  0.00  0.00    +0.127 C 
ATOM      2  C   UNL     1      -5.913   3.147  -7.993  0.00  0.00    +0.044 C 
ATOM      3  C   UNL     1      -7.117   2.344  -8.499  0.00  0.00    +0.022 C 
ATOM      4  C   UNL     1      -8.360   2.784  -7.724  0.00  0.00    +0.108 C 
ATOM      5  N   UNL     1      -8.105   2.749  -6.289  0.00  0.00    -0.299 N 
ATOM      6  C   UNL     1      -6.888   2.743  -5.746  0.00  0.00    +0.245 C 
ATOM      7  O   UNL     1      -6.799   2.753  -4.536  0.00  0.00    -0.273 OA
ENDROOT
BRANCH   1   8
ATOM      8  O   UNL     1      -5.076   1.402  -6.548  0.00  0.00    -0.381 OA
ATOM      9  H   UNL     1      -5.663   0.734  -6.927  0.00  0.00    +0.211 HD
ENDBRANCH   1   8
BRANCH   1  10
ATOM     10  C   UNL     1      -4.610   3.691  -5.932  0.00  0.00    -0.034 C 
BRANCH  10  17
ATOM     11  C   UNL     1       0.010   1.926   0.293  0.00  0.00    +0.080 C 
ATOM     12  C   UNL     1      -0.724   2.316  -0.964  0.00  0.00    +0.085 C 
ATOM     13  N   UNL     1      -2.053   2.158  -1.131  0.00  0.00    -0.321 N 
ATOM     14  C   UNL     1      -2.350   2.660  -2.479  0.00  0.00    +0.108 C 
ATOM     15  C   UNL     1      -3.312   3.841  -2.414  0.00  0.00    +0.016 C 
ATOM     16  C   UNL     1      -3.629   4.314  -3.836  0.00  0.00    -0.076 C 
ATOM     17  N   UNL     1      -4.225   3.210  -4.599  0.00  0.00    +0.382 N 
ATOM     18  C   UNL     1      -3.256   2.116  -4.737  0.00  0.00    -0.076 C 
ATOM     19  C   UNL     1      -2.922   1.550  -3.353  0.00  0.00    +0.016 C 
ATOM     20  C   UNL     1      -1.001   3.102  -2.997  0.00  0.00    +0.261 C 
ATOM     21  O   UNL     1      -0.751   3.590  -4.081  0.00  0.00    -0.271 OA
ATOM     22  N   UNL     1      -0.140   2.847  -2.003  0.00  0.00    -0.169 NA
ATOM     23  H   UNL     1      -2.682   1.789  -0.492  0.00  0.00    +0.148 HD
ATOM     24  H   UNL     1      -5.044   2.873  -4.116  0.00  0.00    -0.082 HD
ENDBRANCH  10  17
ENDBRANCH   1  10
BRANCH   5  25
ATOM     25  C   UNL     1      -9.260   2.719  -5.388  0.00  0.00    +0.112 C 
BRANCH  25  26
ATOM     26  C   UNL     1      -9.653   1.266  -5.111  0.00  0.00    +0.054 C 
BRANCH  26  27
ATOM     27  C   UNL     1     -10.840   1.235  -4.184  0.00  0.00    -0.046 A 
ATOM     28  C   UNL     1     -10.648   1.206  -2.815  0.00  0.00    +0.004 A 
ATOM     29  C   UNL     1     -11.737   1.178  -1.965  0.00  0.00    +0.000 A 
ATOM     30  C   UNL     1     -13.019   1.178  -2.482  0.00  0.00    +0.000 A 
ATOM     31  C   UNL     1     -13.211   1.207  -3.851  0.00  0.00    +0.000 A 
ATOM     32  C   UNL     1     -12.122   1.240  -4.702  0.00  0.00    +0.004 A 
ENDBRANCH  26  27
ENDBRANCH  25  26
ENDBRANCH   5  25
TORSDOF 6
