REMARK  Name = ZINC25378605
REMARK  7 active torsions:
REMARK  status: ('A' for Active; 'I' for Inactive)
REMARK    1  A    between atoms: C_1  and  C_2
REMARK    2  A    between atoms: C_3  and  C_29
REMARK    3  A    between atoms: C_5  and  C_28
REMARK    4  A    between atoms: C_6  and  C_7
REMARK    5  A    between atoms: N_12  and  C_15
REMARK    6  A    between atoms: C_18  and  C_24
REMARK    7  A    between atoms: C_20  and  N_21
REMARK                            x       y       z     vdW  Elec       q    Type
REMARK                         _______ _______ _______ _____ _____    ______ ____
ROOT
ATOM      1  C   UNL     1       0.062   1.357   0.014  0.00  0.00    +0.250 C 
ATOM      2  O   UNL     1       0.153   0.147  -0.068  0.00  0.00    -0.270 OA
ATOM      3  N   UNL     1      -1.153   1.942   0.020  0.00  0.00    -0.294 N 
ATOM      4  C   UNL     1      -1.286   3.403   0.125  0.00  0.00    +0.127 C 
ATOM      5  C   UNL     1      -2.204   3.886  -1.009  0.00  0.00    +0.124 C 
ATOM      6  N   UNL     1      -3.470   3.142  -0.958  0.00  0.00    -0.325 N 
ATOM      7  C   UNL     1      -3.254   1.708  -1.192  0.00  0.00    +0.124 C 
ATOM      8  C   UNL     1      -2.379   1.136  -0.072  0.00  0.00    +0.127 C 
ENDROOT
BRANCH   1  14
ATOM      9  C   UNL     1       1.737   2.635  -2.485  0.00  0.00    +0.048 C 
ATOM     10  C   UNL     1       2.040   2.765  -1.014  0.00  0.00    +0.003 A 
ATOM     11  C   UNL     1       3.061   3.432  -0.455  0.00  0.00    +0.106 A 
ATOM     12  O   UNL     1       2.988   3.311   0.879  0.00  0.00    -0.464 OA
ATOM     13  C   UNL     1       1.930   2.576   1.234  0.00  0.00    +0.115 A 
ATOM     14  C   UNL     1       1.278   2.184   0.101  0.00  0.00    +0.081 A 
ATOM     15  C   UNL     1       1.527   2.235   2.646  0.00  0.00    +0.087 C 
ATOM     16  C   UNL     1       4.121   4.197  -1.207  0.00  0.00    +0.086 C 
ENDBRANCH   1  14
BRANCH   6  17
ATOM     17  C   UNL     1      -4.394   3.664  -1.865  0.00  0.00    +0.060 A 
ATOM     18  C   UNL     1      -4.099   3.691  -3.222  0.00  0.00    +0.026 A 
ATOM     19  C   UNL     1      -5.015   4.208  -4.116  0.00  0.00    +0.014 A 
ATOM     20  C   UNL     1      -6.226   4.699  -3.662  0.00  0.00    +0.057 A 
ATOM     21  C   UNL     1      -6.523   4.674  -2.312  0.00  0.00    +0.047 A 
ATOM     22  C   UNL     1      -5.613   4.153  -1.413  0.00  0.00    +0.148 A 
BRANCH  20  23
ATOM     23  C   UNL     1      -7.224   5.263  -4.641  0.00  0.00    +0.417 C 
ATOM     24  F   UNL     1      -6.703   5.180  -5.937  0.00  0.00    -0.166 F 
ATOM     25  F   UNL     1      -8.413   4.529  -4.569  0.00  0.00    -0.166 F 
ATOM     26  F   UNL     1      -7.482   6.601  -4.326  0.00  0.00    -0.166 F 
ENDBRANCH  20  23
BRANCH  22  27
ATOM     27  N   UNL     1      -5.934   4.121   0.032  0.00  0.00    +0.058 N 
ATOM     28  O   UNL     1      -7.038   4.463   0.418  0.00  0.00    -0.126 OA
ATOM     29  O   UNL     1      -5.095   3.753   0.834  0.00  0.00    -0.126 OA
ENDBRANCH  22  27
ENDBRANCH   6  17
TORSDOF 4
