REMARK  Name = ZINC44978119
REMARK  4 active torsions:
REMARK  status: ('A' for Active; 'I' for Inactive)
REMARK    1  A    between atoms: C_1  and  C_2
REMARK    2  A    between atoms: C_7  and  C_10
REMARK    3  A    between atoms: C_12  and  C_15
REMARK    4  A    between atoms: C_17  and  C_22
REMARK                            x       y       z     vdW  Elec       q    Type
REMARK                         _______ _______ _______ _____ _____    ______ ____
ROOT
ATOM      1  C   UNL     1       1.492  -2.540   2.454  0.00  0.00    +0.175 A 
ATOM      2  N   UNL     1       2.597  -3.293   2.446  0.00  0.00    -0.195 NA
ATOM      3  C   UNL     1       2.972  -3.551   3.668  0.00  0.00    +0.245 A 
ATOM      4  O   UNL     1       2.107  -2.964   4.505  0.00  0.00    -0.337 OA
ATOM      5  N   UNL     1       1.151  -2.304   3.688  0.00  0.00    -0.061 NA
ENDROOT
BRANCH   3   6
ATOM      6  C   UNL     1       4.172  -4.369   4.070  0.00  0.00    +0.167 C 
ATOM      7  C   UNL     1       5.263  -3.488   4.644  0.00  0.00    -0.048 C 
ATOM      8  C   UNL     1       5.613  -3.698   5.879  0.00  0.00    +0.034 C 
ATOM      9  C   UNL     1       4.954  -4.761   6.664  0.00  0.00    +0.089 C 
ATOM     10  N   UNL     1       5.173  -5.110   7.902  0.00  0.00    -0.293 NA
ATOM     11  S   UNL     1       3.782  -5.453   5.504  0.00  0.00    -0.089 S 
ATOM     12  C   UNL     1       5.918  -2.412   3.816  0.00  0.00    +0.041 C 
ATOM     13  H   UNL     1       4.663  -5.833   8.300  0.00  0.00    +0.187 HD
ENDBRANCH   3   6
BRANCH   1  19
ATOM     14  C   UNL     1      -0.019   1.526   0.010  0.00  0.00    +0.007 C 
ATOM     15  C   UNL     1       0.002  -0.004   0.002  0.00  0.00    -0.013 C 
ATOM     16  C   UNL     1      -1.433  -0.534   0.013  0.00  0.00    +0.003 C 
ATOM     17  C   UNL     1      -1.413  -2.063   0.004  0.00  0.00    +0.001 C 
ATOM     18  C   UNL     1      -0.673  -2.570   1.244  0.00  0.00    +0.011 C 
ATOM     19  C   UNL     1       0.763  -2.041   1.233  0.00  0.00    +0.061 C 
ATOM     20  C   UNL     1       0.742  -0.511   1.242  0.00  0.00    +0.014 C 
ENDBRANCH   1  19
TORSDOF 2
