REMARK  Name = ZINC60342261
REMARK  9 active torsions:
REMARK  status: ('A' for Active; 'I' for Inactive)
REMARK    1  A    between atoms: C_1  and  C_2
REMARK    2  A    between atoms: C_3  and  C_15
REMARK    3  A    between atoms: C_5  and  C_7
REMARK    4  A    between atoms: C_7  and  C_8
REMARK    5  A    between atoms: N_17  and  C_18
REMARK    6  A    between atoms: C_18  and  C_20
REMARK    7  A    between atoms: C_18  and  C_21
REMARK    8  A    between atoms: C_26  and  N_27
REMARK    9  A    between atoms: N_30  and  C_33
REMARK                            x       y       z     vdW  Elec       q    Type
REMARK                         _______ _______ _______ _____ _____    ______ ____
ROOT
ATOM      1  C   UNL     1      -0.472  -0.052  -2.648  0.00  0.00    +0.253 C 
ATOM      2  O   UNL     1      -0.416   1.119  -2.976  0.00  0.00    -0.270 OA
ATOM      3  N   UNL     1      -0.285  -1.019  -3.569  0.00  0.00    -0.304 N 
ATOM      4  H   UNL     1      -0.330  -1.952  -3.307  0.00  0.00    +0.150 HD
ENDROOT
BRANCH   1   7
ATOM      5  C   UNL     1      -0.950   1.904  -0.277  0.00  0.00    +0.067 C 
ATOM      6  C   UNL     1      -0.962   0.401  -0.161  0.00  0.00    +0.058 A 
ATOM      7  C   UNL     1      -0.743  -0.411  -1.252  0.00  0.00    +0.096 A 
ATOM      8  S   UNL     1      -0.881  -2.021  -0.493  0.00  0.00    -0.067 S 
ATOM      9  C   UNL     1      -1.193  -1.510   1.079  0.00  0.00    +0.084 A 
ATOM     10  N   UNL     1      -1.177  -0.200   0.983  0.00  0.00    -0.248 NA
BRANCH   9  11
ATOM     11  C   UNL     1      -1.428  -2.353   2.306  0.00  0.00    +0.098 C 
BRANCH  11  12
ATOM     12  C   UNL     1      -2.900  -2.643   2.442  0.00  0.00    -0.041 A 
ATOM     13  C   UNL     1      -3.712  -1.781   3.155  0.00  0.00    +0.007 A 
ATOM     14  C   UNL     1      -5.062  -2.046   3.280  0.00  0.00    +0.038 A 
ATOM     15  C   UNL     1      -5.603  -3.176   2.690  0.00  0.00    +0.123 A 
ATOM     16  C   UNL     1      -4.789  -4.039   1.975  0.00  0.00    +0.038 A 
ATOM     17  C   UNL     1      -3.440  -3.769   1.848  0.00  0.00    +0.007 A 
ATOM     18  F   UNL     1      -6.923  -3.436   2.811  0.00  0.00    -0.205 F 
ENDBRANCH  11  12
ENDBRANCH   9  11
ENDBRANCH   1   7
BRANCH   3  19
ATOM     19  C   UNL     1      -0.014  -0.661  -4.963  0.00  0.00    +0.102 C 
ATOM     20  C   UNL     1       1.490  -0.456  -5.154  0.00  0.00    +0.033 C 
BRANCH  19  21
ATOM     21  C   UNL     1      -0.490  -1.768  -5.868  0.00  0.00    -0.004 A 
ATOM     22  C   UNL     1      -0.533  -3.069  -5.404  0.00  0.00    +0.045 A 
ATOM     23  C   UNL     1      -0.970  -4.087  -6.234  0.00  0.00    +0.124 A 
ATOM     24  C   UNL     1      -1.364  -3.804  -7.531  0.00  0.00    +0.040 A 
ATOM     25  C   UNL     1      -1.322  -2.505  -7.999  0.00  0.00    +0.026 A 
ATOM     26  C   UNL     1      -0.890  -1.482  -7.166  0.00  0.00    +0.035 A 
ATOM     27  F   UNL     1      -1.012  -5.358  -5.779  0.00  0.00    -0.205 F 
BRANCH  26  28
ATOM     28  N   UNL     1      -0.852  -0.165  -7.636  0.00  0.00    -0.333 N 
ATOM     29  C   UNL     1       0.348   0.367  -8.299  0.00  0.00    +0.086 C 
ATOM     30  C   UNL     1      -0.075   1.016  -9.621  0.00  0.00    -0.060 C 
ATOM     31  N   UNL     1      -1.119   2.016  -9.362  0.00  0.00    +0.380 N 
ATOM     32  C   UNL     1      -2.324   1.358  -8.842  0.00  0.00    -0.060 C 
ATOM     33  C   UNL     1      -2.014   0.725  -7.486  0.00  0.00    +0.086 C 
ATOM     34  C   UNL     1      -1.446   2.715 -10.613  0.00  0.00    -0.096 C 
ATOM     35  H   UNL     1      -0.782   2.684  -8.685  0.00  0.00    -0.082 HD
ENDBRANCH  26  28
ENDBRANCH  19  21
ENDBRANCH   3  19
TORSDOF 6
