REMARK  Name = ZINC16192059
REMARK  9 active torsions:
REMARK  status: ('A' for Active; 'I' for Inactive)
REMARK    1  A    between atoms: C_1  and  C_2
REMARK    2  A    between atoms: N_6  and  C_14
REMARK    3  A    between atoms: C_14  and  C_15
REMARK    4  A    between atoms: C_15  and  C_16
REMARK    5  A    between atoms: C_16  and  O_18
REMARK    6  A    between atoms: O_18  and  C_19
REMARK    7  A    between atoms: C_19  and  C_20
REMARK    8  A    between atoms: N_22  and  C_23
REMARK    9  A    between atoms: C_24  and  C_31
REMARK                            x       y       z     vdW  Elec       q    Type
REMARK                         _______ _______ _______ _____ _____    ______ ____
ROOT
ATOM      1  C   UNL     1      -1.803   2.255  -4.912  0.00  0.00    +0.328 C 
ENDROOT
BRANCH   1   2
ATOM      2  C   UNL     1      -2.257   2.497  -3.496  0.00  0.00    +0.255 C 
ATOM      3  O   UNL     1      -3.300   3.079  -3.285  0.00  0.00    -0.272 OA
ATOM      4  N   UNL     1      -1.504   2.067  -2.463  0.00  0.00    -0.277 N 
ATOM      5  H   UNL     1      -0.670   1.602  -2.632  0.00  0.00    +0.155 HD
BRANCH   4   6
ATOM      6  C   UNL     1      -1.923   2.290  -1.160  0.00  0.00    +0.084 A 
ATOM      7  C   UNL     1      -1.294   1.929   0.019  0.00  0.00    +0.068 A 
ATOM      8  C   UNL     1      -1.949   2.292   1.275  0.00  0.00    -0.023 A 
ATOM      9  C   UNL     1      -3.116   2.947   1.141  0.00  0.00    -0.004 A 
ATOM     10  S   UNL     1      -3.359   3.086  -0.613  0.00  0.00    -0.077 S 
ATOM     11  C   UNL     1      -3.727   3.290   2.473  0.00  0.00    +0.043 C 
ATOM     12  C   UNL     1      -2.568   3.137   3.483  0.00  0.00    +0.010 C 
ATOM     13  C   UNL     1      -1.659   2.119   2.766  0.00  0.00    +0.037 C 
BRANCH   7  14
ATOM     14  C   UNL     1      -0.014   1.213   0.009  0.00  0.00    +0.244 C 
ATOM     15  O   UNL     1       0.002  -0.004   0.002  0.00  0.00    -0.270 OA
ATOM     16  N   UNL     1       1.143   1.903   0.001  0.00  0.00    -0.325 N 
ATOM     17  H   UNL     1       1.990   1.429  -0.009  0.00  0.00    +0.145 HD
ATOM     18  H   UNL     1       1.130   2.873   0.007  0.00  0.00    +0.145 HD
ENDBRANCH   7  14
ENDBRANCH   4   6
ENDBRANCH   1   2
BRANCH   1  19
ATOM     19  O   UNL     1      -2.778   2.808  -5.835  0.00  0.00    -0.455 OA
BRANCH  19  20
ATOM     20  C   UNL     1      -2.521   2.675  -7.145  0.00  0.00    +0.309 C 
ATOM     21  O   UNL     1      -1.514   2.115  -7.510  0.00  0.00    -0.251 OA
BRANCH  20  22
ATOM     22  C   UNL     1      -3.487   3.225  -8.162  0.00  0.00    +0.140 C 
BRANCH  22  23
ATOM     23  C   UNL     1      -2.961   2.942  -9.571  0.00  0.00    +0.125 C 
BRANCH  23  28
ATOM     24  C   UNL     1      -5.944   5.916 -11.249  0.00  0.00    +0.062 C 
ATOM     25  C   UNL     1      -4.772   5.286 -12.003  0.00  0.00    +0.256 C 
ATOM     26  C   UNL     1      -3.773   4.742 -11.014  0.00  0.00    +0.260 C 
ATOM     27  O   UNL     1      -2.858   5.438 -10.627  0.00  0.00    -0.271 OA
ATOM     28  N   UNL     1      -3.901   3.476 -10.560  0.00  0.00    -0.265 N 
ATOM     29  C   UNL     1      -4.944   2.679 -11.053  0.00  0.00    +0.078 A 
ATOM     30  C   UNL     1      -5.307   1.509 -10.408  0.00  0.00    +0.027 A 
ATOM     31  C   UNL     1      -6.337   0.737 -10.912  0.00  0.00    +0.002 A 
ATOM     32  C   UNL     1      -7.005   1.130 -12.057  0.00  0.00    +0.004 A 
ATOM     33  C   UNL     1      -6.654   2.301 -12.698  0.00  0.00    +0.047 A 
ATOM     34  C   UNL     1      -5.621   3.077 -12.204  0.00  0.00    +0.143 A 
ATOM     35  O   UNL     1      -5.253   4.225 -12.832  0.00  0.00    -0.478 OA
ENDBRANCH  23  28
ENDBRANCH  22  23
ENDBRANCH  20  22
ENDBRANCH  19  20
ENDBRANCH   1  19
TORSDOF 8
