REMARK  Name = ZINC36116661
REMARK  15 active torsions:
REMARK  status: ('A' for Active; 'I' for Inactive)
REMARK    1  A    between atoms: C_1  and  C_2
REMARK    2  A    between atoms: C_2  and  C_3
REMARK    3  A    between atoms: C_2  and  C_4
REMARK    4  A    between atoms: C_4  and  N_5
REMARK    5  A    between atoms: N_5  and  C_6
REMARK    6  A    between atoms: C_6  and  C_7
REMARK    7  A    between atoms: C_17  and  C_19
REMARK    8  A    between atoms: C_19  and  O_20
REMARK    9  A    between atoms: O_20  and  C_21
REMARK   10  A    between atoms: C_24  and  C_27
REMARK   11  A    between atoms: C_27  and  C_28
REMARK   12  A    between atoms: C_27  and  C_29
REMARK   13  A    between atoms: C_30  and  C_32
REMARK   14  A    between atoms: C_36  and  O_38
REMARK   15  A    between atoms: O_38  and  C_39
REMARK                            x       y       z     vdW  Elec       q    Type
REMARK                         _______ _______ _______ _____ _____    ______ ____
ROOT
ATOM      1  C   UNL     1      -2.715  -2.155  -2.268  0.00  0.00    +0.234 C 
ATOM      2  O   UNL     1      -3.346  -2.299  -1.242  0.00  0.00    -0.274 OA
ATOM      3  N   UNL     1      -2.805  -3.074  -3.249  0.00  0.00    -0.289 N 
ATOM      4  C   UNL     1      -2.039  -2.913  -4.495  0.00  0.00    +0.114 C 
ATOM      5  C   UNL     1      -3.034  -2.726  -5.651  0.00  0.00    +0.061 C 
ATOM      6  C   UNL     1      -4.151  -3.703  -5.485  0.00  0.00    -0.004 A 
ATOM      7  C   UNL     1      -4.487  -4.407  -4.370  0.00  0.00    -0.014 A 
ATOM      8  C   UNL     1      -5.589  -5.255  -4.474  0.00  0.00    +0.013 A 
ATOM      9  C   UNL     1      -6.261  -5.351  -5.644  0.00  0.00    +0.046 A 
ATOM     10  S   UNL     1      -5.351  -4.219  -6.685  0.00  0.00    -0.101 S 
ATOM     11  C   UNL     1      -3.664  -4.255  -3.088  0.00  0.00    +0.144 C 
ENDROOT
BRANCH   1  12
ATOM     12  C   UNL     1      -1.830  -0.948  -2.445  0.00  0.00    +0.204 C 
BRANCH  12  13
ATOM     13  N   UNL     1      -1.905  -0.108  -1.247  0.00  0.00    -0.288 N 
ATOM     14  C   UNL     1      -2.687   0.990  -1.242  0.00  0.00    +0.247 C 
ATOM     15  O   UNL     1      -2.724   1.705  -0.260  0.00  0.00    -0.270 OA
BRANCH  14  16
ATOM     16  C   UNL     1      -3.499   1.325  -2.432  0.00  0.00    +0.040 A 
ATOM     17  C   UNL     1      -3.843   0.330  -3.348  0.00  0.00    +0.013 A 
ATOM     18  C   UNL     1      -4.601   0.645  -4.457  0.00  0.00    +0.004 A 
ATOM     19  C   UNL     1      -5.021   1.946  -4.665  0.00  0.00    +0.045 A 
ATOM     20  C   UNL     1      -4.683   2.943  -3.759  0.00  0.00    +0.121 A 
ATOM     21  C   UNL     1      -3.928   2.636  -2.639  0.00  0.00    +0.058 A 
BRANCH  20  22
ATOM     22  O   UNL     1      -5.098   4.220  -3.969  0.00  0.00    -0.495 OA
ATOM     23  C   UNL     1      -5.878   4.465  -5.141  0.00  0.00    +0.277 C 
ENDBRANCH  20  22
ENDBRANCH  14  16
BRANCH  13  24
ATOM     24  C   UNL     1      -1.131  -0.461  -0.055  0.00  0.00    +0.111 C 
BRANCH  24  26
ATOM     25  C   UNL     1       0.253   1.615  -0.204  0.00  0.00    +0.009 C 
ATOM     26  C   UNL     1       0.292   0.085  -0.191  0.00  0.00    +0.000 C 
ATOM     27  C   UNL     1       1.137  -0.393   0.992  0.00  0.00    +0.009 C 
ENDBRANCH  24  26
ENDBRANCH  13  24
ENDBRANCH  12  13
ENDBRANCH   1  12
BRANCH  11  28
ATOM     28  C   UNL     1      -2.801  -5.499  -2.870  0.00  0.00    +0.256 C 
BRANCH  28  29
ATOM     29  O   UNL     1      -2.030  -5.755  -4.046  0.00  0.00    -0.490 OA
BRANCH  29  30
ATOM     30  C   UNL     1      -1.203  -6.833  -4.019  0.00  0.00    +0.121 A 
ATOM     31  C   UNL     1      -1.139  -7.631  -2.886  0.00  0.00    +0.046 A 
ATOM     32  C   UNL     1      -0.298  -8.727  -2.861  0.00  0.00    +0.007 A 
ATOM     33  C   UNL     1       0.480  -9.028  -3.964  0.00  0.00    -0.045 A 
ATOM     34  C   UNL     1       0.418  -8.234  -5.094  0.00  0.00    +0.007 A 
ATOM     35  C   UNL     1      -0.426  -7.141  -5.126  0.00  0.00    +0.046 A 
BRANCH  33  36
ATOM     36  C   UNL     1       1.397 -10.223  -3.934  0.00  0.00    +0.013 C 
ATOM     37  C   UNL     1       1.004 -11.195  -5.049  0.00  0.00    +0.012 C 
ATOM     38  C   UNL     1       2.841  -9.764  -4.144  0.00  0.00    +0.012 C 
ENDBRANCH  33  36
ENDBRANCH  29  30
ENDBRANCH  28  29
ENDBRANCH  11  28
TORSDOF 10
