REMARK  Name = ZINC59302538
REMARK  9 active torsions:
REMARK  status: ('A' for Active; 'I' for Inactive)
REMARK    1  A    between atoms: C_1  and  C_2
REMARK    2  A    between atoms: C_5  and  N_8
REMARK    3  A    between atoms: C_9  and  C_11
REMARK    4  A    between atoms: C_15  and  N_16
REMARK    5  A    between atoms: C_17  and  C_31
REMARK    6  A    between atoms: C_19  and  C_22
REMARK    7  A    between atoms: C_20  and  C_21
REMARK    8  A    between atoms: N_23  and  C_24
REMARK    9  A    between atoms: C_24  and  C_25
REMARK                            x       y       z     vdW  Elec       q    Type
REMARK                         _______ _______ _______ _____ _____    ______ ____
ROOT
ATOM      1  C   UNL     1       0.133  -6.638   0.739  0.00  0.00    +0.072 A 
ATOM      2  C   UNL     1       1.392  -7.338   0.917  0.00  0.00    -0.023 A 
ATOM      3  C   UNL     1       1.272  -8.551   1.502  0.00  0.00    -0.004 A 
ATOM      4  S   UNL     1      -0.462  -8.736   1.798  0.00  0.00    -0.075 S 
ATOM      5  C   UNL     1      -1.015  -7.275   1.182  0.00  0.00    +0.097 A 
ATOM      6  C   UNL     1       2.377  -9.510   1.818  0.00  0.00    +0.043 C 
ATOM      7  C   UNL     1       3.629  -9.078   1.040  0.00  0.00    +0.005 C 
ATOM      8  C   UNL     1       3.840  -7.574   1.237  0.00  0.00    +0.005 C 
ATOM      9  C   UNL     1       2.750  -6.793   0.499  0.00  0.00    +0.037 C 
ENDROOT
BRANCH   5  10
ATOM     10  N   UNL     1      -2.325  -6.811   1.127  0.00  0.00    -0.311 N 
ATOM     11  C   UNL     1      -3.275  -7.247   0.246  0.00  0.00    +0.022 A 
ATOM     12  C   UNL     1      -4.421  -6.584   0.478  0.00  0.00    +0.032 A 
ATOM     13  C   UNL     1      -4.155  -5.667   1.592  0.00  0.00    +0.012 A 
ATOM     14  C   UNL     1      -2.849  -5.863   1.946  0.00  0.00    +0.030 A 
ATOM     15  C   UNL     1      -2.117  -5.147   3.051  0.00  0.00    +0.064 C 
ATOM     16  C   UNL     1      -3.070  -8.298  -0.815  0.00  0.00    +0.064 C 
BRANCH  13  17
ATOM     17  C   UNL     1      -5.106  -4.729   2.210  0.00  0.00    +0.088 C 
ATOM     18  N   UNL     1      -4.706  -3.917   3.137  0.00  0.00    -0.386 N 
ATOM     19  H   UNL     1      -3.762  -3.855   3.353  0.00  0.00    +0.159 HD
BRANCH  18  20
ATOM     20  C   UNL     1      -5.678  -3.092   3.858  0.00  0.00    +0.147 C 
BRANCH  20  21
ATOM     21  C   UNL     1      -5.707  -3.502   5.308  0.00  0.00    -0.028 A 
ATOM     22  C   UNL     1      -6.574  -4.493   5.729  0.00  0.00    +0.005 A 
ATOM     23  C   UNL     1      -6.601  -4.869   7.059  0.00  0.00    +0.000 A 
ATOM     24  C   UNL     1      -5.760  -4.255   7.968  0.00  0.00    +0.000 A 
ATOM     25  C   UNL     1      -4.892  -3.265   7.547  0.00  0.00    +0.000 A 
ATOM     26  C   UNL     1      -4.862  -2.892   6.216  0.00  0.00    +0.005 A 
ENDBRANCH  20  21
ENDBRANCH  18  20
ENDBRANCH  13  17
ENDBRANCH   5  10
BRANCH   1  28
ATOM     27  N   UNL     1      -0.207  -5.187  -1.191  0.00  0.00    -0.281 N 
ATOM     28  C   UNL     1       0.079  -5.309   0.120  0.00  0.00    +0.251 C 
ATOM     29  O   UNL     1       0.292  -4.316   0.792  0.00  0.00    -0.270 OA
ATOM     30  H   UNL     1      -0.429  -5.973  -1.714  0.00  0.00    +0.155 HD
BRANCH  27  35
ATOM     31  C   UNL     1      -0.110  -0.077  -3.652  0.00  0.00    +0.044 C 
ATOM     32  C   UNL     1      -0.136  -1.435  -2.998  0.00  0.00    -0.050 A 
ATOM     33  C   UNL     1       0.339  -2.539  -3.682  0.00  0.00    +0.005 A 
ATOM     34  C   UNL     1       0.317  -3.784  -3.086  0.00  0.00    +0.023 A 
ATOM     35  C   UNL     1      -0.183  -3.927  -1.798  0.00  0.00    +0.034 A 
ATOM     36  C   UNL     1      -0.659  -2.816  -1.113  0.00  0.00    +0.023 A 
ATOM     37  C   UNL     1      -0.629  -1.572  -1.714  0.00  0.00    +0.005 A 
ENDBRANCH  27  35
ENDBRANCH   1  28
TORSDOF 6
