REMARK  Name = ZINC54967389
REMARK  3 active torsions:
REMARK  status: ('A' for Active; 'I' for Inactive)
REMARK    1  A    between atoms: C_1  and  C_2
REMARK    2  A    between atoms: C_2  and  C_3
REMARK    3  A    between atoms: C_4  and  C_20
REMARK                            x       y       z     vdW  Elec       q    Type
REMARK                         _______ _______ _______ _____ _____    ______ ____
ROOT
ATOM      1  C   UNL     1       0.707  -0.490  -1.238  0.00  0.00    +0.061 A 
ATOM      2  C   UNL     1       0.022  -0.733  -2.427  0.00  0.00    +0.076 A 
ATOM      3  S   UNL     1       1.365  -1.266  -3.477  0.00  0.00    -0.049 S 
ATOM      4  C   UNL     1       2.609  -1.133  -2.351  0.00  0.00    +0.162 A 
ATOM      5  N   UNL     1       1.997  -0.702  -1.260  0.00  0.00    -0.229 NA
ATOM      6  N   UNL     1       3.947  -1.404  -2.525  0.00  0.00    -0.309 N 
ATOM      7  C   UNL     1       4.896  -1.236  -1.416  0.00  0.00    +0.107 C 
ATOM      8  C   UNL     1       5.671  -2.543  -1.230  0.00  0.00    +0.023 C 
ATOM      9  C   UNL     1       6.323  -2.942  -2.557  0.00  0.00    -0.005 C 
ATOM     10  C   UNL     1       7.121  -4.232  -2.359  0.00  0.00    +0.004 C 
ATOM     11  C   UNL     1       7.771  -4.641  -3.682  0.00  0.00    +0.000 C 
ATOM     12  C   UNL     1       6.684  -4.873  -4.732  0.00  0.00    +0.000 C 
ATOM     13  C   UNL     1       5.888  -3.582  -4.934  0.00  0.00    +0.005 C 
ATOM     14  C   UNL     1       5.238  -3.167  -3.613  0.00  0.00    +0.010 C 
ATOM     15  C   UNL     1       4.453  -1.874  -3.821  0.00  0.00    +0.110 C 
ENDROOT
BRANCH   1  17
ATOM     16  C   UNL     1      -0.019   1.526   0.010  0.00  0.00    +0.010 C 
ATOM     17  C   UNL     1       0.002  -0.004   0.002  0.00  0.00    +0.053 C 
ENDBRANCH   1  17
BRANCH   2  18
ATOM     18  C   UNL     1      -1.348  -0.596  -2.719  0.00  0.00    +0.267 C 
ATOM     19  O   UNL     1      -1.762  -0.861  -3.831  0.00  0.00    -0.295 OA
ENDBRANCH   2  18
TORSDOF 2
