REMARK  Name = ZINC15163162
REMARK  8 active torsions:
REMARK  status: ('A' for Active; 'I' for Inactive)
REMARK    1  A    between atoms: C_1  and  C_2
REMARK    2  A    between atoms: C_5  and  N_8
REMARK    3  A    between atoms: C_11  and  C_20
REMARK    4  A    between atoms: C_13  and  C_16
REMARK    5  A    between atoms: C_14  and  N_15
REMARK    6  A    between atoms: C_16  and  O_18
REMARK    7  A    between atoms: O_18  and  C_19
REMARK    8  A    between atoms: C_23  and  N_26
REMARK                            x       y       z     vdW  Elec       q    Type
REMARK                         _______ _______ _______ _____ _____    ______ ____
ROOT
ATOM      1  N   UNL     1      -1.231   2.036   0.091  0.00  0.00    -0.261 N 
ATOM      2  C   UNL     1      -1.230   3.407   0.135  0.00  0.00    +0.024 C 
ATOM      3  C   UNL     1      -2.347   4.086   0.466  0.00  0.00    +0.025 C 
ATOM      4  C   UNL     1      -3.625   3.359   0.804  0.00  0.00    +0.094 C 
ATOM      5  C   UNL     1      -3.590   1.943   0.310  0.00  0.00    +0.084 C 
ATOM      6  C   UNL     1      -2.412   1.343  -0.024  0.00  0.00    +0.103 C 
ATOM      7  C   UNL     1      -2.355   5.492   0.512  0.00  0.00    +0.162 C 
ATOM      8  O   UNL     1      -3.383   6.074   0.796  0.00  0.00    -0.292 OA
ATOM      9  C   UNL     1      -1.113   6.288   0.216  0.00  0.00    +0.080 C 
ATOM     10  C   UNL     1       0.116   5.447   0.578  0.00  0.00    +0.014 C 
ATOM     11  C   UNL     1       0.050   4.132  -0.203  0.00  0.00    +0.052 C 
ENDROOT
BRANCH   1  16
ATOM     12  C   UNL     1       3.669  -0.810   0.372  0.00  0.00    +0.044 C 
ATOM     13  C   UNL     1       2.368  -0.052   0.297  0.00  0.00    -0.050 A 
ATOM     14  C   UNL     1       1.756   0.383   1.458  0.00  0.00    +0.005 A 
ATOM     15  C   UNL     1       0.564   1.077   1.393  0.00  0.00    +0.024 A 
ATOM     16  C   UNL     1      -0.020   1.338   0.160  0.00  0.00    +0.040 A 
ATOM     17  C   UNL     1       0.598   0.899  -1.004  0.00  0.00    +0.024 A 
ATOM     18  C   UNL     1       1.790   0.205  -0.932  0.00  0.00    +0.005 A 
ENDBRANCH   1  16
BRANCH   4  19
ATOM     19  C   UNL     1      -3.811   3.356   2.300  0.00  0.00    -0.035 A 
ATOM     20  C   UNL     1      -2.864   2.763   3.113  0.00  0.00    +0.007 A 
ATOM     21  C   UNL     1      -3.032   2.764   4.485  0.00  0.00    +0.033 A 
ATOM     22  C   UNL     1      -4.152   3.350   5.043  0.00  0.00    +0.126 A 
ATOM     23  C   UNL     1      -5.102   3.939   4.229  0.00  0.00    +0.033 A 
ATOM     24  C   UNL     1      -4.931   3.942   2.858  0.00  0.00    +0.007 A 
BRANCH  22  25
ATOM     25  N   UNL     1      -4.336   3.346   6.512  0.00  0.00    +0.056 N 
ATOM     26  O   UNL     1      -5.324   3.862   7.004  0.00  0.00    -0.126 OA
ATOM     27  O   UNL     1      -3.499   2.827   7.229  0.00  0.00    -0.126 OA
ENDBRANCH  22  25
ENDBRANCH   4  19
BRANCH   6  28
ATOM     28  N   UNL     1      -2.404   0.047  -0.471  0.00  0.00    -0.346 N 
ATOM     29  H   UNL     1      -1.666  -0.540  -0.244  0.00  0.00    +0.143 HD
ATOM     30  H   UNL     1      -3.137  -0.283  -1.015  0.00  0.00    +0.143 HD
ENDBRANCH   6  28
BRANCH   5  31
ATOM     31  C   UNL     1      -4.788   1.226   0.184  0.00  0.00    +0.339 C 
ATOM     32  O   UNL     1      -4.768   0.066  -0.186  0.00  0.00    -0.245 OA
BRANCH  31  33
ATOM     33  O   UNL     1      -5.965   1.822   0.475  0.00  0.00    -0.465 OA
ATOM     34  C   UNL     1      -7.147   1.033   0.325  0.00  0.00    +0.280 C 
ENDBRANCH  31  33
ENDBRANCH   5  31
TORSDOF 6
