REMARK  Name = ZINC04426269
REMARK  8 active torsions:
REMARK  status: ('A' for Active; 'I' for Inactive)
REMARK    1  A    between atoms: C_1  and  C_2
REMARK    2  A    between atoms: C_5  and  C_7
REMARK    3  A    between atoms: C_20  and  C_23
REMARK    4  A    between atoms: C_23  and  C_24
REMARK    5  A    between atoms: C_24  and  C_25
REMARK    6  A    between atoms: C_25  and  C_26
REMARK    7  A    between atoms: C_26  and  C_27
REMARK    8  A    between atoms: C_27  and  N_49
REMARK                            x       y       z     vdW  Elec       q    Type
REMARK                         _______ _______ _______ _____ _____    ______ ____
ROOT
ATOM      1  C   UNL     1      -0.018   1.473   0.010  0.00  0.00    +0.089 A 
ATOM      2  C   UNL     1       1.143   2.183   0.003  0.00  0.00    +0.210 A 
ATOM      3  O   UNL     1       1.168   3.518   0.009  0.00  0.00    -0.462 OA
ATOM      4  C   UNL     1       0.056   4.279   0.022  0.00  0.00    +0.142 A 
ATOM      5  C   UNL     1       0.148   5.664   0.025  0.00  0.00    +0.093 A 
ATOM      6  C   UNL     1      -1.003   6.436   0.037  0.00  0.00    +0.133 A 
ATOM      7  C   UNL     1      -2.258   5.830   0.049  0.00  0.00    +0.021 A 
ATOM      8  C   UNL     1      -2.366   4.468   0.046  0.00  0.00    +0.025 A 
ATOM      9  C   UNL     1      -1.215   3.679   0.032  0.00  0.00    +0.065 A 
ATOM     10  C   UNL     1      -1.296   2.208   0.020  0.00  0.00    +0.202 A 
ATOM     11  O   UNL     1      -2.367   1.627   0.023  0.00  0.00    -0.286 OA
ATOM     12  C   UNL     1      -3.510   6.671   0.068  0.00  0.00    +0.203 C 
ATOM     13  O   UNL     1      -3.184   8.014  -0.304  0.00  0.00    -0.337 OA
ATOM     14  C   UNL     1      -2.056   8.534   0.411  0.00  0.00    +0.308 C 
ATOM     15  O   UNL     1      -0.894   7.790   0.035  0.00  0.00    -0.463 OA
ENDROOT
BRANCH   1  20
ATOM     16  C   UNL     1       2.065  -3.051  -0.033  0.00  0.00    +0.066 C 
ATOM     17  C   UNL     1       0.869  -2.135  -0.017  0.00  0.00    +0.046 A 
ATOM     18  C   UNL     1      -0.386  -2.655  -0.009  0.00  0.00    +0.070 A 
ATOM     19  S   UNL     1      -1.364  -1.158   0.008  0.00  0.00    -0.075 S 
ATOM     20  C   UNL     1       0.002  -0.004   0.002  0.00  0.00    +0.115 A 
ATOM     21  N   UNL     1       1.038  -0.832  -0.018  0.00  0.00    -0.244 NA
ENDBRANCH   1  20
BRANCH  14  22
ATOM     22  C   UNL     1      -1.859  10.009   0.056  0.00  0.00    +0.075 C 
BRANCH  22  23
ATOM     23  C   UNL     1      -3.060  10.818   0.552  0.00  0.00    +0.006 C 
BRANCH  23  24
ATOM     24  C   UNL     1      -2.863  12.293   0.197  0.00  0.00    -0.002 C 
BRANCH  24  25
ATOM     25  C   UNL     1      -4.063  13.101   0.693  0.00  0.00    -0.020 C 
BRANCH  25  26
ATOM     26  C   UNL     1      -3.866  14.577   0.338  0.00  0.00    -0.086 C 
BRANCH  26  29
ATOM     27  H   UNL     1      -4.912  16.331   0.592  0.00  0.00    -0.090 HD
ATOM     28  H   UNL     1      -5.881  14.988   0.439  0.00  0.00    -0.090 HD
ATOM     29  N   UNL     1      -5.016  15.349   0.840  0.00  0.00    +0.378 N 
ATOM     30  H   UNL     1      -5.060  15.264   1.862  0.00  0.00    -0.090 HD
ENDBRANCH  26  29
ENDBRANCH  25  26
ENDBRANCH  24  25
ENDBRANCH  23  24
ENDBRANCH  22  23
ENDBRANCH  14  22
TORSDOF 7
