REMARK  Name = ZINC19325133
REMARK  4 active torsions:
REMARK  status: ('A' for Active; 'I' for Inactive)
REMARK    1  A    between atoms: C_1  and  N_2
REMARK    2  A    between atoms: N_7  and  C_9
REMARK    3  A    between atoms: C_9  and  C_11
REMARK    4  A    between atoms: C_9  and  C_17
REMARK                            x       y       z     vdW  Elec       q    Type
REMARK                         _______ _______ _______ _____ _____    ______ ____
ROOT
ATOM      1  C   UNL     1      -2.295   4.128   2.009  0.00  0.00    +0.115 C 
ENDROOT
BRANCH   1   8
ATOM      2  C   UNL     1      -0.380   0.645   2.369  0.00  0.00    -0.094 C 
ATOM      3  N   UNL     1      -0.674   1.547   1.247  0.00  0.00    +0.386 N 
ATOM      4  C   UNL     1      -0.013   1.086   0.008  0.00  0.00    -0.077 C 
ATOM      5  C   UNL     1      -0.690   1.555  -1.200  0.00  0.00    -0.017 C 
ATOM      6  C   UNL     1      -0.714   3.100  -1.267  0.00  0.00    +0.013 C 
ATOM      7  C   UNL     1      -1.752   3.610  -0.305  0.00  0.00    +0.083 C 
ATOM      8  N   UNL     1      -1.211   3.905   1.043  0.00  0.00    -0.308 NA
ATOM      9  C   UNL     1      -0.253   2.895   1.545  0.00  0.00    +0.009 C 
ATOM     10  H   UNL     1      -1.765   1.560   1.105  0.00  0.00    -0.080 HD
ENDBRANCH   1   8
BRANCH   1  11
ATOM     11  C   UNL     1      -3.136   5.295   1.559  0.00  0.00    -0.026 A 
ATOM     12  C   UNL     1      -2.532   6.415   1.019  0.00  0.00    +0.007 A 
ATOM     13  C   UNL     1      -3.304   7.483   0.602  0.00  0.00    +0.020 A 
ATOM     14  C   UNL     1      -4.680   7.435   0.734  0.00  0.00    +0.041 A 
ATOM     15  C   UNL     1      -5.284   6.316   1.280  0.00  0.00    +0.020 A 
ATOM     16  C   UNL     1      -4.512   5.246   1.692  0.00  0.00    +0.007 A 
ATOM     17 CL   UNL     1      -5.649   8.779   0.217  0.00  0.00    -0.084 Cl
ENDBRANCH   1  11
BRANCH   1  18
ATOM     18  C   UNL     1      -1.707   4.425   3.364  0.00  0.00    -0.026 A 
ATOM     19  C   UNL     1      -0.585   5.225   3.471  0.00  0.00    +0.005 A 
ATOM     20  C   UNL     1      -0.048   5.501   4.714  0.00  0.00    +0.000 A 
ATOM     21  C   UNL     1      -0.629   4.970   5.851  0.00  0.00    +0.000 A 
ATOM     22  C   UNL     1      -1.749   4.166   5.744  0.00  0.00    +0.000 A 
ATOM     23  C   UNL     1      -2.288   3.894   4.501  0.00  0.00    +0.005 A 
ENDBRANCH   1  18
TORSDOF 3
