REMARK  Name = ZINC36806721
REMARK  5 active torsions:
REMARK  status: ('A' for Active; 'I' for Inactive)
REMARK    1  A    between atoms: C_4  and  C_7
REMARK    2  A    between atoms: C_7  and  C_8
REMARK    3  A    between atoms: C_14  and  C_16
REMARK    4  A    between atoms: N_18  and  C_25
REMARK    5  A    between atoms: C_19  and  C_22
REMARK                            x       y       z     vdW  Elec       q    Type
REMARK                         _______ _______ _______ _____ _____    ______ ____
ROOT
ATOM      1  C   UNL     1       4.164  -0.959   1.377  0.00  0.00    +0.015 A 
ATOM      2  C   UNL     1       3.919  -2.018   2.188  0.00  0.00    +0.124 A 
ATOM      3  N   UNL     1       4.446  -1.982   3.398  0.00  0.00    -0.233 NA
ATOM      4  C   UNL     1       5.175  -0.960   3.792  0.00  0.00    +0.165 A 
ATOM      5  S   UNL     1       5.179   0.050   2.445  0.00  0.00    -0.057 S 
ATOM      6  N   UNL     1       5.796  -0.764   5.018  0.00  0.00    -0.260 N 
ATOM      7  C   UNL     1       5.686  -1.697   5.985  0.00  0.00    +0.265 C 
ATOM      8  O   UNL     1       5.042  -2.710   5.784  0.00  0.00    -0.268 OA
ATOM      9  H   UNL     1       6.309   0.043   5.179  0.00  0.00    +0.157 HD
ENDROOT
BRANCH   7  10
ATOM     10  C   UNL     1       6.340  -1.491   7.277  0.00  0.00    +0.123 C 
ATOM     11  N   UNL     1       7.042  -0.453   7.603  0.00  0.00    -0.178 NA
ATOM     12  N   UNL     1       7.558  -0.502   8.896  0.00  0.00    -0.212 N 
ATOM     13  C   UNL     1       7.138  -1.761   9.531  0.00  0.00    +0.189 C 
ATOM     14  C   UNL     1       6.295  -2.454   8.442  0.00  0.00    +0.096 C 
BRANCH  12  15
ATOM     15  C   UNL     1       8.346   0.484   9.493  0.00  0.00    +0.052 A 
ATOM     16  C   UNL     1       8.807   0.315  10.793  0.00  0.00    +0.025 A 
ATOM     17  C   UNL     1       9.586   1.292  11.380  0.00  0.00    +0.002 A 
ATOM     18  C   UNL     1       9.909   2.438  10.676  0.00  0.00    +0.000 A 
ATOM     19  C   UNL     1       9.451   2.609   9.382  0.00  0.00    +0.002 A 
ATOM     20  C   UNL     1       8.677   1.634   8.786  0.00  0.00    +0.025 A 
ENDBRANCH  12  15
BRANCH  13  21
ATOM     21  C   UNL     1       8.337  -2.596   9.896  0.00  0.00    +0.233 C 
ATOM     22  O   UNL     1       9.411  -2.377   9.376  0.00  0.00    -0.274 OA
ATOM     23  N   UNL     1       8.218  -3.588  10.802  0.00  0.00    -0.328 N 
ATOM     24  H   UNL     1       7.359  -3.763  11.218  0.00  0.00    +0.145 HD
ATOM     25  H   UNL     1       8.990  -4.125  11.037  0.00  0.00    +0.145 HD
ENDBRANCH  13  21
ENDBRANCH   7  10
BRANCH   1  26
ATOM     26  C   UNL     1       3.711  -0.707  -0.038  0.00  0.00    +0.079 C 
BRANCH  26  30
ATOM     27  C   UNL     1      -0.017   1.378   0.010  0.00  0.00    +0.000 A 
ATOM     28  C   UNL     1       1.171   2.086   0.002  0.00  0.00    +0.000 A 
ATOM     29  C   UNL     1       2.377   1.411  -0.013  0.00  0.00    +0.004 A 
ATOM     30  C   UNL     1       2.396   0.029  -0.020  0.00  0.00    -0.043 A 
ATOM     31  C   UNL     1       1.208  -0.679  -0.012  0.00  0.00    +0.004 A 
ATOM     32  C   UNL     1       0.002  -0.004   0.002  0.00  0.00    +0.000 A 
ENDBRANCH  26  30
ENDBRANCH   1  26
TORSDOF 5
