REMARK  Name = ZINC38727653
REMARK  6 active torsions:
REMARK  status: ('A' for Active; 'I' for Inactive)
REMARK    1  A    between atoms: C_1  and  C_2
REMARK    2  A    between atoms: C_2  and  O_3
REMARK    3  A    between atoms: O_3  and  C_4
REMARK    4  A    between atoms: C_15  and  C_27
REMARK    5  A    between atoms: C_22  and  C_26
REMARK    6  A    between atoms: C_23  and  C_25
REMARK                            x       y       z     vdW  Elec       q    Type
REMARK                         _______ _______ _______ _____ _____    ______ ____
ROOT
ATOM      1  C   UNL     1      -1.498  -1.847   0.006  0.00  0.00    +0.124 A 
ATOM      2  C   UNL     1      -0.376  -2.674  -0.003  0.00  0.00    +0.046 A 
ATOM      3  C   UNL     1      -0.524  -4.031  -0.006  0.00  0.00    +0.019 A 
ATOM      4  C   UNL     1      -1.804  -4.589   0.001  0.00  0.00    +0.065 A 
ATOM      5  C   UNL     1      -2.945  -3.766   0.005  0.00  0.00    +0.143 A 
ATOM      6  C   UNL     1      -2.772  -2.385   0.016  0.00  0.00    +0.092 A 
ATOM      7  O   UNL     1      -4.200  -4.271  -0.001  0.00  0.00    -0.449 OA
ATOM      8  C   UNL     1      -4.390  -5.585   0.227  0.00  0.00    +0.199 A 
ATOM      9  C   UNL     1      -3.364  -6.487   0.238  0.00  0.00    +0.072 A 
ATOM     10  C   UNL     1      -1.980  -6.061   0.006  0.00  0.00    +0.199 A 
ATOM     11  O   UNL     1      -1.061  -6.843  -0.166  0.00  0.00    -0.287 OA
ATOM     12  C   UNL     1      -3.946  -7.835   0.512  0.00  0.00    +0.153 C 
ATOM     13  N   UNL     1      -5.395  -7.623   0.664  0.00  0.00    -0.232 N 
ATOM     14  C   UNL     1      -5.644  -6.308   0.496  0.00  0.00    +0.289 C 
ATOM     15  O   UNL     1      -6.744  -5.795   0.559  0.00  0.00    -0.266 OA
ATOM     16  C   UNL     1      -6.339  -8.604   0.932  0.00  0.00    +0.169 A 
ATOM     17  N   UNL     1      -6.150  -9.894   1.109  0.00  0.00    -0.229 NA
ATOM     18  C   UNL     1      -7.162 -10.704   1.360  0.00  0.00    +0.050 A 
ATOM     19  C   UNL     1      -8.396 -10.146   1.425  0.00  0.00    +0.011 A 
ATOM     20  S   UNL     1      -8.003  -8.432   1.118  0.00  0.00    -0.057 S 
ATOM     21  C   UNL     1      -9.731 -10.793   1.691  0.00  0.00    +0.053 C 
ATOM     22  C   UNL     1      -6.955 -12.183   1.563  0.00  0.00    +0.066 C 
ENDROOT
BRANCH  12  23
ATOM     23  C   UNL     1      -3.673  -8.764  -0.643  0.00  0.00    -0.004 A 
ATOM     24  C   UNL     1      -2.640  -9.686  -0.574  0.00  0.00    +0.009 A 
ATOM     25  C   UNL     1      -2.426 -10.520  -1.661  0.00  0.00    +0.020 A 
ATOM     26  C   UNL     1      -3.244 -10.405  -2.769  0.00  0.00    +0.111 A 
ATOM     27  N   UNL     1      -4.217  -9.516  -2.800  0.00  0.00    -0.263 NA
ATOM     28  C   UNL     1      -4.454  -8.711  -1.783  0.00  0.00    +0.116 A 
ENDBRANCH  12  23
BRANCH   1  29
ATOM     29  O   UNL     1      -1.339  -0.499   0.012  0.00  0.00    -0.492 OA
BRANCH  29  31
ATOM     30  C   UNL     1      -0.019   1.526   0.010  0.00  0.00    +0.048 C 
ATOM     31  C   UNL     1       0.002  -0.004   0.002  0.00  0.00    +0.225 C 
ENDBRANCH  29  31
ENDBRANCH   1  29
TORSDOF 3
