REMARK  Name = ZINC27643504
REMARK  5 active torsions:
REMARK  status: ('A' for Active; 'I' for Inactive)
REMARK    1  A    between atoms: C_4  and  N_8
REMARK    2  A    between atoms: C_9  and  C_11
REMARK    3  A    between atoms: C_11  and  S_12
REMARK    4  A    between atoms: S_12  and  C_13
REMARK    5  A    between atoms: N_19  and  C_20
REMARK                            x       y       z     vdW  Elec       q    Type
REMARK                         _______ _______ _______ _____ _____    ______ ____
ROOT
ATOM      1  S   UNL     1       4.142   4.470  -1.532  0.00  0.00    -0.076 S 
ENDROOT
BRANCH   1   2
ATOM      2  C   UNL     1       2.490   5.077  -1.453  0.00  0.00    +0.197 A 
ATOM      3  N   UNL     1       2.085   6.086  -0.738  0.00  0.00    -0.144 NA
ATOM      4  N   UNL     1       0.709   6.246  -0.952  0.00  0.00    -0.225 N 
ATOM      5  H   UNL     1       0.161   7.048  -0.435  0.00  0.00    +0.194 HD
ATOM      6  C   UNL     1       0.322   5.294  -1.826  0.00  0.00    +0.349 A 
ATOM      7  O   UNL     1      -0.807   5.124  -2.252  0.00  0.00    -0.245 OA
ATOM      8  N   UNL     1       1.410   4.562  -2.139  0.00  0.00    -0.239 N 
BRANCH   8   9
ATOM      9  C   UNL     1       1.439   3.471  -3.014  0.00  0.00    +0.056 A 
ATOM     10  C   UNL     1       0.790   2.281  -2.694  0.00  0.00    +0.046 A 
ATOM     11  C   UNL     1       0.842   1.228  -3.585  0.00  0.00    +0.113 A 
ATOM     12  N   UNL     1       1.496   1.339  -4.726  0.00  0.00    -0.263 NA
ATOM     13  C   UNL     1       2.123   2.450  -5.064  0.00  0.00    +0.113 A 
ATOM     14  C   UNL     1       2.118   3.548  -4.229  0.00  0.00    +0.046 A 
ENDBRANCH   8   9
ENDBRANCH   1   2
BRANCH   1  15
ATOM     15  C   UNL     1       4.955   5.622  -0.398  0.00  0.00    +0.173 C 
BRANCH  15  17
ATOM     16  N   UNL     1       7.231   6.015   0.488  0.00  0.00    -0.282 N 
ATOM     17  C   UNL     1       6.421   5.285  -0.305  0.00  0.00    +0.228 C 
ATOM     18  O   UNL     1       6.872   4.357  -0.943  0.00  0.00    -0.275 OA
ATOM     19  H   UNL     1       6.808   6.799   1.133  0.00  0.00    +0.155 HD
BRANCH  16  23
ATOM     20  C   UNL     1      11.338   5.301   0.492  0.00  0.00    +0.003 A 
ATOM     21  C   UNL     1      10.862   6.592   0.354  0.00  0.00    +0.022 A 
ATOM     22  C   UNL     1       9.501   6.833   0.352  0.00  0.00    +0.064 A 
ATOM     23  C   UNL     1       8.610   5.775   0.489  0.00  0.00    +0.070 A 
ATOM     24  C   UNL     1       9.092   4.480   0.632  0.00  0.00    +0.064 A 
ATOM     25  C   UNL     1      10.454   4.247   0.629  0.00  0.00    +0.022 A 
ATOM     26 CL   UNL     1       7.984   3.155   0.810  0.00  0.00    -0.082 Cl
ATOM     27 CL   UNL     1       8.905   8.454   0.180  0.00  0.00    -0.082 Cl
ENDBRANCH  16  23
ENDBRANCH  15  17
ENDBRANCH   1  15
TORSDOF 5
