REMARK  Name = ZINC54432018
REMARK  5 active torsions:
REMARK  status: ('A' for Active; 'I' for Inactive)
REMARK    1  A    between atoms: C_1  and  O_2
REMARK    2  A    between atoms: O_2  and  C_3
REMARK    3  A    between atoms: C_3  and  C_4
REMARK    4  A    between atoms: C_5  and  N_11
REMARK    5  A    between atoms: C_12  and  C_14
REMARK                            x       y       z     vdW  Elec       q    Type
REMARK                         _______ _______ _______ _____ _____    ______ ____
ROOT
ATOM      1  N   UNL     1      -1.452  -2.117   2.230  0.00  0.00    -0.280 N 
ATOM      2  C   UNL     1      -2.178  -2.751   3.173  0.00  0.00    +0.273 C 
ATOM      3  O   UNL     1      -1.882  -3.880   3.511  0.00  0.00    -0.268 OA
ATOM      4  H   UNL     1      -1.637  -1.189   2.018  0.00  0.00    +0.155 HD
ENDROOT
BRANCH   2   5
ATOM      5  C   UNL     1      -3.336  -2.071   3.796  0.00  0.00    +0.210 A 
ATOM      6  C   UNL     1      -4.208  -2.634   4.833  0.00  0.00    +0.192 A 
ATOM      7  N   UNL     1      -5.116  -1.745   5.133  0.00  0.00    -0.033 NA
ATOM      8  O   UNL     1      -4.885  -0.599   4.332  0.00  0.00    -0.240 OA
ATOM      9  N   UNL     1      -3.755  -0.863   3.521  0.00  0.00    -0.042 NA
ATOM     10  N   UNL     1      -4.089  -3.896   5.398  0.00  0.00    -0.339 N 
ATOM     11  H   UNL     1      -3.379  -4.491   5.110  0.00  0.00    +0.144 HD
ATOM     12  H   UNL     1      -4.715  -4.183   6.080  0.00  0.00    +0.144 HD
ENDBRANCH   2   5
BRANCH   1  14
ATOM     13  C   UNL     1       0.627  -2.092   1.001  0.00  0.00    +0.013 A 
ATOM     14  C   UNL     1      -0.431  -2.798   1.560  0.00  0.00    +0.040 A 
ATOM     15  C   UNL     1      -0.472  -4.182   1.451  0.00  0.00    +0.024 A 
ATOM     16  C   UNL     1       0.538  -4.852   0.788  0.00  0.00    +0.003 A 
ATOM     17  C   UNL     1       1.589  -4.147   0.233  0.00  0.00    +0.016 A 
ATOM     18  C   UNL     1       1.631  -2.767   0.335  0.00  0.00    +0.025 A 
ATOM     19 BR   UNL     1       3.068  -1.806  -0.433  0.00  0.00    -0.050 Br
BRANCH  13  20
ATOM     20  C   UNL     1       0.675  -0.590   1.116  0.00  0.00    +0.197 C 
BRANCH  20  22
ATOM     21  C   UNL     1      -0.011   1.424   0.013  0.00  0.00    +0.194 C 
ATOM     22  O   UNL     1       0.001  -0.005   0.000  0.00  0.00    -0.378 OA
ENDBRANCH  20  22
ENDBRANCH  13  20
ENDBRANCH   1  14
TORSDOF 4
