REMARK  Name = ZINC28420573
REMARK  8 active torsions:
REMARK  status: ('A' for Active; 'I' for Inactive)
REMARK    1  A    between atoms: C_1  and  C_2
REMARK    2  A    between atoms: C_3  and  N_11
REMARK    3  A    between atoms: C_7  and  N_8
REMARK    4  A    between atoms: C_12  and  C_14
REMARK    5  A    between atoms: C_14  and  C_16
REMARK    6  A    between atoms: C_14  and  S_17
REMARK    7  A    between atoms: S_17  and  C_18
REMARK    8  A    between atoms: N_27  and  C_28
REMARK                            x       y       z     vdW  Elec       q    Type
REMARK                         _______ _______ _______ _____ _____    ______ ____
ROOT
ATOM      1  N   UNL     1       0.207   7.867   0.808  0.00  0.00    -0.284 N 
ATOM      2  C   UNL     1      -0.012   6.701   0.168  0.00  0.00    +0.230 C 
ATOM      3  O   UNL     1       0.242   6.601  -1.014  0.00  0.00    -0.274 OA
ATOM      4  H   UNL     1      -0.109   7.987   1.855  0.00  0.00    +0.155 HD
ENDROOT
BRANCH   1   7
ATOM      5  C   UNL     1      -0.299  10.517   1.712  0.00  0.00    +0.048 C 
ATOM      6  C   UNL     1       0.617  10.233   0.550  0.00  0.00    +0.001 A 
ATOM      7  C   UNL     1       0.836   8.924   0.141  0.00  0.00    +0.039 A 
ATOM      8  C   UNL     1       1.676   8.666  -0.934  0.00  0.00    +0.024 A 
ATOM      9  C   UNL     1       2.296   9.712  -1.590  0.00  0.00    +0.004 A 
ATOM     10  C   UNL     1       2.080  11.014  -1.177  0.00  0.00    +0.033 A 
ATOM     11  C   UNL     1       1.244  11.273  -0.107  0.00  0.00    +0.131 A 
BRANCH  11  12
ATOM     12  N   UNL     1       1.016  12.669   0.331  0.00  0.00    +0.057 N 
ATOM     13  O   UNL     1       0.969  13.566  -0.491  0.00  0.00    -0.126 OA
ATOM     14  O   UNL     1       0.874  12.920   1.515  0.00  0.00    -0.126 OA
ENDBRANCH  11  12
ENDBRANCH   1   7
BRANCH   2  15
ATOM     15  C   UNL     1      -0.572   5.521   0.921  0.00  0.00    +0.137 C 
ATOM     16  C   UNL     1      -2.098   5.618   0.958  0.00  0.00    +0.029 C 
BRANCH  15  17
ATOM     17  S   UNL     1      -0.085   3.989   0.090  0.00  0.00    -0.075 S 
BRANCH  17  18
ATOM     18  C   UNL     1      -0.723   2.807   1.230  0.00  0.00    +0.173 A 
ATOM     19  N   UNL     1      -1.340   3.238   2.296  0.00  0.00    -0.222 NA
ATOM     20  C   UNL     1      -1.857   2.383   3.228  0.00  0.00    +0.086 A 
ATOM     21  C   UNL     1      -2.534   2.694   4.416  0.00  0.00    +0.036 A 
ATOM     22  C   UNL     1      -2.977   1.708   5.224  0.00  0.00    +0.048 A 
ATOM     23  S   UNL     1      -2.467   0.231   4.359  0.00  0.00    -0.090 S 
ATOM     24  C   UNL     1      -1.690   1.011   2.969  0.00  0.00    +0.102 A 
ATOM     25  C   UNL     1      -1.035   0.559   1.826  0.00  0.00    +0.269 A 
ATOM     26  O   UNL     1      -0.898  -0.635   1.613  0.00  0.00    -0.266 OA
ATOM     27  N   UNL     1      -0.554   1.479   0.956  0.00  0.00    -0.290 N 
ATOM     28  C   UNL     1       0.143   1.056  -0.261  0.00  0.00    +0.154 C 
ENDBRANCH  17  18
ENDBRANCH  15  17
ENDBRANCH   2  15
TORSDOF 5
