REMARK  Name = ZINC48252008
REMARK  8 active torsions:
REMARK  status: ('A' for Active; 'I' for Inactive)
REMARK    1  A    between atoms: C_1  and  C_2
REMARK    2  A    between atoms: C_3  and  C_11
REMARK    3  A    between atoms: C_7  and  N_8
REMARK    4  A    between atoms: C_11  and  S_12
REMARK    5  A    between atoms: S_12  and  C_15
REMARK    6  A    between atoms: C_15  and  C_17
REMARK    7  A    between atoms: C_15  and  C_18
REMARK    8  A    between atoms: N_20  and  C_21
REMARK                            x       y       z     vdW  Elec       q    Type
REMARK                         _______ _______ _______ _____ _____    ______ ____
ROOT
ATOM      1  C   UNL     1       0.064   2.291  -4.367  0.00  0.00    +0.213 C 
ATOM      2  C   UNL     1      -1.106   3.249  -4.136  0.00  0.00    +0.042 C 
ENDROOT
BRANCH   1   3
ATOM      3  C   UNL     1       1.207   3.038  -5.005  0.00  0.00    +0.241 C 
ATOM      4  O   UNL     1       2.139   3.416  -4.327  0.00  0.00    -0.273 OA
ATOM      5  N   UNL     1       1.193   3.286  -6.330  0.00  0.00    -0.284 N 
ATOM      6  H   UNL     1       0.416   3.050  -6.859  0.00  0.00    +0.155 HD
BRANCH   5   7
ATOM      7  C   UNL     1       2.302   3.886  -6.941  0.00  0.00    +0.037 A 
ATOM      8  C   UNL     1       2.118   4.780  -7.987  0.00  0.00    +0.027 A 
ATOM      9  C   UNL     1       3.211   5.371  -8.591  0.00  0.00    +0.051 A 
ATOM     10  C   UNL     1       4.494   5.074  -8.155  0.00  0.00    +0.162 A 
ATOM     11  C   UNL     1       4.680   4.182  -7.106  0.00  0.00    +0.164 A 
ATOM     12  C   UNL     1       3.583   3.591  -6.498  0.00  0.00    +0.072 A 
ATOM     13  O   UNL     1       5.931   3.884  -6.659  0.00  0.00    -0.485 OA
ATOM     14  C   UNL     1       7.020   4.209  -7.529  0.00  0.00    +0.270 C 
ATOM     15  C   UNL     1       6.804   5.633  -8.059  0.00  0.00    +0.270 C 
ATOM     16  O   UNL     1       5.559   5.664  -8.765  0.00  0.00    -0.485 OA
ENDBRANCH   5   7
ENDBRANCH   1   3
BRANCH   1  17
ATOM     17  S   UNL     1       0.604   1.603  -2.777  0.00  0.00    -0.016 S 
ATOM     18  O   UNL     1       0.894   2.681  -1.897  0.00  0.00    -0.173 OA
ATOM     19  O   UNL     1       1.606   0.627  -3.027  0.00  0.00    -0.173 OA
BRANCH  17  20
ATOM     20  C   UNL     1      -0.885   0.758  -2.179  0.00  0.00    +0.202 C 
BRANCH  20  23
ATOM     21  C   UNL     1      -1.338   2.247   0.256  0.00  0.00    +0.046 C 
ATOM     22  C   UNL     1      -0.817   0.834   0.322  0.00  0.00    -0.016 A 
ATOM     23  C   UNL     1      -0.600   0.122  -0.843  0.00  0.00    -0.021 A 
ATOM     24  C   UNL     1      -0.122  -1.173  -0.783  0.00  0.00    +0.005 A 
ATOM     25  C   UNL     1       0.140  -1.757   0.443  0.00  0.00    +0.003 A 
ATOM     26  C   UNL     1      -0.075  -1.045   1.607  0.00  0.00    +0.033 A 
ATOM     27  C   UNL     1      -0.550   0.252   1.547  0.00  0.00    +0.129 A 
BRANCH  27  28
ATOM     28  N   UNL     1      -0.776   1.017   2.794  0.00  0.00    +0.057 N 
ATOM     29  O   UNL     1      -0.525   2.199   2.833  0.00  0.00    -0.126 OA
ATOM     30  O   UNL     1      -1.211   0.459   3.774  0.00  0.00    -0.126 OA
ENDBRANCH  27  28
ENDBRANCH  20  23
ENDBRANCH  17  20
ENDBRANCH   1  17
TORSDOF 6
