REMARK  Name = ZINC36089848
REMARK  6 active torsions:
REMARK  status: ('A' for Active; 'I' for Inactive)
REMARK    1  A    between atoms: C_1  and  O_2
REMARK    2  A    between atoms: O_2  and  C_3
REMARK    3  A    between atoms: C_10  and  C_29
REMARK    4  A    between atoms: C_12  and  C_20
REMARK    5  A    between atoms: C_24  and  N_26
REMARK    6  A    between atoms: C_29  and  C_31
REMARK                            x       y       z     vdW  Elec       q    Type
REMARK                         _______ _______ _______ _____ _____    ______ ____
ROOT
ATOM      1  C   UNL     1       0.726  -0.546  -1.198  0.00  0.00    +0.121 A 
ATOM      2  C   UNL     1       1.351   0.180  -2.201  0.00  0.00    +0.047 A 
ATOM      3  C   UNL     1       1.980  -0.470  -3.242  0.00  0.00    +0.027 A 
ATOM      4  C   UNL     1       1.994  -1.863  -3.293  0.00  0.00    +0.039 A 
ATOM      5  C   UNL     1       1.364  -2.582  -2.284  0.00  0.00    +0.007 A 
ATOM      6  C   UNL     1       0.740  -1.934  -1.242  0.00  0.00    +0.053 A 
ATOM      7  C   UNL     1       1.554  -4.036  -2.627  0.00  0.00    +0.137 C 
ATOM      8  C   UNL     1       2.326  -4.763  -1.522  0.00  0.00    +0.103 C 
ATOM      9  C   UNL     1       1.256  -5.612  -0.799  0.00  0.00    +0.049 C 
ATOM     10  C   UNL     1       0.195  -5.857  -1.883  0.00  0.00    +0.066 C 
ATOM     11  N   UNL     1       0.261  -4.708  -2.813  0.00  0.00    -0.281 NA
ATOM     12  C   UNL     1      -0.830  -3.784  -2.408  0.00  0.00    +0.086 C 
ATOM     13  C   UNL     1      -1.970  -4.725  -1.953  0.00  0.00    +0.017 C 
ATOM     14  C   UNL     1      -1.207  -5.898  -1.259  0.00  0.00    +0.021 C 
ATOM     15  C   UNL     1       2.344  -4.026  -3.912  0.00  0.00    +0.243 C 
ATOM     16  O   UNL     1       2.717  -4.995  -4.539  0.00  0.00    -0.273 OA
ATOM     17  N   UNL     1       2.557  -2.736  -4.229  0.00  0.00    -0.283 N 
ATOM     18  H   UNL     1       3.044  -2.445  -5.016  0.00  0.00    +0.155 HD
ENDROOT
BRANCH   9  19
ATOM     19  C   UNL     1       1.846  -6.916  -0.327  0.00  0.00    -0.040 A 
ATOM     20  C   UNL     1       2.422  -7.784  -1.235  0.00  0.00    +0.004 A 
ATOM     21  C   UNL     1       2.963  -8.980  -0.801  0.00  0.00    +0.002 A 
ATOM     22  C   UNL     1       2.928  -9.307   0.541  0.00  0.00    +0.033 A 
ATOM     23  C   UNL     1       2.352  -8.439   1.450  0.00  0.00    +0.126 A 
ATOM     24  C   UNL     1       1.815  -7.241   1.016  0.00  0.00    +0.036 A 
BRANCH  23  25
ATOM     25  N   UNL     1       2.314  -8.790   2.887  0.00  0.00    +0.056 N 
ATOM     26  O   UNL     1       2.786  -9.837   3.267  0.00  0.00    -0.126 OA
ATOM     27  O   UNL     1       1.811  -8.031   3.682  0.00  0.00    -0.126 OA
ENDBRANCH  23  25
ENDBRANCH   9  19
BRANCH   1  29
ATOM     28  C   UNL     1       0.134   1.526  -0.194  0.00  0.00    +0.277 C 
ATOM     29  O   UNL     1       0.107   0.098  -0.173  0.00  0.00    -0.495 OA
ENDBRANCH   1  29
BRANCH   8  30
ATOM     30  C   UNL     1       2.943  -3.769  -0.571  0.00  0.00    +0.171 C 
ATOM     31  O   UNL     1       2.345  -3.435   0.429  0.00  0.00    -0.292 OA
BRANCH  30  32
ATOM     32  C   UNL     1       4.272  -3.206  -0.856  0.00  0.00    +0.036 A 
ATOM     33  C   UNL     1       4.861  -2.285   0.024  0.00  0.00    +0.014 A 
ATOM     34  C   UNL     1       6.112  -1.786  -0.291  0.00  0.00    +0.020 A 
ATOM     35  C   UNL     1       6.737  -2.206  -1.452  0.00  0.00    +0.111 A 
ATOM     36  N   UNL     1       6.160  -3.074  -2.262  0.00  0.00    -0.263 NA
ATOM     37  C   UNL     1       4.973  -3.583  -2.005  0.00  0.00    +0.122 A 
ENDBRANCH  30  32
ENDBRANCH   8  30
TORSDOF 5
