REMARK  Name = ZINC39535620
REMARK  9 active torsions:
REMARK  status: ('A' for Active; 'I' for Inactive)
REMARK    1  A    between atoms: C_1  and  C_2
REMARK    2  A    between atoms: C_5  and  S_8
REMARK    3  A    between atoms: S_8  and  N_11
REMARK    4  A    between atoms: N_11  and  C_12
REMARK    5  A    between atoms: N_11  and  C_13
REMARK    6  A    between atoms: C_13  and  C_14
REMARK    7  A    between atoms: N_16  and  C_17
REMARK    8  A    between atoms: C_17  and  C_19
REMARK    9  A    between atoms: C_17  and  C_25
REMARK                            x       y       z     vdW  Elec       q    Type
REMARK                         _______ _______ _______ _____ _____    ______ ____
ROOT
ATOM      1  C   UNL     1       3.089  -3.942  -1.678  0.00  0.00    +0.230 C 
ATOM      2  O   UNL     1       3.042  -2.974  -0.950  0.00  0.00    -0.274 OA
ATOM      3  N   UNL     1       3.805  -3.894  -2.819  0.00  0.00    -0.300 N 
ATOM      4  H   UNL     1       3.843  -4.668  -3.401  0.00  0.00    +0.150 HD
ENDROOT
BRANCH   1   5
ATOM      5  C   UNL     1       2.346  -5.200  -1.308  0.00  0.00    +0.204 C 
BRANCH   5   6
ATOM      6  N   UNL     1       1.651  -4.999  -0.034  0.00  0.00    -0.171 NA
ATOM      7  C   UNL     1       2.360  -5.214   1.229  0.00  0.00    +0.132 C 
BRANCH   6   8
ATOM      8  S   UNL     1       0.063  -4.530  -0.023  0.00  0.00    +0.061 S 
ATOM      9  O   UNL     1      -0.476  -4.950   1.223  0.00  0.00    -0.153 OA
ATOM     10  O   UNL     1      -0.490  -4.937  -1.267  0.00  0.00    -0.153 OA
BRANCH   8  15
ATOM     11  C   UNL     1      -0.018   1.503   0.010  0.00  0.00    +0.044 C 
ATOM     12  C   UNL     1       0.002  -0.004   0.002  0.00  0.00    -0.050 A 
ATOM     13  C   UNL     1       0.006  -0.689  -1.199  0.00  0.00    +0.005 A 
ATOM     14  C   UNL     1       0.025  -2.071  -1.206  0.00  0.00    +0.029 A 
ATOM     15  C   UNL     1       0.040  -2.768  -0.013  0.00  0.00    +0.105 A 
ATOM     16  C   UNL     1       0.037  -2.084   1.188  0.00  0.00    +0.029 A 
ATOM     17  C   UNL     1       0.023  -0.702   1.195  0.00  0.00    +0.005 A 
ENDBRANCH   8  15
ENDBRANCH   6   8
ENDBRANCH   5   6
ENDBRANCH   1   5
BRANCH   3  18
ATOM     18  C   UNL     1       4.527  -2.671  -3.179  0.00  0.00    +0.169 C 
BRANCH  18  19
ATOM     19  C   UNL     1       4.715  -2.620  -4.673  0.00  0.00    +0.131 A 
ATOM     20  C   UNL     1       4.605  -1.515  -5.423  0.00  0.00    +0.055 A 
ATOM     21  C   UNL     1       4.867  -1.931  -6.806  0.00  0.00    +0.020 A 
ATOM     22  C   UNL     1       4.904  -1.270  -8.033  0.00  0.00    +0.011 A 
ATOM     23  C   UNL     1       5.188  -1.970  -9.172  0.00  0.00    +0.001 A 
ATOM     24  C   UNL     1       5.438  -3.334  -9.115  0.00  0.00    +0.004 A 
ATOM     25  C   UNL     1       5.406  -4.005  -7.911  0.00  0.00    +0.047 A 
ATOM     26  C   UNL     1       5.120  -3.312  -6.741  0.00  0.00    +0.135 A 
ATOM     27  O   UNL     1       5.023  -3.676  -5.447  0.00  0.00    -0.457 OA
ENDBRANCH  18  19
BRANCH  18  28
ATOM     28  C   UNL     1       5.874  -2.665  -2.503  0.00  0.00    -0.020 A 
ATOM     29  C   UNL     1       6.611  -3.832  -2.421  0.00  0.00    +0.006 A 
ATOM     30  C   UNL     1       7.847  -3.826  -1.800  0.00  0.00    +0.000 A 
ATOM     31  C   UNL     1       8.345  -2.654  -1.263  0.00  0.00    +0.000 A 
ATOM     32  C   UNL     1       7.609  -1.488  -1.346  0.00  0.00    +0.000 A 
ATOM     33  C   UNL     1       6.375  -1.492  -1.970  0.00  0.00    +0.006 A 
ENDBRANCH  18  28
ENDBRANCH   3  18
TORSDOF 7
