REMARK  Name = ZINC08765368
REMARK  8 active torsions:
REMARK  status: ('A' for Active; 'I' for Inactive)
REMARK    1  A    between atoms: C_1  and  C_2
REMARK    2  A    between atoms: C_3  and  O_19
REMARK    3  A    between atoms: C_12  and  C_13
REMARK    4  A    between atoms: O_19  and  C_20
REMARK    5  A    between atoms: C_20  and  C_21
REMARK    6  A    between atoms: N_23  and  C_24
REMARK    7  A    between atoms: C_24  and  C_25
REMARK    8  A    between atoms: C_25  and  C_26
REMARK                            x       y       z     vdW  Elec       q    Type
REMARK                         _______ _______ _______ _____ _____    ______ ____
ROOT
ATOM      1  C   UNL     1      -0.018   1.503   0.010  0.00  0.00    +0.051 C 
ATOM      2  C   UNL     1       0.002  -0.004   0.002  0.00  0.00    +0.034 A 
ATOM      3  C   UNL     1       0.006  -0.692  -1.200  0.00  0.00    +0.128 A 
ATOM      4  C   UNL     1       0.025  -2.085  -1.218  0.00  0.00    +0.047 A 
ATOM      5  C   UNL     1       0.040  -2.790  -0.049  0.00  0.00    +0.016 A 
ATOM      6  C   UNL     1       0.037  -2.111   1.172  0.00  0.00    +0.026 A 
ATOM      7  C   UNL     1       0.023  -0.706   1.198  0.00  0.00    +0.146 A 
ATOM      8  O   UNL     1       0.024  -0.052   2.380  0.00  0.00    -0.422 OA
ATOM      9  C   UNL     1       0.044  -0.706   3.552  0.00  0.00    +0.338 A 
ATOM     10  O   UNL     1       0.044  -0.064   4.588  0.00  0.00    -0.245 OA
ATOM     11  C   UNL     1       0.064  -2.109   3.617  0.00  0.00    +0.101 A 
ATOM     12  C   UNL     1       0.053  -2.846   2.448  0.00  0.00    -0.000 A 
ENDROOT
BRANCH  12  13
ATOM     13  C   UNL     1       0.073  -4.325   2.477  0.00  0.00    -0.017 A 
ATOM     14  C   UNL     1       1.177  -5.021   1.981  0.00  0.00    +0.008 A 
ATOM     15  C   UNL     1       1.189  -6.400   2.012  0.00  0.00    +0.001 A 
ATOM     16  C   UNL     1       0.111  -7.093   2.533  0.00  0.00    +0.000 A 
ATOM     17  C   UNL     1      -0.986  -6.410   3.026  0.00  0.00    +0.001 A 
ATOM     18  C   UNL     1      -1.009  -5.030   3.006  0.00  0.00    +0.008 A 
ENDBRANCH  12  13
BRANCH   3  19
ATOM     19  O   UNL     1      -0.010  -0.004  -2.370  0.00  0.00    -0.482 OA
BRANCH  19  20
ATOM     20  C   UNL     1      -0.005  -0.773  -3.575  0.00  0.00    +0.324 C 
BRANCH  20  21
ATOM     21  C   UNL     1      -0.024   0.155  -4.763  0.00  0.00    +0.251 C 
ATOM     22  O   UNL     1      -0.041   1.356  -4.594  0.00  0.00    -0.272 OA
ATOM     23  N   UNL     1      -0.023  -0.350  -6.012  0.00  0.00    -0.312 N 
ATOM     24  H   UNL     1      -0.010  -1.310  -6.147  0.00  0.00    +0.149 HD
BRANCH  23  25
ATOM     25  C   UNL     1      -0.042   0.552  -7.167  0.00  0.00    +0.110 C 
BRANCH  25  26
ATOM     26  C   UNL     1      -0.037  -0.271  -8.457  0.00  0.00    +0.073 C 
BRANCH  26  27
ATOM     27  C   UNL     1      -0.056   0.656  -9.644  0.00  0.00    +0.035 A 
ATOM     28  C   UNL     1      -1.152   1.208 -10.200  0.00  0.00    +0.105 A 
ATOM     29  N   UNL     1      -0.720   1.978 -11.247  0.00  0.00    -0.352 N 
ATOM     30  H   UNL     1      -1.277   2.502 -11.843  0.00  0.00    +0.166 HD
ATOM     31  C   UNL     1       0.625   1.870 -11.293  0.00  0.00    +0.171 A 
ATOM     32  N   UNL     1       1.016   1.083 -10.329  0.00  0.00    -0.350 N 
ATOM     33  H   UNL     1       1.936   0.842 -10.139  0.00  0.00    +0.166 HD
ENDBRANCH  26  27
ENDBRANCH  25  26
ENDBRANCH  23  25
ENDBRANCH  20  21
ENDBRANCH  19  20
ENDBRANCH   3  19
TORSDOF 7
