REMARK  Name = ZINC40800687
REMARK  6 active torsions:
REMARK  status: ('A' for Active; 'I' for Inactive)
REMARK    1  A    between atoms: C_1  and  O_2
REMARK    2  A    between atoms: O_2  and  C_3
REMARK    3  A    between atoms: C_3  and  C_5
REMARK    4  A    between atoms: C_12  and  N_25
REMARK    5  A    between atoms: C_13  and  O_17
REMARK    6  A    between atoms: O_17  and  C_18
REMARK                            x       y       z     vdW  Elec       q    Type
REMARK                         _______ _______ _______ _____ _____    ______ ____
ROOT
ATOM      1  C   UNL     1       0.105  -3.245  -0.265  0.00  0.00    +0.101 C 
ATOM      2  C   UNL     1       0.096  -4.763  -0.457  0.00  0.00    +0.033 C 
ATOM      3  C   UNL     1      -1.339  -5.282  -0.330  0.00  0.00    +0.107 C 
ATOM      4  N   UNL     1      -1.892  -4.833   0.955  0.00  0.00    -0.314 N 
ATOM      5  C   UNL     1      -1.851  -3.401   1.280  0.00  0.00    +0.107 C 
ATOM      6  C   UNL     1      -0.410  -2.904   1.135  0.00  0.00    +0.033 C 
ATOM      7  C   UNL     1      -2.444  -5.746   1.846  0.00  0.00    +0.149 A 
ATOM      8  C   UNL     1      -3.820  -5.991   1.850  0.00  0.00    +0.128 A 
ATOM      9  C   UNL     1      -4.321  -6.917   2.763  0.00  0.00    +0.246 A 
ATOM     10  N   UNL     1      -3.478  -7.527   3.591  0.00  0.00    -0.199 NA
ATOM     11  C   UNL     1      -2.187  -7.267   3.556  0.00  0.00    +0.227 A 
ATOM     12  N   UNL     1      -1.670  -6.404   2.705  0.00  0.00    -0.219 NA
ENDROOT
BRANCH   8  13
ATOM     13  N   UNL     1      -4.674  -5.324   0.958  0.00  0.00    -0.351 N 
ATOM     14  H   UNL     1      -4.304  -4.739   0.278  0.00  0.00    +0.143 HD
ATOM     15  H   UNL     1      -5.634  -5.448   1.021  0.00  0.00    +0.143 HD
ENDBRANCH   8  13
BRANCH   1  16
ATOM     16  C   UNL     1       1.511  -2.727  -0.423  0.00  0.00    +0.310 C 
ATOM     17  O   UNL     1       2.047  -2.145   0.490  0.00  0.00    -0.251 OA
BRANCH  16  19
ATOM     18  C   UNL     1       3.499  -2.396  -1.658  0.00  0.00    +0.280 C 
ATOM     19  O   UNL     1       2.169  -2.913  -1.578  0.00  0.00    -0.468 OA
ENDBRANCH  16  19
ENDBRANCH   1  16
BRANCH   9  20
ATOM     20  O   UNL     1      -5.649  -7.191   2.808  0.00  0.00    -0.436 OA
BRANCH  20  21
ATOM     21  C   UNL     1      -6.099  -8.007   3.797  0.00  0.00    +0.130 A 
ATOM     22  C   UNL     1      -6.130  -7.557   5.109  0.00  0.00    +0.047 A 
ATOM     23  C   UNL     1      -6.589  -8.389   6.112  0.00  0.00    +0.019 A 
ATOM     24  C   UNL     1      -7.016  -9.669   5.809  0.00  0.00    +0.018 A 
ATOM     25  C   UNL     1      -6.986 -10.120   4.502  0.00  0.00    +0.019 A 
ATOM     26  C   UNL     1      -6.533  -9.290   3.495  0.00  0.00    +0.047 A 
ATOM     27 BR   UNL     1      -7.643 -10.805   7.185  0.00  0.00    -0.050 Br
ENDBRANCH  20  21
ENDBRANCH   9  20
TORSDOF 5
