REMARK  Name = ZINC40124139
REMARK  9 active torsions:
REMARK  status: ('A' for Active; 'I' for Inactive)
REMARK    1  A    between atoms: C_1  and  C_2
REMARK    2  A    between atoms: C_2  and  C_3
REMARK    3  A    between atoms: C_3  and  C_4
REMARK    4  A    between atoms: C_4  and  O_5
REMARK    5  A    between atoms: O_5  and  C_6
REMARK    6  A    between atoms: C_9  and  C_13
REMARK    7  A    between atoms: C_11  and  C_12
REMARK    8  A    between atoms: C_13  and  C_15
REMARK    9  A    between atoms: C_20  and  C_22
REMARK                            x       y       z     vdW  Elec       q    Type
REMARK                         _______ _______ _______ _____ _____    ______ ____
ROOT
ATOM      1  C   UNL     1      -2.251  -8.938  -0.137  0.00  0.00    +0.076 C 
ATOM      2  C   UNL     1      -1.942  -9.930   0.730  0.00  0.00    +0.249 C 
ATOM      3  C   UNL     1      -0.722 -10.621   0.264  0.00  0.00    +0.285 C 
ATOM      4  O   UNL     1      -0.192 -11.557   0.829  0.00  0.00    -0.267 OA
ATOM      5  N   UNL     1      -0.284 -10.059  -0.878  0.00  0.00    -0.298 N 
ATOM      6  C   UNL     1      -1.204  -8.970  -1.226  0.00  0.00    +0.144 C 
ATOM      7  O   UNL     1      -2.641 -10.241   1.847  0.00  0.00    -0.282 OA
ATOM      8  H   UNL     1       0.498 -10.330  -1.384  0.00  0.00    +0.150 HD
ENDROOT
BRANCH   6   9
ATOM      9  C   UNL     1      -1.851  -9.239  -2.560  0.00  0.00    +0.014 A 
ATOM     10  C   UNL     1      -2.340 -10.500  -2.849  0.00  0.00    +0.048 A 
ATOM     11  C   UNL     1      -2.934 -10.748  -4.074  0.00  0.00    +0.020 A 
ATOM     12  C   UNL     1      -3.038  -9.735  -5.009  0.00  0.00    +0.003 A 
ATOM     13  C   UNL     1      -2.549  -8.475  -4.721  0.00  0.00    +0.020 A 
ATOM     14  C   UNL     1      -1.960  -8.225  -3.494  0.00  0.00    +0.048 A 
ATOM     15 CL   UNL     1      -1.353  -6.640  -3.129  0.00  0.00    -0.083 Cl
ATOM     16 CL   UNL     1      -2.209 -11.773  -1.675  0.00  0.00    -0.083 Cl
ENDBRANCH   6   9
BRANCH   1  17
ATOM     17  C   UNL     1      -3.386  -8.015  -0.042  0.00  0.00    +0.195 C 
ATOM     18  O   UNL     1      -4.523  -8.435  -0.155  0.00  0.00    -0.287 OA
BRANCH  17  22
ATOM     19  C   UNL     1      -2.708  -3.876   0.624  0.00  0.00    +0.123 A 
ATOM     20  C   UNL     1      -1.640  -4.767   0.649  0.00  0.00    +0.046 A 
ATOM     21  C   UNL     1      -1.856  -6.109   0.434  0.00  0.00    +0.015 A 
ATOM     22  C   UNL     1      -3.151  -6.577   0.190  0.00  0.00    +0.023 A 
ATOM     23  C   UNL     1      -4.221  -5.678   0.166  0.00  0.00    +0.018 A 
ATOM     24  C   UNL     1      -3.998  -4.338   0.388  0.00  0.00    -0.008 A 
ATOM     25  C   UNL     1      -5.152  -3.369   0.367  0.00  0.00    +0.047 C 
BRANCH  19  26
ATOM     26  O   UNL     1      -2.491  -2.554   0.838  0.00  0.00    -0.492 OA
BRANCH  26  27
ATOM     27  C   UNL     1      -1.142  -2.147   1.075  0.00  0.00    +0.229 C 
BRANCH  27  28
ATOM     28  C   UNL     1      -1.096  -0.633   1.292  0.00  0.00    +0.041 C 
BRANCH  28  30
ATOM     29  C   UNL     1       0.395   1.315   1.763  0.00  0.00    +0.004 C 
ATOM     30  C   UNL     1       0.349  -0.199   1.546  0.00  0.00    -0.000 C 
ENDBRANCH  28  30
ENDBRANCH  27  28
ENDBRANCH  26  27
ENDBRANCH  19  26
ENDBRANCH  17  22
ENDBRANCH   1  17
TORSDOF 7
