REMARK  Name = ZINC14562733
REMARK  11 active torsions:
REMARK  status: ('A' for Active; 'I' for Inactive)
REMARK    1  A    between atoms: C_1  and  C_2
REMARK    2  A    between atoms: C_5  and  N_9
REMARK    3  A    between atoms: C_6  and  C_8
REMARK    4  A    between atoms: N_9  and  S_10
REMARK    5  A    between atoms: S_10  and  C_13
REMARK    6  A    between atoms: C_16  and  N_19
REMARK    7  A    between atoms: N_19  and  C_20
REMARK    8  A    between atoms: C_20  and  N_22
REMARK    9  A    between atoms: C_23  and  C_25
REMARK   10  A    between atoms: C_25  and  C_26
REMARK   11  A    between atoms: C_31  and  C_32
REMARK                            x       y       z     vdW  Elec       q    Type
REMARK                         _______ _______ _______ _____ _____    ______ ____
ROOT
ATOM      1  C   UNL     1       1.530   2.842   1.294  0.00  0.00    +0.109 A 
ATOM      2  C   UNL     1       0.702   3.947   1.369  0.00  0.00    +0.030 A 
ATOM      3  C   UNL     1       0.781   4.799   2.454  0.00  0.00    +0.025 A 
ATOM      4  C   UNL     1       1.700   4.550   3.465  0.00  0.00    +0.033 A 
ATOM      5  C   UNL     1       2.534   3.442   3.383  0.00  0.00    +0.025 A 
ATOM      6  C   UNL     1       2.446   2.592   2.299  0.00  0.00    +0.030 A 
ENDROOT
BRANCH   1   7
ATOM      7  S   UNL     1       1.422   1.756  -0.089  0.00  0.00    +0.072 S 
ATOM      8  O   UNL     1       2.681   1.105  -0.193  0.00  0.00    -0.150 OA
ATOM      9  O   UNL     1       0.864   2.510  -1.156  0.00  0.00    -0.150 OA
BRANCH   7  10
ATOM     10  N   UNL     1       0.314   0.586   0.293  0.00  0.00    -0.216 N 
ATOM     11  H   UNL     1       0.582  -0.346   0.318  0.00  0.00    +0.174 HD
BRANCH  10  16
ATOM     12  C   UNL     1      -5.051   2.023   1.436  0.00  0.00    +0.044 C 
ATOM     13  C   UNL     1      -3.625   1.642   1.133  0.00  0.00    -0.050 A 
ATOM     14  C   UNL     1      -2.913   2.340   0.175  0.00  0.00    +0.005 A 
ATOM     15  C   UNL     1      -1.606   1.992  -0.106  0.00  0.00    +0.025 A 
ATOM     16  C   UNL     1      -1.007   0.940   0.576  0.00  0.00    +0.051 A 
ATOM     17  C   UNL     1      -1.727   0.238   1.534  0.00  0.00    -0.028 A 
ATOM     18  C   UNL     1      -3.032   0.594   1.813  0.00  0.00    +0.008 A 
ATOM     19  C   UNL     1      -1.083  -0.908   2.271  0.00  0.00    +0.046 C 
ENDBRANCH  10  16
ENDBRANCH   7  10
ENDBRANCH   1   7
BRANCH   4  20
ATOM     20  N   UNL     1       1.786   5.413   4.562  0.00  0.00    -0.297 N 
ATOM     21  H   UNL     1       0.978   5.715   5.006  0.00  0.00    +0.154 HD
BRANCH  20  22
ATOM     22  C   UNL     1       2.991   5.824   5.003  0.00  0.00    +0.141 C 
ATOM     23  S   UNL     1       4.420   5.205   4.292  0.00  0.00    -0.018 S 
BRANCH  22  24
ATOM     24  N   UNL     1       3.071   6.724   6.003  0.00  0.00    -0.267 N 
ATOM     25  C   UNL     1       4.276   7.136   6.444  0.00  0.00    +0.223 C 
ATOM     26  O   UNL     1       5.288   6.697   5.941  0.00  0.00    -0.275 OA
ATOM     27  H   UNL     1       2.261   7.075   6.406  0.00  0.00    +0.157 HD
BRANCH  25  28
ATOM     28  C   UNL     1       4.366   8.142   7.563  0.00  0.00    +0.131 C 
BRANCH  28  29
ATOM     29  C   UNL     1       5.814   8.431   7.864  0.00  0.00    -0.036 A 
ATOM     30  C   UNL     1       6.459   7.747   8.877  0.00  0.00    +0.004 A 
ATOM     31  C   UNL     1       7.789   8.008   9.150  0.00  0.00    +0.000 A 
ATOM     32  C   UNL     1       8.470   8.961   8.416  0.00  0.00    +0.000 A 
ATOM     33  C   UNL     1       7.824   9.649   7.407  0.00  0.00    +0.003 A 
ATOM     34  C   UNL     1       6.495   9.383   7.130  0.00  0.00    -0.047 A 
ATOM     35  C   UNL     1       5.790  10.133   6.030  0.00  0.00    +0.044 C 
ENDBRANCH  28  29
ENDBRANCH  25  28
ENDBRANCH  22  24
ENDBRANCH  20  22
ENDBRANCH   4  20
TORSDOF 8
