REMARK  Name = ZINC64679269
REMARK  7 active torsions:
REMARK  status: ('A' for Active; 'I' for Inactive)
REMARK    1  A    between atoms: C_1  and  C_2
REMARK    2  A    between atoms: C_4  and  C_14
REMARK    3  A    between atoms: C_18  and  O_28
REMARK    4  A    between atoms: C_19  and  O_20
REMARK    5  A    between atoms: O_20  and  C_21
REMARK    6  A    between atoms: C_21  and  C_22
REMARK    7  A    between atoms: O_28  and  C_29
REMARK                            x       y       z     vdW  Elec       q    Type
REMARK                         _______ _______ _______ _____ _____    ______ ____
ROOT
ATOM      1  C   UNL     1      -3.325  -1.014  -0.958  0.00  0.00    +0.006 A 
ATOM      2  C   UNL     1      -3.294  -2.361  -1.272  0.00  0.00    +0.008 A 
ATOM      3  C   UNL     1      -4.024  -2.841  -2.343  0.00  0.00    +0.004 A 
ATOM      4  C   UNL     1      -4.787  -1.976  -3.107  0.00  0.00    +0.049 A 
ATOM      5  C   UNL     1      -4.822  -0.627  -2.798  0.00  0.00    +0.162 A 
ATOM      6  C   UNL     1      -4.092  -0.144  -1.715  0.00  0.00    +0.166 A 
ENDROOT
BRANCH   1  10
ATOM      7  C   UNL     1      -0.018   1.503   0.010  0.00  0.00    +0.067 C 
ATOM      8  C   UNL     1       0.002  -0.004   0.002  0.00  0.00    +0.064 C 
ATOM      9  C   UNL     1      -1.065  -0.770   0.003  0.00  0.00    +0.005 C 
ATOM     10  C   UNL     1      -2.528  -0.495   0.210  0.00  0.00    +0.063 C 
ATOM     11  C   UNL     1      -2.921  -1.241   1.496  0.00  0.00    +0.108 C 
ATOM     12  C   UNL     1      -2.203  -2.545   1.627  0.00  0.00    +0.216 C 
ATOM     13  O   UNL     1      -2.689  -3.345   2.397  0.00  0.00    -0.276 OA
ATOM     14  N   UNL     1      -1.092  -2.937   1.000  0.00  0.00    -0.289 N 
ATOM     15  C   UNL     1      -0.526  -2.190  -0.116  0.00  0.00    +0.243 C 
ATOM     16  N   UNL     1       0.919  -1.987  -0.035  0.00  0.00    -0.160 NA
ATOM     17  N   UNL     1       1.127  -0.766  -0.013  0.00  0.00    -0.157 NA
ATOM     18  H   UNL     1      -0.646  -3.745   1.297  0.00  0.00    +0.151 HD
ENDBRANCH   1  10
BRANCH   5  19
ATOM     19  O   UNL     1      -5.572   0.225  -3.547  0.00  0.00    -0.491 OA
ATOM     20  C   UNL     1      -6.300  -0.342  -4.639  0.00  0.00    +0.277 C 
ENDBRANCH   5  19
BRANCH   6  21
ATOM     21  O   UNL     1      -4.128   1.179  -1.405  0.00  0.00    -0.483 OA
BRANCH  21  22
ATOM     22  C   UNL     1      -3.152   2.018  -2.026  0.00  0.00    +0.264 C 
BRANCH  22  23
ATOM     23  C   UNL     1      -3.345   3.440  -1.565  0.00  0.00    -0.010 A 
ATOM     24  C   UNL     1      -4.186   4.285  -2.265  0.00  0.00    +0.007 A 
ATOM     25  C   UNL     1      -4.363   5.589  -1.843  0.00  0.00    +0.000 A 
ATOM     26  C   UNL     1      -3.700   6.048  -0.720  0.00  0.00    +0.000 A 
ATOM     27  C   UNL     1      -2.859   5.203  -0.020  0.00  0.00    +0.000 A 
ATOM     28  C   UNL     1      -2.685   3.898  -0.440  0.00  0.00    +0.007 A 
ENDBRANCH  22  23
ENDBRANCH  21  22
ENDBRANCH   6  21
TORSDOF 5
