REMARK  Name = ZINC40780425
REMARK  6 active torsions:
REMARK  status: ('A' for Active; 'I' for Inactive)
REMARK    1  A    between atoms: C_1  and  O_2
REMARK    2  A    between atoms: O_2  and  C_3
REMARK    3  A    between atoms: C_6  and  O_9
REMARK    4  A    between atoms: O_9  and  C_10
REMARK    5  A    between atoms: C_11  and  N_26
REMARK    6  A    between atoms: C_12  and  N_16
REMARK                            x       y       z     vdW  Elec       q    Type
REMARK                         _______ _______ _______ _____ _____    ______ ____
ROOT
ATOM      1  C   UNL     1      -4.865  -3.920  -0.010  0.00  0.00    +0.246 A 
ATOM      2  C   UNL     1      -6.068  -4.615  -0.127  0.00  0.00    +0.128 A 
ATOM      3  C   UNL     1      -6.016  -6.000  -0.297  0.00  0.00    +0.153 A 
ATOM      4  N   UNL     1      -4.829  -6.600  -0.341  0.00  0.00    -0.218 NA
ATOM      5  C   UNL     1      -3.716  -5.905  -0.227  0.00  0.00    +0.227 A 
ATOM      6  N   UNL     1      -3.722  -4.597  -0.070  0.00  0.00    -0.199 NA
ENDROOT
BRANCH   3   7
ATOM      7  N   UNL     1      -7.187  -6.741  -0.419  0.00  0.00    -0.283 N 
ATOM      8  C   UNL     1      -7.810  -6.942  -1.734  0.00  0.00    +0.113 C 
ATOM      9  C   UNL     1      -9.319  -6.711  -1.577  0.00  0.00    +0.024 C 
ATOM     10  C   UNL     1      -9.883  -7.765  -0.625  0.00  0.00    +0.038 C 
ATOM     11  C   UNL     1      -9.082  -7.807   0.650  0.00  0.00    -0.026 A 
ATOM     12  C   UNL     1      -7.787  -7.313   0.709  0.00  0.00    +0.038 A 
ATOM     13  C   UNL     1      -7.070  -7.376   1.899  0.00  0.00    +0.024 A 
ATOM     14  C   UNL     1      -7.646  -7.934   3.024  0.00  0.00    +0.002 A 
ATOM     15  C   UNL     1      -8.935  -8.429   2.965  0.00  0.00    +0.000 A 
ATOM     16  C   UNL     1      -9.655  -8.358   1.783  0.00  0.00    +0.005 A 
ENDBRANCH   3   7
BRANCH   2  17
ATOM     17  N   UNL     1      -7.298  -3.941  -0.074  0.00  0.00    -0.351 N 
ATOM     18  H   UNL     1      -7.318  -2.971  -0.036  0.00  0.00    +0.143 HD
ATOM     19  H   UNL     1      -8.127  -4.444  -0.075  0.00  0.00    +0.143 HD
ENDBRANCH   2  17
BRANCH   1  20
ATOM     20  O   UNL     1      -4.860  -2.574   0.157  0.00  0.00    -0.436 OA
BRANCH  20  24
ATOM     21  C   UNL     1      -1.215  -0.637   0.188  0.00  0.00    +0.120 A 
ATOM     22  C   UNL     1      -1.766  -1.059  -1.013  0.00  0.00    +0.049 A 
ATOM     23  C   UNL     1      -2.985  -1.708  -1.023  0.00  0.00    +0.050 A 
ATOM     24  C   UNL     1      -3.660  -1.936   0.168  0.00  0.00    +0.131 A 
ATOM     25  C   UNL     1      -3.109  -1.513   1.369  0.00  0.00    +0.050 A 
ATOM     26  C   UNL     1      -1.887  -0.870   1.379  0.00  0.00    +0.049 A 
BRANCH  21  28
ATOM     27  C   UNL     1       0.621   0.208  -1.065  0.00  0.00    +0.277 C 
ATOM     28  O   UNL     1      -0.015   0.002   0.198  0.00  0.00    -0.495 OA
ENDBRANCH  21  28
ENDBRANCH  20  24
ENDBRANCH   1  20
TORSDOF 5
