REMARK  Name = ZINC43345693
REMARK  10 active torsions:
REMARK  status: ('A' for Active; 'I' for Inactive)
REMARK    1  A    between atoms: C_1  and  C_2
REMARK    2  A    between atoms: C_2  and  C_3
REMARK    3  A    between atoms: C_6  and  C_9
REMARK    4  A    between atoms: C_9  and  C_11
REMARK    5  A    between atoms: C_9  and  N_23
REMARK    6  A    between atoms: C_11  and  N_12
REMARK    7  A    between atoms: C_19  and  C_21
REMARK    8  A    between atoms: C_21  and  C_22
REMARK    9  A    between atoms: N_23  and  C_24
REMARK   10  A    between atoms: N_23  and  C_25
REMARK                            x       y       z     vdW  Elec       q    Type
REMARK                         _______ _______ _______ _____ _____    ______ ____
ROOT
ATOM      1  C   UNL     1       2.813  -3.416   4.771  0.00  0.00    +0.095 C 
ENDROOT
BRANCH   1   2
ATOM      2  N   UNL     1       3.397  -3.976   3.550  0.00  0.00    -0.300 N 
ATOM      3  C   UNL     1       3.409  -5.310   3.358  0.00  0.00    +0.305 C 
ATOM      4  O   UNL     1       2.936  -6.049   4.200  0.00  0.00    -0.252 OA
ATOM      5  N   UNL     1       3.945  -5.825   2.235  0.00  0.00    -0.247 N 
ATOM      6  C   UNL     1       3.958  -7.202   2.037  0.00  0.00    +0.189 A 
ATOM      7  N   UNL     1       3.495  -8.158   2.818  0.00  0.00    -0.126 NA
ATOM      8  N   UNL     1       3.579  -9.378   2.501  0.00  0.00    -0.145 NA
ATOM      9  C   UNL     1       4.145  -9.706   1.357  0.00  0.00    +0.103 A 
ATOM     10  S   UNL     1       4.562  -8.084   0.734  0.00  0.00    -0.035 S 
ATOM     11  H   UNL     1       3.774  -3.386   2.878  0.00  0.00    +0.150 HD
ATOM     12  H   UNL     1       4.323  -5.235   1.563  0.00  0.00    +0.158 HD
BRANCH   9  13
ATOM     13  C   UNL     1       4.371 -11.064   0.745  0.00  0.00    +0.061 C 
ATOM     14  C   UNL     1       3.167 -11.441  -0.120  0.00  0.00    +0.011 C 
ENDBRANCH   9  13
ENDBRANCH   1   2
BRANCH   1  15
ATOM     15  C   UNL     1       2.807  -1.889   4.680  0.00  0.00    -0.021 C 
BRANCH  15  19
ATOM     16  C   UNL     1       0.203  -0.664   1.523  0.00  0.00    -0.048 A 
ATOM     17  C   UNL     1       1.569  -0.704   1.316  0.00  0.00    +0.004 A 
ATOM     18  C   UNL     1       2.412  -1.100   2.338  0.00  0.00    +0.002 A 
ATOM     19  C   UNL     1       1.888  -1.456   3.567  0.00  0.00    -0.059 A 
ATOM     20  C   UNL     1       0.522  -1.415   3.774  0.00  0.00    +0.002 A 
ATOM     21  C   UNL     1      -0.320  -1.015   2.753  0.00  0.00    +0.004 A 
BRANCH  16  23
ATOM     22  C   UNL     1      -0.914   1.284   0.471  0.00  0.00    +0.009 C 
ATOM     23  C   UNL     1      -0.715  -0.232   0.409  0.00  0.00    +0.032 C 
ENDBRANCH  16  23
ENDBRANCH  15  19
BRANCH  15  24
ATOM     24  N   UNL     1       2.335  -1.325   5.952  0.00  0.00    +0.382 N 
ATOM     25  C   UNL     1       3.240  -1.732   7.035  0.00  0.00    -0.096 C 
ATOM     26  C   UNL     1       2.312   0.141   5.858  0.00  0.00    -0.096 C 
ATOM     27  H   UNL     1       1.404  -1.664   6.146  0.00  0.00    -0.082 HD
ENDBRANCH  15  24
ENDBRANCH   1  15
TORSDOF 6
