REMARK  Name = ZINC09533363
REMARK  6 active torsions:
REMARK  status: ('A' for Active; 'I' for Inactive)
REMARK    1  A    between atoms: C_1  and  C_2
REMARK    2  A    between atoms: N_13  and  C_29
REMARK    3  A    between atoms: C_14  and  S_16
REMARK    4  A    between atoms: S_16  and  C_17
REMARK    5  A    between atoms: C_17  and  C_18
REMARK    6  A    between atoms: C_29  and  C_30
REMARK                            x       y       z     vdW  Elec       q    Type
REMARK                         _______ _______ _______ _____ _____    ______ ____
ROOT
ATOM      1  C   UNL     1     -10.310  11.117   0.079  0.00  0.00    +0.008 C 
ATOM      2  C   UNL     1      -9.492   9.861  -0.226  0.00  0.00    -0.009 C 
ATOM      3  C   UNL     1     -10.014   8.688   0.609  0.00  0.00    +0.008 C 
ATOM      4  C   UNL     1      -9.372   7.385   0.132  0.00  0.00    +0.037 C 
ATOM      5  C   UNL     1      -7.856   7.559   0.117  0.00  0.00    -0.023 A 
ATOM      6  C   UNL     1      -7.303   8.789   0.120  0.00  0.00    -0.004 A 
ATOM      7  S   UNL     1      -5.553   8.508   0.101  0.00  0.00    -0.073 S 
ATOM      8  C   UNL     1      -5.569   6.733   0.091  0.00  0.00    +0.117 A 
ATOM      9  C   UNL     1      -6.938   6.419   0.102  0.00  0.00    +0.076 A 
ATOM     10  C   UNL     1      -7.257   5.024   0.097  0.00  0.00    +0.264 A 
ATOM     11  O   UNL     1      -8.419   4.656   0.105  0.00  0.00    -0.267 OA
ATOM     12  N   UNL     1      -6.257   4.124   0.078  0.00  0.00    -0.280 N 
ATOM     13  C   UNL     1      -4.950   4.518   0.073  0.00  0.00    +0.173 A 
ATOM     14  N   UNL     1      -4.628   5.796   0.077  0.00  0.00    -0.216 NA
ATOM     15  C   UNL     1      -8.019  10.105   0.135  0.00  0.00    +0.046 C 
ENDROOT
BRANCH  13  16
ATOM     16  S   UNL     1      -3.676   3.301   0.054  0.00  0.00    -0.080 S 
BRANCH  16  17
ATOM     17  C   UNL     1      -2.218   4.373   0.046  0.00  0.00    +0.151 C 
BRANCH  17  18
ATOM     18  C   UNL     1      -0.971   3.526   0.029  0.00  0.00    +0.121 A 
ATOM     19  N   UNL     1       0.235   4.152   0.021  0.00  0.00    -0.309 N 
ATOM     20  H   UNL     1       0.284   5.121   0.026  0.00  0.00    +0.170 HD
ATOM     21  C   UNL     1       1.368   3.409   0.007  0.00  0.00    +0.266 A 
ATOM     22  O   UNL     1       2.466   3.940  -0.000  0.00  0.00    -0.267 OA
ATOM     23  C   UNL     1       1.244   2.020   0.001  0.00  0.00    +0.102 A 
ATOM     24  C   UNL     1      -0.017   1.397   0.010  0.00  0.00    +0.085 A 
ATOM     25  N   UNL     1      -1.102   2.238   0.030  0.00  0.00    -0.232 NA
ATOM     26  C   UNL     1       0.002  -0.004   0.002  0.00  0.00    +0.036 A 
ATOM     27  C   UNL     1       1.178  -0.668  -0.013  0.00  0.00    +0.048 A 
ATOM     28  S   UNL     1       2.377   0.656  -0.017  0.00  0.00    -0.090 S 
ENDBRANCH  17  18
ENDBRANCH  16  17
ENDBRANCH  13  16
BRANCH  12  29
ATOM     29  C   UNL     1      -6.577   2.694   0.067  0.00  0.00    +0.201 C 
BRANCH  29  30
ATOM     30  C   UNL     1      -6.677   2.191   1.484  0.00  0.00    +0.125 A 
ATOM     31  C   UNL     1      -7.793   2.172   2.234  0.00  0.00    +0.046 A 
ATOM     32  C   UNL     1      -7.436   1.621   3.486  0.00  0.00    +0.041 A 
ATOM     33  C   UNL     1      -6.120   1.345   3.429  0.00  0.00    +0.195 A 
ATOM     34  O   UNL     1      -5.666   1.692   2.214  0.00  0.00    -0.466 OA
ENDBRANCH  29  30
ENDBRANCH  12  29
TORSDOF 5
