REMARK  Name = ZINC28053185
REMARK  2 active torsions:
REMARK  status: ('A' for Active; 'I' for Inactive)
REMARK    1  A    between atoms: C_4  and  C_7
REMARK    2  A    between atoms: C_18  and  C_20
REMARK                            x       y       z     vdW  Elec       q    Type
REMARK                         _______ _______ _______ _____ _____    ______ ____
ROOT
ATOM      1  C   UNL     1       4.737   1.071  -0.354  0.00  0.00    +0.174 C 
ATOM      2  C   UNL     1       3.425   1.814  -0.326  0.00  0.00    +0.025 C 
ATOM      3  C   UNL     1       2.281   1.230   0.039  0.00  0.00    +0.050 C 
ATOM      4  C   UNL     1       1.043   2.045   0.043  0.00  0.00    +0.038 A 
ATOM      5  C   UNL     1      -0.215   1.457   0.072  0.00  0.00    +0.013 A 
ATOM      6  C   UNL     1      -1.341   2.257   0.075  0.00  0.00    +0.001 A 
ATOM      7  C   UNL     1      -1.218   3.636   0.061  0.00  0.00    +0.004 A 
ATOM      8  C   UNL     1       0.030   4.230   0.030  0.00  0.00    +0.046 A 
ATOM      9  C   UNL     1       1.165   3.441   0.020  0.00  0.00    +0.131 A 
ATOM     10  O   UNL     1       2.409   3.984  -0.014  0.00  0.00    -0.479 OA
ATOM     11  C   UNL     1       3.411   3.269  -0.736  0.00  0.00    +0.234 C 
ATOM     12  N   UNL     1       2.218  -0.115   0.422  0.00  0.00    -0.282 N 
ATOM     13  C   UNL     1       3.416  -0.754   0.694  0.00  0.00    +0.240 A 
ATOM     14  N   UNL     1       4.607  -0.203   0.340  0.00  0.00    -0.201 N 
ATOM     15  N   UNL     1       5.577  -1.105   0.775  0.00  0.00    -0.042 NA
ATOM     16  N   UNL     1       4.944  -2.089   1.327  0.00  0.00    -0.021 NA
ATOM     17  N   UNL     1       3.672  -1.888   1.280  0.00  0.00    -0.092 NA
ATOM     18  H   UNL     1       1.243  -0.620   0.498  0.00  0.00    +0.155 HD
ENDROOT
BRANCH  11  19
ATOM     19  C   UNL     1       3.123   3.366  -2.212  0.00  0.00    -0.003 A 
ATOM     20  C   UNL     1       1.846   3.127  -2.685  0.00  0.00    +0.010 A 
ATOM     21  C   UNL     1       1.581   3.220  -4.038  0.00  0.00    +0.039 A 
ATOM     22  C   UNL     1       2.596   3.543  -4.921  0.00  0.00    +0.123 A 
ATOM     23  C   UNL     1       3.876   3.777  -4.448  0.00  0.00    +0.039 A 
ATOM     24  C   UNL     1       4.138   3.689  -3.094  0.00  0.00    +0.010 A 
ATOM     25  F   UNL     1       2.339   3.630  -6.245  0.00  0.00    -0.205 F 
ENDBRANCH  11  19
BRANCH   1  29
ATOM     26  C   UNL     1       5.876   0.362  -4.410  0.00  0.00    +0.000 A 
ATOM     27  C   UNL     1       6.692   1.113  -3.584  0.00  0.00    +0.000 A 
ATOM     28  C   UNL     1       6.323   1.342  -2.272  0.00  0.00    +0.006 A 
ATOM     29  C   UNL     1       5.139   0.821  -1.785  0.00  0.00    -0.019 A 
ATOM     30  C   UNL     1       4.326   0.066  -2.610  0.00  0.00    +0.006 A 
ATOM     31  C   UNL     1       4.692  -0.159  -3.923  0.00  0.00    +0.000 A 
ENDBRANCH   1  29
TORSDOF 2
