REMARK  Name = ZINC12517189
REMARK  12 active torsions:
REMARK  status: ('A' for Active; 'I' for Inactive)
REMARK    1  A    between atoms: C_1  and  C_2
REMARK    2  A    between atoms: C_2  and  C_4
REMARK    3  A    between atoms: C_2  and  N_63
REMARK    4  A    between atoms: C_7  and  S_16
REMARK    5  A    between atoms: N_8  and  C_9
REMARK    6  A    between atoms: S_16  and  C_17
REMARK    7  A    between atoms: C_17  and  C_18
REMARK    8  A    between atoms: N_20  and  C_21
REMARK    9  A    between atoms: C_26  and  C_27
REMARK   10  A    between atoms: C_27  and  C_28
REMARK   11  A    between atoms: C_34  and  N_63
REMARK   12  A    between atoms: C_35  and  N_63
REMARK                            x       y       z     vdW  Elec       q    Type
REMARK                         _______ _______ _______ _____ _____    ______ ____
ROOT
ATOM      1  S   UNL     1      -2.025   5.627   5.718  0.00  0.00    -0.076 S 
ENDROOT
BRANCH   1   5
ATOM      2  C   UNL     1      -1.476   3.513   2.482  0.00  0.00    +0.125 A 
ATOM      3  N   UNL     1      -2.591   3.029   2.951  0.00  0.00    -0.135 NA
ATOM      4  N   UNL     1      -2.911   3.630   4.041  0.00  0.00    -0.122 NA
ATOM      5  C   UNL     1      -2.014   4.545   4.327  0.00  0.00    +0.197 A 
ATOM      6  N   UNL     1      -1.068   4.500   3.339  0.00  0.00    -0.275 N 
BRANCH   6   7
ATOM      7  C   UNL     1       0.080   5.298   3.227  0.00  0.00    +0.050 A 
ATOM      8  C   UNL     1       1.339   4.722   3.322  0.00  0.00    +0.029 A 
ATOM      9  C   UNL     1       2.469   5.509   3.207  0.00  0.00    +0.040 A 
ATOM     10  C   UNL     1       2.345   6.874   3.007  0.00  0.00    +0.124 A 
ATOM     11  C   UNL     1       1.090   7.451   2.917  0.00  0.00    +0.040 A 
ATOM     12  C   UNL     1      -0.042   6.667   3.027  0.00  0.00    +0.029 A 
ATOM     13  F   UNL     1       3.451   7.643   2.900  0.00  0.00    -0.205 F 
ENDBRANCH   6   7
BRANCH   2  15
ATOM     14  C   UNL     1      -1.522   3.607   0.004  0.00  0.00    -0.005 C 
ATOM     15  C   UNL     1      -0.770   3.073   1.225  0.00  0.00    -0.003 C 
BRANCH  15  18
ATOM     16  C   UNL     1      -0.050   1.139  -0.041  0.00  0.00    -0.096 C 
ATOM     17  C   UNL     1      -0.100   1.052   2.378  0.00  0.00    -0.096 C 
ATOM     18  N   UNL     1      -0.760   1.596   1.172  0.00  0.00    +0.382 N 
ATOM     19  H   UNL     1      -1.728   1.256   1.140  0.00  0.00    -0.082 HD
ENDBRANCH  15  18
ENDBRANCH   2  15
ENDBRANCH   1   5
BRANCH   1  20
ATOM     20  C   UNL     1      -3.551   5.083   6.525  0.00  0.00    +0.173 C 
BRANCH  20  21
ATOM     21  C   UNL     1      -3.773   5.893   7.777  0.00  0.00    +0.227 C 
ATOM     22  O   UNL     1      -2.977   6.753   8.091  0.00  0.00    -0.275 OA
ATOM     23  N   UNL     1      -4.855   5.662   8.546  0.00  0.00    -0.285 N 
ATOM     24  H   UNL     1      -5.525   5.021   8.261  0.00  0.00    +0.155 HD
BRANCH  23  25
ATOM     25  C   UNL     1      -5.013   6.348   9.756  0.00  0.00    +0.037 A 
ATOM     26  C   UNL     1      -4.578   7.661   9.873  0.00  0.00    +0.023 A 
ATOM     27  C   UNL     1      -4.735   8.335  11.068  0.00  0.00    +0.002 A 
ATOM     28  C   UNL     1      -5.325   7.703  12.148  0.00  0.00    +0.000 A 
ATOM     29  C   UNL     1      -5.759   6.396  12.034  0.00  0.00    +0.006 A 
ATOM     30  C   UNL     1      -5.610   5.718  10.839  0.00  0.00    -0.022 A 
BRANCH  30  31
ATOM     31  C   UNL     1      -6.090   4.295  10.714  0.00  0.00    +0.072 C 
BRANCH  31  32
ATOM     32  C   UNL     1      -4.944   3.353  10.983  0.00  0.00    -0.043 A 
ATOM     33  C   UNL     1      -4.143   2.925   9.941  0.00  0.00    +0.004 A 
ATOM     34  C   UNL     1      -3.089   2.065  10.189  0.00  0.00    +0.000 A 
ATOM     35  C   UNL     1      -2.843   1.625  11.476  0.00  0.00    +0.000 A 
ATOM     36  C   UNL     1      -3.648   2.049  12.517  0.00  0.00    +0.000 A 
ATOM     37  C   UNL     1      -4.698   2.913  12.270  0.00  0.00    +0.004 A 
ENDBRANCH  31  32
ENDBRANCH  30  31
ENDBRANCH  23  25
ENDBRANCH  20  21
ENDBRANCH   1  20
TORSDOF 9
