REMARK  Name = ZINC54621379
REMARK  8 active torsions:
REMARK  status: ('A' for Active; 'I' for Inactive)
REMARK    1  A    between atoms: C_1  and  C_2
REMARK    2  A    between atoms: C_6  and  N_9
REMARK    3  A    between atoms: C_7  and  C_8
REMARK    4  A    between atoms: N_9  and  C_10
REMARK    5  A    between atoms: C_10  and  C_12
REMARK    6  A    between atoms: C_10  and  C_19
REMARK    7  A    between atoms: C_25  and  C_30
REMARK    8  A    between atoms: C_28  and  O_29
REMARK                            x       y       z     vdW  Elec       q    Type
REMARK                         _______ _______ _______ _____ _____    ______ ____
ROOT
ATOM      1  C   UNL     1       0.071  -4.261   2.379  0.00  0.00    +0.135 C 
ENDROOT
BRANCH   1   2
ATOM      2  C   UNL     1       0.794  -4.763   3.603  0.00  0.00    +0.021 A 
ATOM      3  C   UNL     1       0.763  -4.011   4.774  0.00  0.00    +0.010 A 
ATOM      4  C   UNL     1       1.406  -4.437   5.896  0.00  0.00    +0.010 A 
ATOM      5  C   UNL     1       2.111  -5.651   5.877  0.00  0.00    +0.004 A 
ATOM      6  C   UNL     1       2.788  -6.124   7.017  0.00  0.00    +0.012 A 
ATOM      7  C   UNL     1       3.453  -7.314   6.925  0.00  0.00    +0.023 A 
ATOM      8  C   UNL     1       3.448  -8.021   5.724  0.00  0.00    +0.039 A 
ATOM      9  N   UNL     1       2.817  -7.577   4.665  0.00  0.00    -0.248 NA
ATOM     10  C   UNL     1       2.147  -6.421   4.689  0.00  0.00    +0.113 A 
ATOM     11  C   UNL     1       1.465  -5.952   3.547  0.00  0.00    +0.148 A 
ATOM     12  C   UNL     1       4.188  -9.331   5.642  0.00  0.00    +0.065 C 
BRANCH  11  13
ATOM     13  O   UNL     1       1.479  -6.674   2.397  0.00  0.00    -0.504 OA
ATOM     14  H   UNL     1       2.214  -6.459   1.806  0.00  0.00    +0.292 HD
ENDBRANCH  11  13
ENDBRANCH   1   2
BRANCH   1  15
ATOM     15  C   UNL     1      -1.323  -4.833   2.350  0.00  0.00    -0.023 A 
ATOM     16  C   UNL     1      -2.319  -4.266   3.123  0.00  0.00    +0.008 A 
ATOM     17  C   UNL     1      -3.598  -4.790   3.096  0.00  0.00    +0.038 A 
ATOM     18  C   UNL     1      -3.881  -5.883   2.295  0.00  0.00    +0.123 A 
ATOM     19  C   UNL     1      -2.883  -6.450   1.521  0.00  0.00    +0.038 A 
ATOM     20  C   UNL     1      -1.606  -5.921   1.545  0.00  0.00    +0.008 A 
ATOM     21  F   UNL     1      -5.131  -6.395   2.268  0.00  0.00    -0.205 F 
ENDBRANCH   1  15
BRANCH   1  22
ATOM     22  N   UNL     1      -0.003  -2.799   2.421  0.00  0.00    -0.333 N 
ATOM     23  H   UNL     1       0.037  -2.335   3.272  0.00  0.00    +0.147 HD
BRANCH  22  29
ATOM     24  C   UNL     1      -0.399   1.536   0.139  0.00  0.00    +0.044 C 
ATOM     25  C   UNL     1      -0.323   0.031   0.099  0.00  0.00    -0.046 A 
ATOM     26  C   UNL     1      -0.378  -0.631  -1.114  0.00  0.00    +0.004 A 
ATOM     27  C   UNL     1      -0.309  -2.011  -1.155  0.00  0.00    +0.002 A 
ATOM     28  C   UNL     1      -0.185  -2.734   0.015  0.00  0.00    +0.023 A 
ATOM     29  C   UNL     1      -0.129  -2.072   1.235  0.00  0.00    +0.031 A 
ATOM     30  C   UNL     1      -0.193  -0.684   1.273  0.00  0.00    -0.027 A 
ATOM     31  C   UNL     1      -0.127   0.038   2.593  0.00  0.00    +0.046 C 
ENDBRANCH  22  29
ENDBRANCH   1  22
TORSDOF 5
