REMARK  Name = ZINC36742926
REMARK  5 active torsions:
REMARK  status: ('A' for Active; 'I' for Inactive)
REMARK    1  A    between atoms: C_1  and  C_2
REMARK    2  A    between atoms: C_5  and  S_7
REMARK    3  A    between atoms: S_7  and  N_10
REMARK    4  A    between atoms: N_10  and  C_11
REMARK    5  A    between atoms: C_16  and  N_17
REMARK                            x       y       z     vdW  Elec       q    Type
REMARK                         _______ _______ _______ _____ _____    ______ ____
ROOT
ATOM      1  C   UNL     1       2.147  -4.021  -2.463  0.00  0.00    +0.072 A 
ATOM      2  C   UNL     1       3.371  -3.563  -1.997  0.00  0.00    +0.076 A 
ATOM      3  C   UNL     1       4.208  -2.844  -2.835  0.00  0.00    +0.168 A 
ATOM      4  C   UNL     1       3.821  -2.580  -4.146  0.00  0.00    +0.168 A 
ATOM      5  C   UNL     1       2.598  -3.036  -4.613  0.00  0.00    +0.074 A 
ATOM      6  C   UNL     1       1.762  -3.761  -3.777  0.00  0.00    +0.051 A 
ATOM      7  O   UNL     1       4.810  -1.862  -4.757  0.00  0.00    -0.453 OA
ATOM      8  C   UNL     1       5.622  -1.340  -3.689  0.00  0.00    +0.466 C 
ATOM      9  O   UNL     1       5.440  -2.292  -2.624  0.00  0.00    -0.453 OA
ENDROOT
BRANCH   6  10
ATOM     10  N   UNL     1       0.528  -4.228  -4.252  0.00  0.00    -0.356 N 
ATOM     11  H   UNL     1      -0.058  -4.732  -3.666  0.00  0.00    +0.142 HD
ATOM     12  H   UNL     1       0.261  -4.047  -5.167  0.00  0.00    +0.142 HD
ENDBRANCH   6  10
BRANCH   1  13
ATOM     13  N   UNL     1       1.300  -4.748  -1.614  0.00  0.00    -0.214 N 
ATOM     14  H   UNL     1       0.760  -5.471  -1.971  0.00  0.00    +0.174 HD
BRANCH  13  15
ATOM     15  S   UNL     1       1.223  -4.374  -0.003  0.00  0.00    +0.079 S 
ATOM     16  O   UNL     1       2.557  -4.398   0.484  0.00  0.00    -0.149 OA
ATOM     17  O   UNL     1       0.195  -5.183   0.553  0.00  0.00    -0.149 OA
BRANCH  15  22
ATOM     18  C   UNL     1       0.333   1.462   0.371  0.00  0.00    +0.051 C 
ATOM     19  C   UNL     1       0.286  -0.042   0.289  0.00  0.00    -0.011 A 
ATOM     20  C   UNL     1      -0.792  -0.863   0.294  0.00  0.00    +0.013 A 
ATOM     21  C   UNL     1      -0.595  -2.229   0.206  0.00  0.00    +0.037 A 
ATOM     22  C   UNL     1       0.671  -2.705   0.119  0.00  0.00    +0.146 A 
ATOM     23  S   UNL     1       1.635  -1.203   0.151  0.00  0.00    -0.074 S 
ENDBRANCH  15  22
ENDBRANCH  13  15
ENDBRANCH   1  13
TORSDOF 4
