REMARK  Name = ZINC00117781
REMARK  3 active torsions:
REMARK  status: ('A' for Active; 'I' for Inactive)
REMARK    1  A    between atoms: C_1  and  C_2
REMARK    2  A    between atoms: C_3  and  C_7
REMARK    3  A    between atoms: C_9  and  C_12
REMARK                            x       y       z     vdW  Elec       q    Type
REMARK                         _______ _______ _______ _____ _____    ______ ____
ROOT
ATOM      1  C   UNL     1       1.107   2.019   0.002  0.00  0.00    +0.119 A 
ATOM      2  N   UNL     1      -0.016   1.316   0.009  0.00  0.00    -0.238 NA
ATOM      3  C   UNL     1       0.002  -0.004   0.002  0.00  0.00    +0.085 A 
ATOM      4  C   UNL     1       1.208  -0.660  -0.013  0.00  0.00    +0.076 A 
ATOM      5  S   UNL     1       2.339   0.724  -0.016  0.00  0.00    -0.074 S 
ENDROOT
BRANCH   1   8
ATOM      6  C   UNL     1       3.828   3.612  -0.014  0.00  0.00    +0.069 C 
ATOM      7  C   UNL     1       2.453   4.228   0.001  0.00  0.00    +0.079 A 
ATOM      8  C   UNL     1       1.292   3.481   0.008  0.00  0.00    +0.087 A 
ATOM      9  S   UNL     1       0.078   4.789   0.019  0.00  0.00    +0.039 S 
ATOM     10  N   UNL     1       1.064   6.024   0.024  0.00  0.00    -0.110 NA
ATOM     11  N   UNL     1       2.246   5.524   0.010  0.00  0.00    -0.146 NA
ENDBRANCH   1   8
BRANCH   3  12
ATOM     12  C   UNL     1      -1.264  -0.768   0.009  0.00  0.00    +0.039 A 
ATOM     13  C   UNL     1      -2.551  -0.304   0.030  0.00  0.00    +0.019 A 
ATOM     14  C   UNL     1      -3.586  -1.216   0.030  0.00  0.00    +0.028 A 
ATOM     15  C   UNL     1      -3.296  -2.543   0.020  0.00  0.00    +0.079 A 
ATOM     16  S   UNL     1      -1.511  -2.536   0.002  0.00  0.00    -0.075 S 
ATOM     17 CL   UNL     1      -4.382  -3.897   0.023  0.00  0.00    -0.076 Cl
ENDBRANCH   3  12
TORSDOF 2
