REMARK  Name = ZINC24945951
REMARK  7 active torsions:
REMARK  status: ('A' for Active; 'I' for Inactive)
REMARK    1  A    between atoms: C_1  and  C_2
REMARK    2  A    between atoms: C_2  and  C_3
REMARK    3  A    between atoms: C_2  and  C_4
REMARK    4  A    between atoms: C_2  and  S_5
REMARK    5  A    between atoms: S_5  and  C_6
REMARK    6  A    between atoms: C_6  and  C_7
REMARK    7  A    between atoms: N_9  and  C_10
REMARK                            x       y       z     vdW  Elec       q    Type
REMARK                         _______ _______ _______ _____ _____    ______ ____
ROOT
ATOM      1  C   UNL     1      -1.140  -2.090  -0.104  0.00  0.00    +0.051 A 
ATOM      2  C   UNL     1      -0.112  -2.822   0.473  0.00  0.00    +0.073 A 
ATOM      3  C   UNL     1      -0.097  -4.204   0.362  0.00  0.00    +0.164 A 
ATOM      4  C   UNL     1      -1.113  -4.855  -0.328  0.00  0.00    +0.163 A 
ATOM      5  C   UNL     1      -2.139  -4.121  -0.905  0.00  0.00    +0.066 A 
ATOM      6  C   UNL     1      -2.156  -2.743  -0.790  0.00  0.00    +0.043 A 
ATOM      7 BR   UNL     1      -3.560  -1.747  -1.572  0.00  0.00    -0.048 Br
ATOM      8  O   UNL     1      -1.118  -6.212  -0.444  0.00  0.00    -0.485 OA
ATOM      9  C   UNL     1       0.118  -6.885  -0.178  0.00  0.00    +0.270 C 
ATOM     10  C   UNL     1       0.707  -6.311   1.118  0.00  0.00    +0.270 C 
ATOM     11  O   UNL     1       0.920  -4.908   0.930  0.00  0.00    -0.485 OA
ENDROOT
BRANCH   1  14
ATOM     12  C   UNL     1       0.002  -0.004   0.008  0.00  0.00    +0.227 C 
ATOM     13  O   UNL     1       1.061  -0.597  -0.010  0.00  0.00    -0.275 OA
ATOM     14  N   UNL     1      -1.156  -0.694   0.009  0.00  0.00    -0.284 N 
ATOM     15  H   UNL     1      -2.113  -0.160   0.100  0.00  0.00    +0.155 HD
BRANCH  12  16
ATOM     16  C   UNL     1      -0.017   1.502   0.027  0.00  0.00    +0.165 C 
BRANCH  16  17
ATOM     17  S   UNL     1       1.685   2.129   0.020  0.00  0.00    -0.145 S 
BRANCH  17  19
ATOM     18  C   UNL     1       0.727   4.345   1.307  0.00  0.00    +0.022 C 
ATOM     19  C   UNL     1       1.488   3.933   0.045  0.00  0.00    +0.009 C 
ATOM     20  C   UNL     1       2.867   4.596   0.041  0.00  0.00    +0.022 C 
ATOM     21  C   UNL     1       0.704   4.377  -1.191  0.00  0.00    +0.022 C 
ENDBRANCH  17  19
ENDBRANCH  16  17
ENDBRANCH  12  16
ENDBRANCH   1  14
TORSDOF 4
