REMARK  Name = ZINC15054488
REMARK  6 active torsions:
REMARK  status: ('A' for Active; 'I' for Inactive)
REMARK    1  A    between atoms: C_1  and  C_2
REMARK    2  A    between atoms: C_5  and  C_30
REMARK    3  A    between atoms: C_6  and  C_8
REMARK    4  A    between atoms: C_8  and  C_10
REMARK    5  A    between atoms: C_10  and  C_11
REMARK    6  A    between atoms: N_17  and  N_18
REMARK                            x       y       z     vdW  Elec       q    Type
REMARK                         _______ _______ _______ _____ _____    ______ ____
ROOT
ATOM      1  C   UNL     1      -7.373   3.007  -0.375  0.00  0.00    +0.147 C 
ATOM      2  C   UNL     1      -6.451   1.804  -0.502  0.00  0.00    +0.232 C 
ATOM      3  O   UNL     1      -6.853   0.661  -0.450  0.00  0.00    -0.274 OA
ATOM      4  N   UNL     1      -5.175   2.107  -0.680  0.00  0.00    -0.263 N 
ATOM      5  C   UNL     1      -4.727   3.399  -0.732  0.00  0.00    +0.183 C 
ATOM      6  N   UNL     1      -3.477   3.819  -0.900  0.00  0.00    -0.126 NA
ATOM      7  S   UNL     1      -6.153   4.369  -0.537  0.00  0.00    -0.075 S 
ATOM      8  H   UNL     1      -4.532   1.386  -0.774  0.00  0.00    +0.157 HD
ENDROOT
BRANCH   6   9
ATOM      9  N   UNL     1      -3.219   5.082  -0.933  0.00  0.00    -0.142 NA
ATOM     10  C   UNL     1      -1.975   5.500  -1.100  0.00  0.00    +0.157 C 
ATOM     11  C   UNL     1      -0.763   4.670  -1.266  0.00  0.00    +0.028 A 
ATOM     12  C   UNL     1      -0.545   3.296  -1.305  0.00  0.00    +0.012 A 
ATOM     13  C   UNL     1       0.736   2.811  -1.475  0.00  0.00    +0.001 A 
ATOM     14  C   UNL     1       1.798   3.688  -1.616  0.00  0.00    +0.002 A 
ATOM     15  C   UNL     1       1.592   5.053  -1.584  0.00  0.00    +0.024 A 
ATOM     16  C   UNL     1       0.310   5.561  -1.409  0.00  0.00    +0.043 A 
ATOM     17  N   UNL     1      -0.168   6.864  -1.341  0.00  0.00    -0.280 N 
ATOM     18  C   UNL     1      -1.500   6.888  -1.161  0.00  0.00    +0.269 C 
ATOM     19  O   UNL     1      -2.191   7.886  -1.065  0.00  0.00    -0.268 OA
ATOM     20  H   UNL     1       0.388   7.655  -1.415  0.00  0.00    +0.155 HD
ENDBRANCH   6   9
BRANCH   1  21
ATOM     21  C   UNL     1      -8.399   3.043  -1.509  0.00  0.00    +0.103 C 
BRANCH  21  22
ATOM     22  C   UNL     1      -9.245   4.283  -1.382  0.00  0.00    +0.165 C 
ATOM     23  O   UNL     1      -9.047   5.062  -0.474  0.00  0.00    -0.292 OA
BRANCH  22  29
ATOM     24  C   UNL     1     -11.628   3.090  -5.596  0.00  0.00    +0.044 C 
ATOM     25  C   UNL     1     -11.464   3.979  -4.391  0.00  0.00    -0.050 A 
ATOM     26  C   UNL     1     -12.319   5.051  -4.202  0.00  0.00    +0.003 A 
ATOM     27  C   UNL     1     -12.177   5.874  -3.098  0.00  0.00    +0.004 A 
ATOM     28  C   UNL     1     -11.183   5.627  -2.174  0.00  0.00    -0.040 A 
ATOM     29  C   UNL     1     -10.311   4.550  -2.361  0.00  0.00    +0.021 A 
ATOM     30  C   UNL     1     -10.462   3.723  -3.479  0.00  0.00    +0.015 A 
ATOM     31  C   UNL     1     -11.033   6.520  -0.969  0.00  0.00    +0.044 C 
ENDBRANCH  22  29
ENDBRANCH  21  22
ENDBRANCH   1  21
TORSDOF 4
