REMARK  Name = ZINC02309263
REMARK  9 active torsions:
REMARK  status: ('A' for Active; 'I' for Inactive)
REMARK    1  A    between atoms: C_1  and  C_2
REMARK    2  A    between atoms: C_2  and  C_4
REMARK    3  A    between atoms: C_2  and  S_8
REMARK    4  A    between atoms: C_4  and  O_6
REMARK    5  A    between atoms: O_6  and  C_7
REMARK    6  A    between atoms: S_8  and  C_9
REMARK    7  A    between atoms: C_20  and  C_23
REMARK    8  A    between atoms: C_23  and  C_24
REMARK    9  A    between atoms: C_23  and  C_25
REMARK                            x       y       z     vdW  Elec       q    Type
REMARK                         _______ _______ _______ _____ _____    ______ ____
ROOT
ATOM      1  C   UNL     1      -2.335  -0.185  -1.575  0.00  0.00    +0.192 A 
ATOM      2  N   UNL     1      -1.570   0.514  -2.406  0.00  0.00    -0.207 NA
ATOM      3  C   UNL     1      -2.042   1.032  -3.527  0.00  0.00    +0.129 A 
ATOM      4  C   UNL     1      -3.412   0.840  -3.861  0.00  0.00    +0.051 A 
ATOM      5  C   UNL     1      -4.145   1.313  -5.034  0.00  0.00    -0.020 A 
ATOM      6  C   UNL     1      -5.453   0.990  -5.113  0.00  0.00    +0.021 A 
ATOM      7  S   UNL     1      -5.786   0.050  -3.651  0.00  0.00    -0.071 S 
ATOM      8  C   UNL     1      -4.163   0.090  -2.933  0.00  0.00    +0.115 A 
ATOM      9  N   UNL     1      -3.617  -0.400  -1.837  0.00  0.00    -0.214 NA
ATOM     10  C   UNL     1      -6.393   1.363  -6.218  0.00  0.00    +0.203 C 
ATOM     11  O   UNL     1      -5.609   1.840  -7.323  0.00  0.00    -0.371 OA
ATOM     12  C   UNL     1      -4.626   2.809  -6.947  0.00  0.00    +0.126 C 
ATOM     13  C   UNL     1      -3.505   2.139  -6.148  0.00  0.00    +0.068 C 
ATOM     14  N   UNL     1      -1.213   1.755  -4.366  0.00  0.00    -0.343 N 
ATOM     15  H   UNL     1      -0.326   2.010  -4.069  0.00  0.00    +0.144 HD
ATOM     16  H   UNL     1      -1.518   2.005  -5.252  0.00  0.00    +0.144 HD
ENDROOT
BRANCH  12  17
ATOM     17  C   UNL     1      -4.036   3.447  -8.206  0.00  0.00    +0.012 C 
ATOM     18  C   UNL     1      -5.150   4.131  -9.001  0.00  0.00    +0.010 C 
ATOM     19  C   UNL     1      -2.984   4.484  -7.807  0.00  0.00    +0.010 C 
ENDBRANCH  12  17
BRANCH   1  20
ATOM     20  S   UNL     1      -1.631  -0.845  -0.101  0.00  0.00    -0.072 S 
BRANCH  20  22
ATOM     21  C   UNL     1       0.168   1.216  -0.072  0.00  0.00    +0.031 C 
ATOM     22  C   UNL     1       0.101  -0.310  -0.164  0.00  0.00    +0.160 C 
BRANCH  22  23
ATOM     23  C   UNL     1       0.856  -0.916   0.991  0.00  0.00    +0.320 C 
ATOM     24  O   UNL     1       0.257  -1.322   1.959  0.00  0.00    -0.250 OA
BRANCH  23  25
ATOM     25  O   UNL     1       2.195  -1.006   0.945  0.00  0.00    -0.467 OA
ATOM     26  C   UNL     1       2.845  -1.591   2.075  0.00  0.00    +0.280 C 
ENDBRANCH  23  25
ENDBRANCH  22  23
ENDBRANCH  20  22
ENDBRANCH   1  20
TORSDOF 5
