REMARK  Name = ZINC50061897
REMARK  9 active torsions:
REMARK  status: ('A' for Active; 'I' for Inactive)
REMARK    1  A    between atoms: C_1  and  C_2
REMARK    2  A    between atoms: C_6  and  C_8
REMARK    3  A    between atoms: C_8  and  C_9
REMARK    4  A    between atoms: C_8  and  C_10
REMARK    5  A    between atoms: C_8  and  C_11
REMARK    6  A    between atoms: C_11  and  N_12
REMARK    7  A    between atoms: N_15  and  C_16
REMARK    8  A    between atoms: N_22  and  C_27
REMARK    9  A    between atoms: N_25  and  C_26
REMARK                            x       y       z     vdW  Elec       q    Type
REMARK                         _______ _______ _______ _____ _____    ______ ____
ROOT
ATOM      1  N   UNL     1       0.252  -5.097   3.454  0.00  0.00    -0.298 N 
ATOM      2  C   UNL     1       0.275  -6.445   3.462  0.00  0.00    +0.304 C 
ATOM      3  O   UNL     1       0.435  -7.056   2.423  0.00  0.00    -0.253 OA
ATOM      4  N   UNL     1       0.120  -7.114   4.621  0.00  0.00    -0.269 N 
ATOM      5  H   UNL     1       0.123  -4.609   4.282  0.00  0.00    +0.150 HD
ATOM      6  H   UNL     1       0.069  -6.628   5.459  0.00  0.00    +0.156 HD
ENDROOT
BRANCH   4   7
ATOM      7  C   UNL     1       0.032  -8.513   4.617  0.00  0.00    +0.037 A 
ATOM      8  C   UNL     1       0.544  -9.243   5.682  0.00  0.00    +0.025 A 
ATOM      9  C   UNL     1       0.461 -10.621   5.684  0.00  0.00    +0.030 A 
ATOM     10  C   UNL     1      -0.136 -11.280   4.619  0.00  0.00    +0.070 A 
ATOM     11  C   UNL     1      -0.651 -10.548   3.547  0.00  0.00    +0.071 A 
ATOM     12  C   UNL     1      -0.571  -9.165   3.551  0.00  0.00    +0.051 A 
ATOM     13  N   UNL     1      -1.179 -11.471   2.647  0.00  0.00    -0.295 N 
ATOM     14  C   UNL     1      -0.993 -12.707   3.147  0.00  0.00    +0.330 A 
ATOM     15  O   UNL     1      -1.339 -13.741   2.606  0.00  0.00    -0.246 OA
ATOM     16  N   UNL     1      -0.366 -12.626   4.336  0.00  0.00    -0.295 N 
ATOM     17  C   UNL     1       0.009 -13.758   5.187  0.00  0.00    +0.154 C 
ATOM     18  C   UNL     1      -1.826 -11.151   1.372  0.00  0.00    +0.154 C 
ENDBRANCH   4   7
BRANCH   1  19
ATOM     19  C   UNL     1       0.420  -4.369   2.193  0.00  0.00    +0.116 C 
BRANCH  19  20
ATOM     20  C   UNL     1       0.354  -2.864   2.461  0.00  0.00    +0.006 C 
ATOM     21  C   UNL     1       1.470  -2.470   3.430  0.00  0.00    +0.017 C 
ATOM     22  C   UNL     1      -1.003  -2.514   3.075  0.00  0.00    +0.017 C 
BRANCH  20  28
ATOM     23  C   UNL     1       0.633   1.460  -0.043  0.00  0.00    +0.044 C 
ATOM     24  C   UNL     1       0.660  -0.047  -0.033  0.00  0.00    -0.050 A 
ATOM     25  C   UNL     1       0.843  -0.742  -1.214  0.00  0.00    +0.003 A 
ATOM     26  C   UNL     1       0.868  -2.124  -1.206  0.00  0.00    +0.001 A 
ATOM     27  C   UNL     1       0.710  -2.811  -0.016  0.00  0.00    +0.004 A 
ATOM     28  C   UNL     1       0.527  -2.116   1.164  0.00  0.00    -0.040 A 
ATOM     29  C   UNL     1       0.507  -0.733   1.156  0.00  0.00    +0.007 A 
ENDBRANCH  20  28
ENDBRANCH  19  20
ENDBRANCH   1  19
TORSDOF 4
