REMARK  Name = ZINC66854330
REMARK  8 active torsions:
REMARK  status: ('A' for Active; 'I' for Inactive)
REMARK    1  A    between atoms: C_1  and  C_2
REMARK    2  A    between atoms: C_2  and  C_4
REMARK    3  A    between atoms: C_2  and  C_23
REMARK    4  A    between atoms: C_4  and  N_5
REMARK    5  A    between atoms: N_5  and  C_6
REMARK    6  A    between atoms: N_5  and  C_7
REMARK    7  A    between atoms: C_7  and  C_8
REMARK    8  A    between atoms: N_10  and  N_11
REMARK                            x       y       z     vdW  Elec       q    Type
REMARK                         _______ _______ _______ _____ _____    ______ ____
ROOT
ATOM      1  C   UNL     1       0.044  -0.029   4.874  0.00  0.00    +0.213 C 
ATOM      2  O   UNL     1      -1.000   0.578   4.770  0.00  0.00    -0.276 OA
ATOM      3  N   UNL     1       0.568  -0.265   6.093  0.00  0.00    -0.225 N 
ATOM      4  H   UNL     1       1.404  -0.750   6.177  0.00  0.00    +0.173 HD
ENDROOT
BRANCH   3   5
ATOM      5  N   UNL     1      -0.095   0.192   7.240  0.00  0.00    -0.137 N 
ATOM      6  C   UNL     1       0.296   1.258   7.969  0.00  0.00    +0.263 C 
ATOM      7  O   UNL     1       1.252   1.976   7.764  0.00  0.00    -0.271 OA
ATOM      8  C   UNL     1      -0.707   1.368   9.094  0.00  0.00    +0.114 C 
ATOM      9  C   UNL     1      -1.442   2.702   9.021  0.00  0.00    +0.035 C 
ATOM     10  C   UNL     1      -2.474   2.780  10.150  0.00  0.00    +0.003 C 
ATOM     11  C   UNL     1      -1.764   2.643  11.498  0.00  0.00    +0.000 C 
ATOM     12  C   UNL     1      -1.051   1.290  11.565  0.00  0.00    +0.003 C 
ATOM     13  C   UNL     1      -0.014   1.206  10.442  0.00  0.00    +0.035 C 
ATOM     14  N   UNL     1      -1.635   0.255   8.855  0.00  0.00    -0.284 N 
ATOM     15  C   UNL     1      -1.198  -0.373   7.746  0.00  0.00    +0.326 C 
ATOM     16  O   UNL     1      -1.743  -1.345   7.261  0.00  0.00    -0.251 OA
ATOM     17  H   UNL     1      -2.410   0.021   9.388  0.00  0.00    +0.151 HD
ENDBRANCH   3   5
BRANCH   1  18
ATOM     18  C   UNL     1       0.758  -0.519   3.640  0.00  0.00    +0.020 C 
BRANCH  18  19
ATOM     19  N   UNL     1      -0.010  -0.139   2.447  0.00  0.00    +0.384 N 
ATOM     20  C   UNL     1      -1.302  -0.838   2.453  0.00  0.00    -0.096 C 
ATOM     21  H   UNL     1      -0.167   0.858   2.452  0.00  0.00    -0.082 HD
BRANCH  19  22
ATOM     22  C   UNL     1       0.742  -0.511   1.242  0.00  0.00    -0.071 C 
BRANCH  22  24
ATOM     23  C   UNL     1      -0.019   1.526   0.010  0.00  0.00    +0.010 C 
ATOM     24  C   UNL     1       0.002  -0.004   0.002  0.00  0.00    -0.001 C 
BRANCH  24  25
ATOM     25  C   UNL     1       0.707  -0.490  -1.238  0.00  0.00    -0.046 A 
ATOM     26  C   UNL     1       2.026  -0.142  -1.464  0.00  0.00    +0.004 A 
ATOM     27  C   UNL     1       2.673  -0.587  -2.602  0.00  0.00    +0.000 A 
ATOM     28  C   UNL     1       2.002  -1.382  -3.512  0.00  0.00    +0.000 A 
ATOM     29  C   UNL     1       0.684  -1.731  -3.285  0.00  0.00    +0.000 A 
ATOM     30  C   UNL     1       0.038  -1.289  -2.146  0.00  0.00    +0.004 A 
ENDBRANCH  24  25
ENDBRANCH  22  24
ENDBRANCH  19  22
ENDBRANCH  18  19
ENDBRANCH   1  18
TORSDOF 6
