REMARK  Name = ZINC10252241
REMARK  7 active torsions:
REMARK  status: ('A' for Active; 'I' for Inactive)
REMARK    1  A    between atoms: C_1  and  C_2
REMARK    2  A    between atoms: C_2  and  O_3
REMARK    3  A    between atoms: O_3  and  C_4
REMARK    4  A    between atoms: C_7  and  C_9
REMARK    5  A    between atoms: C_13  and  N_14
REMARK    6  A    between atoms: C_15  and  C_17
REMARK    7  A    between atoms: C_24  and  C_28
REMARK                            x       y       z     vdW  Elec       q    Type
REMARK                         _______ _______ _______ _____ _____    ______ ____
ROOT
ATOM      1  C   UNL     1       1.326   2.063   0.001  0.00  0.00    +0.069 A 
ATOM      2  C   UNL     1       2.288   0.974  -0.015  0.00  0.00    -0.023 A 
ATOM      3  C   UNL     1       1.753  -0.266  -0.017  0.00  0.00    -0.004 A 
ATOM      4  S   UNL     1       0.002  -0.004   0.002  0.00  0.00    -0.077 S 
ATOM      5  C   UNL     1      -0.021   1.728   0.011  0.00  0.00    +0.084 A 
ATOM      6  C   UNL     1       2.492  -1.569  -0.032  0.00  0.00    +0.046 C 
ATOM      7  C   UNL     1       3.950  -1.293  -0.426  0.00  0.00    -0.009 C 
ATOM      8  C   UNL     1       4.474  -0.123   0.413  0.00  0.00    +0.008 C 
ATOM      9  C   UNL     1       3.798   1.177  -0.028  0.00  0.00    +0.037 C 
ATOM     10  C   UNL     1       4.798  -2.537  -0.156  0.00  0.00    +0.008 C 
ENDROOT
BRANCH   1  14
ATOM     11  C   UNL     1       2.352   5.398  -1.160  0.00  0.00    +0.407 C 
ATOM     12  O   UNL     1       2.543   5.972  -0.107  0.00  0.00    -0.226 OA
ATOM     13  N   UNL     1       1.951   4.111  -1.162  0.00  0.00    -0.217 N 
ATOM     14  C   UNL     1       1.762   3.462   0.003  0.00  0.00    +0.255 C 
ATOM     15  O   UNL     1       1.954   4.037   1.058  0.00  0.00    -0.270 OA
ATOM     16  H   UNL     1       1.798   3.652  -2.003  0.00  0.00    +0.161 HD
BRANCH  11  17
ATOM     17  O   UNL     1       2.541   6.046  -2.324  0.00  0.00    -0.450 OA
BRANCH  17  19
ATOM     18  C   UNL     1       3.133   7.996  -3.658  0.00  0.00    +0.048 C 
ATOM     19  C   UNL     1       2.973   7.430  -2.245  0.00  0.00    +0.230 C 
ENDBRANCH  17  19
ENDBRANCH  11  17
ENDBRANCH   1  14
BRANCH   5  20
ATOM     20  N   UNL     1      -1.119   2.575   0.022  0.00  0.00    -0.277 N 
ATOM     21  C   UNL     1      -2.365   2.062   0.026  0.00  0.00    +0.246 C 
ATOM     22  O   UNL     1      -2.527   0.860   0.020  0.00  0.00    -0.273 OA
ATOM     23  H   UNL     1      -0.990   3.536   0.026  0.00  0.00    +0.155 HD
BRANCH  21  24
ATOM     24  C   UNL     1      -3.559   2.982   0.036  0.00  0.00    +0.204 C 
ATOM     25  C   UNL     1      -3.611   3.789  -1.276  0.00  0.00    +0.043 C 
ATOM     26  C   UNL     1      -4.987   3.429  -1.887  0.00  0.00    +0.031 C 
ATOM     27  C   UNL     1      -5.769   2.921  -0.650  0.00  0.00    +0.161 C 
ATOM     28  O   UNL     1      -4.770   2.212   0.117  0.00  0.00    -0.367 OA
ENDBRANCH  21  24
ENDBRANCH   5  20
TORSDOF 5
