REMARK  Name = ZINC66635572
REMARK  7 active torsions:
REMARK  status: ('A' for Active; 'I' for Inactive)
REMARK    1  A    between atoms: C_1  and  C_2
REMARK    2  A    between atoms: C_10  and  C_11
REMARK    3  A    between atoms: N_13  and  C_14
REMARK    4  A    between atoms: C_18  and  C_21
REMARK    5  A    between atoms: C_19  and  O_20
REMARK    6  A    between atoms: C_21  and  O_23
REMARK    7  A    between atoms: O_23  and  C_24
REMARK                            x       y       z     vdW  Elec       q    Type
REMARK                         _______ _______ _______ _____ _____    ______ ____
ROOT
ATOM      1  C   UNL     1       0.026  -0.382   2.484  0.00  0.00    +0.284 C 
ATOM      2  O   UNL     1       0.016   0.806   2.746  0.00  0.00    -0.266 OA
ATOM      3  N   UNL     1       0.054  -1.291   3.478  0.00  0.00    -0.276 N 
ATOM      4  H   UNL     1      -0.004  -2.237   3.273  0.00  0.00    +0.155 HD
ENDROOT
BRANCH   1  14
ATOM      5  C   UNL     1      -0.039   1.504   0.012  0.00  0.00    +0.048 C 
ATOM      6  C   UNL     1      -0.021  -0.003   0.003  0.00  0.00    +0.008 A 
ATOM      7  C   UNL     1      -0.025  -0.876  -1.171  0.00  0.00    +0.027 A 
ATOM      8  C   UNL     1      -0.045  -0.651  -2.550  0.00  0.00    +0.050 A 
ATOM      9  C   UNL     1      -0.043  -1.725  -3.414  0.00  0.00    +0.124 A 
ATOM     10  C   UNL     1      -0.021  -3.024  -2.917  0.00  0.00    +0.042 A 
ATOM     11  C   UNL     1      -0.002  -3.258  -1.560  0.00  0.00    +0.050 A 
ATOM     12  C   UNL     1      -0.003  -2.190  -0.669  0.00  0.00    +0.136 A 
ATOM     13  O   UNL     1       0.012  -2.112   0.676  0.00  0.00    -0.450 OA
ATOM     14  C   UNL     1       0.007  -0.826   1.083  0.00  0.00    +0.194 A 
ATOM     15  F   UNL     1      -0.062  -1.515  -4.748  0.00  0.00    -0.205 F 
ENDBRANCH   1  14
BRANCH   3  16
ATOM     16  C   UNL     1       0.166  -0.870   4.809  0.00  0.00    +0.076 A 
ATOM     17  C   UNL     1      -0.437   0.310   5.217  0.00  0.00    +0.027 A 
ATOM     18  C   UNL     1      -0.330   0.733   6.531  0.00  0.00    +0.003 A 
ATOM     19  C   UNL     1       0.378  -0.014   7.447  0.00  0.00    +0.019 A 
ATOM     20  C   UNL     1       0.993  -1.206   7.053  0.00  0.00    +0.102 A 
ATOM     21  C   UNL     1       0.880  -1.639   5.726  0.00  0.00    +0.152 A 
BRANCH  21  22
ATOM     22  O   UNL     1       1.467  -2.797   5.333  0.00  0.00    -0.504 OA
ATOM     23  H   UNL     1       2.375  -2.691   5.017  0.00  0.00    +0.292 HD
ENDBRANCH  21  22
BRANCH  20  24
ATOM     24  C   UNL     1       1.751  -2.007   8.031  0.00  0.00    +0.343 C 
ATOM     25  O   UNL     1       2.284  -3.043   7.686  0.00  0.00    -0.245 OA
BRANCH  24  26
ATOM     26  O   UNL     1       1.852  -1.591   9.309  0.00  0.00    -0.464 OA
ATOM     27  C   UNL     1       2.602  -2.417  10.202  0.00  0.00    +0.280 C 
ENDBRANCH  24  26
ENDBRANCH  20  24
ENDBRANCH   3  16
TORSDOF 5
