REMARK  Name = ZINC65967356
REMARK  8 active torsions:
REMARK  status: ('A' for Active; 'I' for Inactive)
REMARK    1  A    between atoms: C_1  and  C_2
REMARK    2  A    between atoms: C_2  and  N_3
REMARK    3  A    between atoms: N_3  and  C_4
REMARK    4  A    between atoms: C_4  and  C_5
REMARK    5  A    between atoms: C_5  and  C_6
REMARK    6  A    between atoms: C_5  and  C_7
REMARK    7  A    between atoms: C_9  and  C_11
REMARK    8  A    between atoms: C_11  and  N_12
REMARK                            x       y       z     vdW  Elec       q    Type
REMARK                         _______ _______ _______ _____ _____    ______ ____
ROOT
ATOM      1  N   UNL     1       4.224  -0.727   0.074  0.00  0.00    +0.387 N 
ATOM      2  C   UNL     1       4.698   0.087   1.153  0.00  0.00    -0.074 C 
ATOM      3  C   UNL     1       6.178   0.314   1.191  0.00  0.00    -0.027 C 
ATOM      4  C   UNL     1       7.012  -0.910   0.881  0.00  0.00    +0.005 C 
ATOM      5  C   UNL     1       7.259  -1.129  -0.601  0.00  0.00    -0.012 C 
ATOM      6  C   UNL     1       7.755   0.156  -1.270  0.00  0.00    +0.007 C 
ATOM      7  C   UNL     1       6.700   1.241  -1.049  0.00  0.00    -0.012 C 
ATOM      8  C   UNL     1       6.635   1.551   0.450  0.00  0.00    +0.005 C 
ATOM      9  C   UNL     1       5.340   0.811  -1.556  0.00  0.00    -0.012 C 
ATOM     10  C   UNL     1       4.899  -0.575  -1.188  0.00  0.00    -0.067 C 
ATOM     11  C   UNL     1       6.010  -1.611  -1.330  0.00  0.00    -0.012 C 
ATOM     12  H   UNL     1       4.300  -1.693   0.355  0.00  0.00    -0.081 HD
ENDROOT
BRANCH   1  13
ATOM     13  C   UNL     1       2.801  -0.427  -0.132  0.00  0.00    +0.019 C 
BRANCH  13  15
ATOM     14  N   UNL     1       0.711  -0.489   1.189  0.00  0.00    -0.302 N 
ATOM     15  C   UNL     1       2.042  -0.696   1.142  0.00  0.00    +0.199 C 
ATOM     16  O   UNL     1       2.628  -1.097   2.124  0.00  0.00    -0.278 OA
BRANCH  14  18
ATOM     17  C   UNL     1      -0.019   1.526   0.010  0.00  0.00    +0.024 C 
ATOM     18  C   UNL     1       0.002  -0.004   0.002  0.00  0.00    +0.104 C 
ENDBRANCH  14  18
BRANCH  14  19
ATOM     19  C   UNL     1      -0.028  -0.750   2.427  0.00  0.00    +0.125 C 
BRANCH  19  20
ATOM     20  C   UNL     1      -0.511  -2.202   2.437  0.00  0.00    +0.106 C 
ATOM     21  C   UNL     1       0.697  -3.141   2.480  0.00  0.00    +0.025 C 
BRANCH  20  22
ATOM     22  C   UNL     1      -1.353  -2.431   3.622  0.00  0.00    +0.067 C 
ATOM     23  N   UNL     1      -2.003  -2.608   4.536  0.00  0.00    -0.196 NA
ENDBRANCH  20  22
ENDBRANCH  19  20
ENDBRANCH  14  19
ENDBRANCH  13  15
ENDBRANCH   1  13
TORSDOF 6
