REMARK  Name = ZINC66890118
REMARK  7 active torsions:
REMARK  status: ('A' for Active; 'I' for Inactive)
REMARK    1  A    between atoms: C_1  and  N_2
REMARK    2  A    between atoms: N_2  and  C_3
REMARK    3  A    between atoms: C_3  and  C_4
REMARK    4  A    between atoms: C_9  and  C_10
REMARK    5  A    between atoms: N_16  and  C_17
REMARK    6  A    between atoms: C_17  and  C_18
REMARK    7  A    between atoms: C_21  and  N_24
REMARK                            x       y       z     vdW  Elec       q    Type
REMARK                         _______ _______ _______ _____ _____    ______ ____
ROOT
ATOM      1  C   UNL     1       0.249   1.403  -0.040  0.00  0.00    +0.134 C 
ATOM      2  N   UNL     1       0.374  -0.052   0.070  0.00  0.00    -0.284 N 
ATOM      3  C   UNL     1       0.589  -0.796  -1.034  0.00  0.00    +0.303 C 
ATOM      4  O   UNL     1       0.597  -2.009  -0.957  0.00  0.00    -0.253 OA
ATOM      5  N   UNL     1       0.796  -0.194  -2.222  0.00  0.00    -0.295 N 
ATOM      6  H   UNL     1       0.789   0.774  -2.282  0.00  0.00    +0.151 HD
ENDROOT
BRANCH   2   7
ATOM      7  C   UNL     1       0.265  -0.700   1.380  0.00  0.00    +0.144 C 
BRANCH   7   8
ATOM      8  C   UNL     1      -1.187  -0.946   1.699  0.00  0.00    -0.018 A 
ATOM      9  C   UNL     1      -2.160  -0.661   0.759  0.00  0.00    +0.006 A 
ATOM     10  C   UNL     1      -3.491  -0.887   1.052  0.00  0.00    +0.000 A 
ATOM     11  C   UNL     1      -3.851  -1.399   2.285  0.00  0.00    +0.001 A 
ATOM     12  C   UNL     1      -2.878  -1.685   3.224  0.00  0.00    +0.013 A 
ATOM     13  C   UNL     1      -1.546  -1.463   2.930  0.00  0.00    +0.059 A 
BRANCH  13  14
ATOM     14  C   UNL     1      -0.485  -1.779   3.952  0.00  0.00    +0.418 C 
ATOM     15  F   UNL     1      -1.094  -2.184   5.145  0.00  0.00    -0.166 F 
ATOM     16  F   UNL     1       0.332  -2.809   3.473  0.00  0.00    -0.166 F 
ATOM     17  F   UNL     1       0.290  -0.639   4.188  0.00  0.00    -0.166 F 
ENDBRANCH  13  14
ENDBRANCH   7   8
ENDBRANCH   2   7
BRANCH   5  18
ATOM     18  C   UNL     1       1.030  -1.002  -3.421  0.00  0.00    +0.141 C 
BRANCH  18  19
ATOM     19  C   UNL     1       1.230  -0.094  -4.607  0.00  0.00    -0.030 A 
ATOM     20  C   UNL     1       0.143   0.306  -5.362  0.00  0.00    +0.007 A 
ATOM     21  C   UNL     1       0.324   1.138  -6.450  0.00  0.00    +0.026 A 
ATOM     22  C   UNL     1       1.599   1.574  -6.784  0.00  0.00    +0.047 A 
ATOM     23  C   UNL     1       2.688   1.172  -6.024  0.00  0.00    +0.026 A 
ATOM     24  C   UNL     1       2.501   0.343  -4.934  0.00  0.00    +0.007 A 
BRANCH  22  25
ATOM     25  N   UNL     1       1.785   2.418  -7.888  0.00  0.00    -0.306 N 
ATOM     26  C   UNL     1       2.979   2.920  -8.337  0.00  0.00    +0.112 A 
ATOM     27  C   UNL     1       2.703   3.680  -9.414  0.00  0.00    +0.130 A 
ATOM     28  N   UNL     1       1.378   3.646  -9.621  0.00  0.00    -0.244 NA
ATOM     29  C   UNL     1       0.818   2.889  -8.717  0.00  0.00    +0.204 A 
ENDBRANCH  22  25
ENDBRANCH  18  19
ENDBRANCH   5  18
TORSDOF 6
