REMARK  Name = ZINC39686495
REMARK  9 active torsions:
REMARK  status: ('A' for Active; 'I' for Inactive)
REMARK    1  A    between atoms: C_1  and  C_2
REMARK    2  A    between atoms: C_2  and  C_4
REMARK    3  A    between atoms: C_2  and  N_13
REMARK    4  A    between atoms: C_4  and  C_5
REMARK    5  A    between atoms: C_10  and  O_11
REMARK    6  A    between atoms: O_11  and  C_12
REMARK    7  A    between atoms: C_14  and  C_16
REMARK    8  A    between atoms: C_27  and  C_29
REMARK    9  A    between atoms: C_32  and  C_36
REMARK                            x       y       z     vdW  Elec       q    Type
REMARK                         _______ _______ _______ _____ _____    ______ ____
ROOT
ATOM      1  C   UNL     1       2.783  -0.420   2.246  0.00  0.00    +0.100 C 
ATOM      2  C   UNL     1       2.650   0.313   3.599  0.00  0.00    +0.121 C 
ATOM      3  N   UNL     1       3.982   0.172   4.234  0.00  0.00    -0.296 N 
ATOM      4  C   UNL     1       4.942   0.338   3.117  0.00  0.00    +0.115 C 
ATOM      5  C   UNL     1       4.289  -0.401   1.932  0.00  0.00    -0.004 C 
ATOM      6  C   UNL     1       4.548   0.354   0.632  0.00  0.00    -0.010 C 
ATOM      7  C   UNL     1       6.045   0.309   0.311  0.00  0.00    -0.082 C 
ATOM      8  N   UNL     1       6.478  -1.088   0.184  0.00  0.00    +0.379 N 
ATOM      9  C   UNL     1       6.312  -1.782   1.467  0.00  0.00    -0.082 C 
ATOM     10  C   UNL     1       4.827  -1.826   1.837  0.00  0.00    -0.010 C 
ATOM     11  C   UNL     1       4.258  -0.057   5.533  0.00  0.00    +0.247 C 
ATOM     12  O   UNL     1       3.357  -0.299   6.312  0.00  0.00    -0.270 OA
ATOM     13  H   UNL     1       5.923  -1.548  -0.521  0.00  0.00    -0.086 HD
ATOM     14  H   UNL     1       7.450  -1.114  -0.087  0.00  0.00    -0.086 HD
ENDROOT
BRANCH  11  15
ATOM     15  C   UNL     1       5.656  -0.012   6.011  0.00  0.00    +0.040 A 
ATOM     16  C   UNL     1       6.627   0.668   5.274  0.00  0.00    +0.014 A 
ATOM     17  C   UNL     1       7.930   0.707   5.725  0.00  0.00    +0.016 A 
ATOM     18  C   UNL     1       8.278   0.073   6.904  0.00  0.00    +0.090 A 
ATOM     19  C   UNL     1       7.320  -0.605   7.641  0.00  0.00    +0.136 A 
ATOM     20  C   UNL     1       6.010  -0.646   7.203  0.00  0.00    +0.052 A 
ATOM     21  F   UNL     1       7.666  -1.223   8.791  0.00  0.00    -0.205 F 
BRANCH  18  22
ATOM     22  C   UNL     1       9.704   0.120   7.390  0.00  0.00    +0.420 C 
ATOM     23  F   UNL     1      10.480   0.855   6.487  0.00  0.00    -0.166 F 
ATOM     24  F   UNL     1       9.748   0.730   8.648  0.00  0.00    -0.166 F 
ATOM     25  F   UNL     1      10.207  -1.182   7.485  0.00  0.00    -0.166 F 
ENDBRANCH  18  22
ENDBRANCH  11  15
BRANCH   1  27
ATOM     26  N   UNL     1       1.251  -0.378   0.304  0.00  0.00    -0.312 N 
ATOM     27  C   UNL     1       2.015   0.311   1.175  0.00  0.00    +0.218 C 
ATOM     28  O   UNL     1       2.084   1.519   1.097  0.00  0.00    -0.275 OA
ATOM     29  H   UNL     1       1.196  -1.345   0.367  0.00  0.00    +0.149 HD
BRANCH  26  31
ATOM     30  C   UNL     1      -0.833   0.811  -0.168  0.00  0.00    +0.028 C 
ATOM     31  C   UNL     1       0.504   0.332  -0.737  0.00  0.00    +0.074 C 
BRANCH  31  32
ATOM     32  C   UNL     1       0.250  -0.610  -1.915  0.00  0.00    +0.060 C 
BRANCH  32  33
ATOM     33  C   UNL     1       1.563  -0.984  -2.552  0.00  0.00    -0.004 A 
ATOM     34  C   UNL     1       2.031  -0.273  -3.641  0.00  0.00    +0.007 A 
ATOM     35  C   UNL     1       3.236  -0.616  -4.226  0.00  0.00    +0.000 A 
ATOM     36  C   UNL     1       3.976  -1.670  -3.723  0.00  0.00    +0.004 A 
ATOM     37  C   UNL     1       3.513  -2.383  -2.634  0.00  0.00    +0.046 A 
ATOM     38  C   UNL     1       2.307  -2.038  -2.042  0.00  0.00    +0.123 A 
BRANCH  38  39
ATOM     39  O   UNL     1       1.852  -2.734  -0.967  0.00  0.00    -0.495 OA
ATOM     40  C   UNL     1       2.670  -3.807  -0.496  0.00  0.00    +0.277 C 
ENDBRANCH  38  39
ENDBRANCH  32  33
ENDBRANCH  31  32
ENDBRANCH  26  31
ENDBRANCH   1  27
TORSDOF 7
