REMARK  Name = ZINC36235422
REMARK  10 active torsions:
REMARK  status: ('A' for Active; 'I' for Inactive)
REMARK    1  A    between atoms: C_1  and  N_2
REMARK    2  A    between atoms: N_2  and  C_3
REMARK    3  A    between atoms: N_2  and  C_4
REMARK    4  A    between atoms: C_7  and  C_10
REMARK    5  A    between atoms: C_11  and  C_12
REMARK    6  A    between atoms: C_11  and  N_29
REMARK    7  A    between atoms: N_14  and  N_15
REMARK    8  A    between atoms: C_16  and  C_17
REMARK    9  A    between atoms: C_20  and  C_22
REMARK   10  A    between atoms: C_30  and  C_32
REMARK                            x       y       z     vdW  Elec       q    Type
REMARK                         _______ _______ _______ _____ _____    ______ ____
ROOT
ATOM      1  C   UNL     1      -0.053  -2.825  -4.889  0.00  0.00    +0.036 C 
ATOM      2  C   UNL     1      -0.123  -2.066  -6.010  0.00  0.00    +0.098 C 
ENDROOT
BRANCH   1   6
ATOM      3  C   UNL     1      -0.404  -1.010  -1.072  0.00  0.00    +0.029 A 
ATOM      4  C   UNL     1       0.243  -2.235  -1.201  0.00  0.00    +0.023 A 
ATOM      5  C   UNL     1       0.359  -2.828  -2.438  0.00  0.00    +0.010 A 
ATOM      6  C   UNL     1      -0.175  -2.196  -3.567  0.00  0.00    -0.023 A 
ATOM      7  C   UNL     1      -0.826  -0.964  -3.433  0.00  0.00    +0.010 A 
ATOM      8  C   UNL     1      -0.942  -0.381  -2.192  0.00  0.00    +0.023 A 
BRANCH   3  10
ATOM      9  C   UNL     1      -1.206   0.873   0.320  0.00  0.00    +0.129 C 
ATOM     10  N   UNL     1      -0.520  -0.414   0.181  0.00  0.00    -0.336 N 
ATOM     11  C   UNL     1       0.045  -1.074   1.361  0.00  0.00    +0.129 C 
ENDBRANCH   3  10
ENDBRANCH   1   6
BRANCH   2  12
ATOM     12  C   UNL     1      -0.165  -2.706  -7.329  0.00  0.00    +0.277 C 
ATOM     13  O   UNL     1      -0.249  -3.918  -7.415  0.00  0.00    -0.267 OA
ATOM     14  N   UNL     1      -0.111  -1.954  -8.446  0.00  0.00    -0.202 N 
ATOM     15  H   UNL     1       0.030  -0.997  -8.379  0.00  0.00    +0.178 HD
BRANCH  14  16
ATOM     16  N   UNL     1      -0.258  -2.554  -9.703  0.00  0.00    -0.184 NA
ATOM     17  C   UNL     1      -0.205  -1.827 -10.782  0.00  0.00    +0.176 C 
BRANCH  17  18
ATOM     18  C   UNL     1      -0.358  -2.455 -12.095  0.00  0.00    +0.148 A 
ATOM     19  C   UNL     1      -0.318  -1.807 -13.311  0.00  0.00    +0.051 A 
ATOM     20  C   UNL     1      -0.507  -2.785 -14.296  0.00  0.00    +0.050 A 
ATOM     21  C   UNL     1      -0.655  -3.978 -13.654  0.00  0.00    +0.137 A 
ATOM     22  O   UNL     1      -0.558  -3.768 -12.327  0.00  0.00    -0.454 OA
BRANCH  21  23
ATOM     23  C   UNL     1      -0.878  -5.285 -14.304  0.00  0.00    +0.036 A 
ATOM     24  C   UNL     1      -1.875  -5.425 -15.271  0.00  0.00    +0.013 A 
ATOM     25  C   UNL     1      -2.079  -6.649 -15.875  0.00  0.00    +0.001 A 
ATOM     26  C   UNL     1      -1.297  -7.736 -15.525  0.00  0.00    +0.001 A 
ATOM     27  C   UNL     1      -0.307  -7.605 -14.568  0.00  0.00    +0.021 A 
ATOM     28  C   UNL     1      -0.088  -6.385 -13.959  0.00  0.00    +0.052 A 
ATOM     29 CL   UNL     1       1.160  -6.220 -12.764  0.00  0.00    -0.083 Cl
ENDBRANCH  21  23
ENDBRANCH  17  18
ENDBRANCH  14  16
ENDBRANCH   2  12
BRANCH   2  30
ATOM     30  N   UNL     1      -0.155  -0.670  -5.908  0.00  0.00    -0.277 N 
ATOM     31  C   UNL     1      -1.158   0.024  -6.481  0.00  0.00    +0.248 C 
ATOM     32  O   UNL     1      -2.080  -0.565  -7.012  0.00  0.00    -0.270 OA
ATOM     33  H   UNL     1       0.544  -0.203  -5.426  0.00  0.00    +0.155 HD
BRANCH  31  34
ATOM     34  C   UNL     1      -1.137   1.502  -6.465  0.00  0.00    +0.037 A 
ATOM     35  C   UNL     1      -0.078   2.182  -5.862  0.00  0.00    +0.013 A 
ATOM     36  C   UNL     1      -0.064   3.561  -5.850  0.00  0.00    +0.001 A 
ATOM     37  C   UNL     1      -1.098   4.271  -6.434  0.00  0.00    +0.000 A 
ATOM     38  C   UNL     1      -2.152   3.603  -7.034  0.00  0.00    +0.001 A 
ATOM     39  C   UNL     1      -2.175   2.224  -7.057  0.00  0.00    +0.013 A 
ENDBRANCH  31  34
ENDBRANCH   2  30
TORSDOF 8
