REMARK  Name = ZINC59948950
REMARK  5 active torsions:
REMARK  status: ('A' for Active; 'I' for Inactive)
REMARK    1  A    between atoms: C_3  and  C_10
REMARK    2  A    between atoms: C_5  and  N_7
REMARK    3  A    between atoms: CA_11  and  C_12
REMARK    4  A    between atoms: CA_11  and  N_15
REMARK    5  A    between atoms: C_16  and  C_18
REMARK                            x       y       z     vdW  Elec       q    Type
REMARK                         _______ _______ _______ _____ _____    ______ ____
ROOT
ATOM      1  C   UNL     1       3.669   2.158  -0.111  0.00  0.00    +0.038 C 
ATOM      2  CA  UNL     1       3.642   3.513  -0.105  0.00  0.00    +0.123 C 
ENDROOT
BRANCH   1   5
ATOM      3  C   UNL     1       1.120  -0.479  -0.890  0.00  0.00    +0.003 A 
ATOM      4  C   UNL     1       2.304   0.229  -0.884  0.00  0.00    +0.008 A 
ATOM      5  C   UNL     1       2.411   1.398  -0.123  0.00  0.00    -0.021 A 
ATOM      6  C   UNL     1       1.314   1.839   0.625  0.00  0.00    +0.040 A 
ATOM      7  C   UNL     1       0.138   1.121   0.608  0.00  0.00    +0.127 A 
ATOM      8  C   UNL     1       0.040  -0.035  -0.147  0.00  0.00    +0.033 A 
BRANCH   7   9
ATOM      9  N   UNL     1      -1.023   1.586   1.399  0.00  0.00    +0.056 N 
ATOM     10  O   UNL     1      -0.939   2.595   2.060  0.00  0.00    -0.126 OA
ATOM     11  O   UNL     1      -2.055   0.957   1.385  0.00  0.00    -0.126 OA
ENDBRANCH   7   9
ENDBRANCH   1   5
BRANCH   2  12
ATOM     12  N   UNL     1       4.839   4.237  -0.147  0.00  0.00    -0.276 N 
ATOM     13  C   UNL     1       4.811   5.580  -0.259  0.00  0.00    +0.248 C 
ATOM     14  O   UNL     1       3.747   6.169  -0.244  0.00  0.00    -0.270 OA
ATOM     15  H   UNL     1       5.689   3.772  -0.095  0.00  0.00    +0.155 HD
BRANCH  13  16
ATOM     16  C   UNL     1       6.073   6.337  -0.398  0.00  0.00    +0.038 A 
ATOM     17  C   UNL     1       7.295   5.663  -0.420  0.00  0.00    +0.013 A 
ATOM     18  C   UNL     1       8.470   6.374  -0.551  0.00  0.00    +0.002 A 
ATOM     19  C   UNL     1       8.438   7.753  -0.661  0.00  0.00    +0.015 A 
ATOM     20  C   UNL     1       7.230   8.428  -0.639  0.00  0.00    +0.019 A 
ATOM     21  C   UNL     1       6.047   7.727  -0.514  0.00  0.00    +0.028 A 
ATOM     22 BR   UNL     1       7.199  10.313  -0.789  0.00  0.00    -0.050 Br
ENDBRANCH  13  16
ENDBRANCH   2  12
BRANCH   2  23
ATOM     23  C   UNL     1       2.359   4.220  -0.057  0.00  0.00    +0.400 C 
ATOM     24  O   UNL     1       1.943   4.660   1.007  0.00  0.00    -0.239 OA
ATOM     25  OXT UNL     1       1.704   4.372  -1.080  0.00  0.00    -0.239 OA
ENDBRANCH   2  23
TORSDOF 5
