REMARK  Name = ZINC23717778
REMARK  6 active torsions:
REMARK  status: ('A' for Active; 'I' for Inactive)
REMARK    1  A    between atoms: C_1  and  N_2
REMARK    2  A    between atoms: C_6  and  C_8
REMARK    3  A    between atoms: C_8  and  C_10
REMARK    4  A    between atoms: C_8  and  N_16
REMARK    5  A    between atoms: N_16  and  C_17
REMARK    6  A    between atoms: C_17  and  C_18
REMARK                            x       y       z     vdW  Elec       q    Type
REMARK                         _______ _______ _______ _____ _____    ______ ____
ROOT
ATOM      1  C   UNL     1       6.389  -0.402   4.303  0.00  0.00    +0.172 C 
ENDROOT
BRANCH   1   7
ATOM      2  C   UNL     1       8.841   2.334   9.209  0.00  0.00    +0.129 C 
ATOM      3  N   UNL     1       8.779   1.458   8.037  0.00  0.00    -0.302 N 
ATOM      4  C   UNL     1       7.645   1.382   7.312  0.00  0.00    +0.306 C 
ATOM      5  O   UNL     1       6.674   2.039   7.632  0.00  0.00    -0.252 OA
ATOM      6  N   UNL     1       7.587   0.576   6.234  0.00  0.00    -0.239 N 
ATOM      7  C   UNL     1       6.453   0.499   5.509  0.00  0.00    +0.242 C 
ATOM      8  O   UNL     1       5.485   1.155   5.828  0.00  0.00    -0.273 OA
ATOM      9  H   UNL     1       9.658   0.864   7.747  0.00  0.00    +0.150 HD
ATOM     10  H   UNL     1       8.466  -0.019   5.944  0.00  0.00    +0.159 HD
ENDBRANCH   1   7
BRANCH   1  11
ATOM     11  C   UNL     1       6.649  -1.825   4.725  0.00  0.00    -0.022 A 
ATOM     12  C   UNL     1       5.638  -2.572   5.299  0.00  0.00    +0.005 A 
ATOM     13  C   UNL     1       5.875  -3.879   5.682  0.00  0.00    +0.000 A 
ATOM     14  C   UNL     1       7.126  -4.436   5.499  0.00  0.00    +0.000 A 
ATOM     15  C   UNL     1       8.139  -3.688   4.929  0.00  0.00    +0.000 A 
ATOM     16  C   UNL     1       7.901  -2.383   4.542  0.00  0.00    +0.005 A 
ENDBRANCH   1  11
BRANCH   1  17
ATOM     17  N   UNL     1       5.057  -0.308   3.692  0.00  0.00    -0.298 NA
ATOM     18  H   UNL     1       4.371  -1.002   4.200  0.00  0.00    +0.123 HD
BRANCH  17  19
ATOM     19  C   UNL     1       5.107  -0.655   2.265  0.00  0.00    +0.117 C 
BRANCH  19  20
ATOM     20  C   UNL     1       3.725  -0.548   1.673  0.00  0.00    -0.030 A 
ATOM     21  C   UNL     1       2.886  -1.647   1.675  0.00  0.00    +0.009 A 
ATOM     22  C   UNL     1       1.617  -1.553   1.135  0.00  0.00    +0.050 A 
ATOM     23  C   UNL     1       1.183  -0.356   0.589  0.00  0.00    +0.166 A 
ATOM     24  C   UNL     1       2.028   0.751   0.586  0.00  0.00    +0.167 A 
ATOM     25  C   UNL     1       3.299   0.650   1.130  0.00  0.00    +0.054 A 
ATOM     26  O   UNL     1       1.376   1.797  -0.001  0.00  0.00    -0.453 OA
ATOM     27  C   UNL     1      -0.018   1.436   0.010  0.00  0.00    +0.466 C 
ATOM     28  O   UNL     1       0.002  -0.004   0.002  0.00  0.00    -0.453 OA
ENDBRANCH  19  20
ENDBRANCH  17  19
ENDBRANCH   1  17
TORSDOF 5
