REMARK  Name = ZINC35363838
REMARK  3 active torsions:
REMARK  status: ('A' for Active; 'I' for Inactive)
REMARK    1  A    between atoms: C_1  and  C_2
REMARK    2  A    between atoms: C_12  and  C_30
REMARK    3  A    between atoms: C_30  and  C_32
REMARK                            x       y       z     vdW  Elec       q    Type
REMARK                         _______ _______ _______ _____ _____    ______ ____
ROOT
ATOM      1  C   UNL     1       0.051   1.493  -0.037  0.00  0.00    +0.047 C 
ATOM      2  C   UNL     1       0.056  -0.014  -0.033  0.00  0.00    -0.011 A 
ATOM      3  C   UNL     1       0.061  -0.706  -1.228  0.00  0.00    +0.046 A 
ATOM      4  C   UNL     1       0.066  -2.090  -1.235  0.00  0.00    +0.021 A 
ATOM      5  C   UNL     1       0.066  -2.783  -0.037  0.00  0.00    +0.009 A 
ATOM      6  C   UNL     1       0.060  -2.097   1.156  0.00  0.00    +0.004 A 
ATOM      7  C   UNL     1       0.062  -0.706   1.175  0.00  0.00    +0.043 A 
ATOM      8  N   UNL     1       0.064  -0.242   2.492  0.00  0.00    -0.283 N 
ATOM      9  C   UNL     1       0.069  -1.248   3.386  0.00  0.00    +0.243 C 
ATOM     10  O   UNL     1       0.072  -1.141   4.594  0.00  0.00    -0.273 OA
ATOM     11  C   UNL     1       0.057  -2.534   2.598  0.00  0.00    +0.138 C 
ATOM     12  C   UNL     1       1.309  -3.360   2.918  0.00  0.00    +0.118 C 
ATOM     13  C   UNL     1       0.781  -4.700   3.440  0.00  0.00    +0.102 C 
ATOM     14  C   UNL     1       1.561  -5.177   4.632  0.00  0.00    -0.009 A 
ATOM     15  C   UNL     1       1.808  -4.646   5.878  0.00  0.00    +0.006 A 
ATOM     16  C   UNL     1       2.585  -5.343   6.786  0.00  0.00    +0.000 A 
ATOM     17  C   UNL     1       3.113  -6.573   6.439  0.00  0.00    +0.002 A 
ATOM     18  C   UNL     1       2.869  -7.109   5.192  0.00  0.00    +0.023 A 
ATOM     19  C   UNL     1       2.087  -6.415   4.272  0.00  0.00    +0.038 A 
ATOM     20  N   UNL     1       1.702  -6.742   2.970  0.00  0.00    -0.284 N 
ATOM     21  C   UNL     1       0.932  -5.788   2.412  0.00  0.00    +0.230 C 
ATOM     22  O   UNL     1       0.453  -5.804   1.298  0.00  0.00    -0.274 OA
ATOM     23  C   UNL     1      -0.691  -4.458   3.790  0.00  0.00    +0.078 C 
ATOM     24  N   UNL     1      -1.124  -3.346   2.902  0.00  0.00    -0.280 NA
ATOM     25  C   UNL     1      -1.647  -3.992   1.674  0.00  0.00    +0.086 C 
ATOM     26  C   UNL     1      -2.409  -5.226   2.217  0.00  0.00    +0.017 C 
ATOM     27  C   UNL     1      -1.516  -5.701   3.408  0.00  0.00    +0.021 C 
ATOM     28 CL   UNL     1       0.060   0.165  -2.730  0.00  0.00    -0.083 Cl
ATOM     29  H   UNL     1       0.062   0.697   2.735  0.00  0.00    +0.155 HD
ATOM     30  H   UNL     1       1.960  -7.562   2.519  0.00  0.00    +0.155 HD
ENDROOT
BRANCH  12  31
ATOM     31  C   UNL     1       2.132  -2.672   3.977  0.00  0.00    +0.205 C 
ATOM     32  O   UNL     1       1.630  -2.382   5.044  0.00  0.00    -0.288 OA
BRANCH  31  33
ATOM     33  C   UNL     1       3.489  -2.364   3.728  0.00  0.00    +0.170 A 
ATOM     34  C   UNL     1       4.357  -1.744   4.604  0.00  0.00    +0.053 A 
ATOM     35  C   UNL     1       5.588  -1.643   3.942  0.00  0.00    +0.042 A 
ATOM     36  C   UNL     1       5.429  -2.192   2.715  0.00  0.00    +0.196 A 
ATOM     37  O   UNL     1       4.170  -2.629   2.592  0.00  0.00    -0.460 OA
ENDBRANCH  31  33
ENDBRANCH  12  31
TORSDOF 2
