REMARK  Name = ZINC59435024
REMARK  2 active torsions:
REMARK  status: ('A' for Active; 'I' for Inactive)
REMARK    1  A    between atoms: C_4  and  C_7
REMARK    2  A    between atoms: C_10  and  C_18
REMARK                            x       y       z     vdW  Elec       q    Type
REMARK                         _______ _______ _______ _____ _____    ______ ____
ROOT
ATOM      1  C   UNL     1       3.711  -0.707  -0.038  0.00  0.00    +0.104 C 
ATOM      2  C   UNL     1       4.019  -1.177  -1.464  0.00  0.00    +0.062 C 
ATOM      3  C   UNL     1       5.387  -1.869  -1.503  0.00  0.00    +0.178 C 
ATOM      4  N   UNL     1       5.445  -2.862  -0.431  0.00  0.00    -0.221 N 
ATOM      5  C   UNL     1       4.615  -2.860   0.656  0.00  0.00    +0.138 A 
ATOM      6  C   UNL     1       4.960  -3.916   1.416  0.00  0.00    +0.179 A 
ATOM      7  N   UNL     1       5.975  -4.555   0.823  0.00  0.00    -0.136 NA
ATOM      8  N   UNL     1       6.292  -3.958  -0.277  0.00  0.00    -0.063 NA
ATOM      9  N   UNL     1       3.630  -1.888   0.845  0.00  0.00    -0.321 N 
ATOM     10  H   UNL     1       2.934  -1.984   1.514  0.00  0.00    +0.148 HD
ENDROOT
BRANCH   1  14
ATOM     11  C   UNL     1      -0.017   1.378   0.010  0.00  0.00    +0.000 A 
ATOM     12  C   UNL     1       1.171   2.086   0.002  0.00  0.00    +0.000 A 
ATOM     13  C   UNL     1       2.377   1.411  -0.013  0.00  0.00    +0.005 A 
ATOM     14  C   UNL     1       2.396   0.029  -0.020  0.00  0.00    -0.027 A 
ATOM     15  C   UNL     1       1.208  -0.679  -0.012  0.00  0.00    +0.005 A 
ATOM     16  C   UNL     1       0.002  -0.004   0.002  0.00  0.00    +0.000 A 
ENDBRANCH   1  14
BRANCH   3  17
ATOM     17  C   UNL     1       6.476  -0.846  -1.307  0.00  0.00    +0.129 A 
ATOM     18  C   UNL     1       7.459  -0.566  -2.182  0.00  0.00    +0.047 A 
ATOM     19  C   UNL     1       8.251   0.449  -1.597  0.00  0.00    +0.041 A 
ATOM     20  C   UNL     1       7.705   0.728  -0.400  0.00  0.00    +0.195 A 
ATOM     21  O   UNL     1       6.626  -0.055  -0.232  0.00  0.00    -0.466 OA
ENDBRANCH   3  17
TORSDOF 2
