REMARK  Name = ZINC40682185
REMARK  5 active torsions:
REMARK  status: ('A' for Active; 'I' for Inactive)
REMARK    1  A    between atoms: C_1  and  C_2
REMARK    2  A    between atoms: C_4  and  C_28
REMARK    3  A    between atoms: C_6  and  N_8
REMARK    4  A    between atoms: C_10  and  N_27
REMARK    5  A    between atoms: C_11  and  N_15
REMARK                            x       y       z     vdW  Elec       q    Type
REMARK                         _______ _______ _______ _____ _____    ______ ____
ROOT
ATOM      1  N   UNL     1       0.013  -2.800   2.400  0.00  0.00    -0.298 N 
ATOM      2  C   UNL     1       0.128  -2.115   3.604  0.00  0.00    +0.149 A 
ATOM      3  C   UNL     1       0.255  -2.811   4.807  0.00  0.00    +0.106 A 
ATOM      4  C   UNL     1       0.368  -2.073   5.987  0.00  0.00    +0.147 A 
ATOM      5  N   UNL     1       0.350  -0.744   5.920  0.00  0.00    -0.219 NA
ATOM      6  C   UNL     1       0.228  -0.126   4.763  0.00  0.00    +0.225 A 
ATOM      7  N   UNL     1       0.124  -0.784   3.627  0.00  0.00    -0.219 NA
ATOM      8  H   UNL     1      -0.073  -3.767   2.398  0.00  0.00    +0.154 HD
ENDROOT
BRANCH   4   9
ATOM      9  N   UNL     1       0.496  -2.717   7.212  0.00  0.00    -0.311 N 
ATOM     10  C   UNL     1       1.816  -3.144   7.697  0.00  0.00    +0.125 C 
ATOM     11  C   UNL     1       2.049  -2.535   9.085  0.00  0.00    +0.125 C 
ATOM     12  N   UNL     1       0.868  -2.799   9.919  0.00  0.00    -0.314 N 
ATOM     13  C   UNL     1      -0.452  -2.371   9.433  0.00  0.00    +0.125 C 
ATOM     14  C   UNL     1      -0.684  -2.976   8.048  0.00  0.00    +0.125 C 
ATOM     15  C   UNL     1       0.996  -3.443  11.144  0.00  0.00    +0.099 A 
ATOM     16  C   UNL     1       2.263  -3.730  11.642  0.00  0.00    +0.042 A 
ATOM     17  C   UNL     1       2.376  -4.371  12.863  0.00  0.00    +0.005 A 
ATOM     18  C   UNL     1       1.214  -4.704  13.547  0.00  0.00    +0.018 A 
ATOM     19  C   UNL     1      -0.010  -4.389  12.993  0.00  0.00    +0.084 A 
ATOM     20  N   UNL     1      -0.088  -3.772  11.829  0.00  0.00    -0.350 N 
ATOM     21  H   UNL     1      -0.961  -3.558  11.464  0.00  0.00    +0.166 HD
ENDBRANCH   4   9
BRANCH   1  27
ATOM     22  C   UNL     1      -1.294  -2.501  -2.329  0.00  0.00    +0.044 C 
ATOM     23  C   UNL     1      -0.605  -1.929  -1.117  0.00  0.00    -0.048 A 
ATOM     24  C   UNL     1       0.035  -0.707  -1.200  0.00  0.00    +0.006 A 
ATOM     25  C   UNL     1       0.669  -0.178  -0.090  0.00  0.00    -0.048 A 
ATOM     26  C   UNL     1       0.663  -0.869   1.105  0.00  0.00    +0.026 A 
ATOM     27  C   UNL     1       0.020  -2.098   1.192  0.00  0.00    +0.033 A 
ATOM     28  C   UNL     1      -0.619  -2.624   0.076  0.00  0.00    +0.026 A 
ATOM     29  C   UNL     1       1.366   1.155  -0.185  0.00  0.00    +0.044 C 
ENDBRANCH   1  27
BRANCH   3  30
ATOM     30  N   UNL     1       0.269  -4.215   4.830  0.00  0.00    -0.353 N 
ATOM     31  H   UNL     1       0.263  -4.714   3.998  0.00  0.00    +0.143 HD
ATOM     32  H   UNL     1       0.284  -4.686   5.678  0.00  0.00    +0.143 HD
ENDBRANCH   3  30
TORSDOF 3
