REMARK  Name = ZINC20799432
REMARK  5 active torsions:
REMARK  status: ('A' for Active; 'I' for Inactive)
REMARK    1  A    between atoms: C_1  and  C_2
REMARK    2  A    between atoms: C_4  and  C_28
REMARK    3  A    between atoms: C_10  and  S_11
REMARK    4  A    between atoms: S_11  and  C_12
REMARK    5  A    between atoms: N_17  and  C_20
REMARK                            x       y       z     vdW  Elec       q    Type
REMARK                         _______ _______ _______ _____ _____    ______ ____
ROOT
ATOM      1  C   UNL     1       0.321  -6.781  -0.113  0.00  0.00    +0.150 C 
ATOM      2  C   UNL     1      -0.198  -8.217   0.102  0.00  0.00    +0.120 C 
ATOM      3  C   UNL     1       0.228  -8.941  -1.156  0.00  0.00    +0.228 C 
ATOM      4  O   UNL     1       0.016 -10.110  -1.400  0.00  0.00    -0.275 OA
ATOM      5  N   UNL     1       0.875  -8.087  -1.958  0.00  0.00    -0.209 N 
ATOM      6  C   UNL     1       0.988  -6.842  -1.470  0.00  0.00    +0.240 C 
ATOM      7  O   UNL     1       1.535  -5.913  -2.026  0.00  0.00    -0.274 OA
ENDROOT
BRANCH   5   8
ATOM      8  C   UNL     1       1.395  -8.462  -3.205  0.00  0.00    +0.045 A 
ATOM      9  C   UNL     1       2.769  -8.495  -3.404  0.00  0.00    +0.025 A 
ATOM     10  C   UNL     1       3.280  -8.866  -4.633  0.00  0.00    +0.023 A 
ATOM     11  C   UNL     1       2.423  -9.203  -5.666  0.00  0.00    +0.059 A 
ATOM     12  C   UNL     1       1.053  -9.171  -5.471  0.00  0.00    +0.061 A 
ATOM     13  C   UNL     1       0.538  -8.806  -4.241  0.00  0.00    +0.045 A 
ATOM     14 CL   UNL     1      -0.019  -9.595  -6.769  0.00  0.00    -0.082 Cl
ATOM     15 CL   UNL     1       3.068  -9.668  -7.210  0.00  0.00    -0.082 Cl
ENDBRANCH   5   8
BRANCH   1  16
ATOM     16  S   UNL     1      -1.056  -5.601  -0.131  0.00  0.00    -0.072 S 
BRANCH  16  26
ATOM     17  C   UNL     1      -1.736   1.299  -0.645  0.00  0.00    +0.066 C 
ATOM     18  C   UNL     1      -1.429  -0.173  -0.544  0.00  0.00    +0.044 A 
ATOM     19  C   UNL     1      -2.479  -1.097  -0.412  0.00  0.00    +0.044 A 
ATOM     20  C   UNL     1      -2.196  -2.418  -0.322  0.00  0.00    +0.028 A 
ATOM     21  N   UNL     1      -0.891  -2.819  -0.362  0.00  0.00    -0.259 N 
ATOM     22  C   UNL     1       0.116  -1.885  -0.493  0.00  0.00    +0.257 A 
ATOM     23  N   UNL     1      -0.183  -0.582  -0.585  0.00  0.00    -0.216 NA
ATOM     24  N   UNL     1       1.254  -2.554  -0.503  0.00  0.00    -0.108 NA
ATOM     25  N   UNL     1       1.021  -3.813  -0.389  0.00  0.00    -0.120 NA
ATOM     26  C   UNL     1      -0.271  -4.032  -0.300  0.00  0.00    +0.198 A 
ATOM     27  C   UNL     1      -3.304  -3.430  -0.179  0.00  0.00    +0.064 C 
ENDBRANCH  16  26
ENDBRANCH   1  16
TORSDOF 3
