REMARK  Name = ZINC12772630
REMARK  8 active torsions:
REMARK  status: ('A' for Active; 'I' for Inactive)
REMARK    1  A    between atoms: C_1  and  C_2
REMARK    2  A    between atoms: C_5  and  N_9
REMARK    3  A    between atoms: C_10  and  C_12
REMARK    4  A    between atoms: C_12  and  N_44
REMARK    5  A    between atoms: C_13  and  C_14
REMARK    6  A    between atoms: C_13  and  N_44
REMARK    7  A    between atoms: C_19  and  C_20
REMARK    8  A    between atoms: C_19  and  N_44
REMARK                            x       y       z     vdW  Elec       q    Type
REMARK                         _______ _______ _______ _____ _____    ______ ____
ROOT
ATOM      1  C   UNL     1      -4.247  -0.005   2.124  0.00  0.00    +0.020 C 
ENDROOT
BRANCH   1   3
ATOM      2  N   UNL     1      -4.388  -2.267   1.132  0.00  0.00    -0.285 N 
ATOM      3  C   UNL     1      -3.726  -1.406   1.930  0.00  0.00    +0.201 C 
ATOM      4  O   UNL     1      -2.712  -1.759   2.493  0.00  0.00    -0.278 OA
ATOM      5  H   UNL     1      -5.154  -1.963   0.621  0.00  0.00    +0.155 HD
BRANCH   2  10
ATOM      6  C   UNL     1      -2.690  -7.669   0.760  0.00  0.00    +0.044 C 
ATOM      7  C   UNL     1      -3.141  -6.235   0.858  0.00  0.00    -0.048 A 
ATOM      8  C   UNL     1      -4.470  -5.945   1.107  0.00  0.00    +0.020 A 
ATOM      9  C   UNL     1      -4.887  -4.630   1.198  0.00  0.00    +0.040 A 
ATOM     10  C   UNL     1      -3.969  -3.600   1.040  0.00  0.00    +0.062 A 
ATOM     11  C   UNL     1      -2.636  -3.894   0.785  0.00  0.00    +0.040 A 
ATOM     12  C   UNL     1      -2.225  -5.211   0.701  0.00  0.00    +0.020 A 
ATOM     13 BR   UNL     1      -1.383  -2.495   0.560  0.00  0.00    -0.048 Br
ATOM     14 BR   UNL     1      -6.705  -4.235   1.538  0.00  0.00    -0.048 Br
ENDBRANCH   2  10
ENDBRANCH   1   3
BRANCH   1  15
ATOM     15  N   UNL     1      -3.409   0.676   3.132  0.00  0.00    +0.393 N 
ATOM     16  H   UNL     1      -3.196   0.016   3.889  0.00  0.00    -0.080 HD
BRANCH  15  17
ATOM     17  C   UNL     1      -4.136   1.833   3.695  0.00  0.00    -0.002 C 
BRANCH  17  18
ATOM     18  C   UNL     1      -5.337   1.331   4.455  0.00  0.00    +0.089 A 
ATOM     19  C   UNL     1      -5.376   1.058   5.772  0.00  0.00    +0.042 A 
ATOM     20  C   UNL     1      -6.688   0.617   6.060  0.00  0.00    +0.041 A 
ATOM     21  C   UNL     1      -7.372   0.647   4.902  0.00  0.00    +0.195 A 
ATOM     22  O   UNL     1      -6.550   1.086   3.934  0.00  0.00    -0.470 OA
ENDBRANCH  17  18
ENDBRANCH  15  17
BRANCH  15  23
ATOM     23  C   UNL     1      -2.143   1.126   2.516  0.00  0.00    -0.034 C 
BRANCH  23  24
ATOM     24  C   UNL     1      -1.221   1.616   3.603  0.00  0.00    -0.027 A 
ATOM     25  C   UNL     1      -0.315   0.919   4.332  0.00  0.00    +0.009 A 
ATOM     26  C   UNL     1       0.435   1.585   5.283  0.00  0.00    +0.008 A 
ATOM     27  C   UNL     1       0.239   2.914   5.462  0.00  0.00    +0.045 A 
ATOM     28  S   UNL     1      -1.039   3.264   4.265  0.00  0.00    -0.103 S 
ENDBRANCH  23  24
ENDBRANCH  15  23
ENDBRANCH   1  15
TORSDOF 7
