REMARK  Name = ZINC36705402
REMARK  6 active torsions:
REMARK  status: ('A' for Active; 'I' for Inactive)
REMARK    1  A    between atoms: C_1  and  C_2
REMARK    2  A    between atoms: C_5  and  C_8
REMARK    3  A    between atoms: C_8  and  N_9
REMARK    4  A    between atoms: N_14  and  C_15
REMARK    5  A    between atoms: C_15  and  C_17
REMARK    6  A    between atoms: C_19  and  C_22
REMARK                            x       y       z     vdW  Elec       q    Type
REMARK                         _______ _______ _______ _____ _____    ______ ____
ROOT
ATOM      1  N   UNL     1       1.447  -4.746  -0.032  0.00  0.00    -0.324 N 
ATOM      2  C   UNL     1       2.097  -4.956  -1.207  0.00  0.00    +0.095 A 
ATOM      3  C   UNL     1       3.363  -5.386  -1.140  0.00  0.00    +0.066 A 
ATOM      4  S   UNL     1       3.625  -5.490   0.621  0.00  0.00    -0.061 S 
ATOM      5  C   UNL     1       2.109  -4.974   1.135  0.00  0.00    +0.166 A 
ATOM      6  N   UNL     1       1.664  -4.828   2.382  0.00  0.00    -0.149 NA
ENDROOT
BRANCH   6   7
ATOM      7  C   UNL     1       2.465  -5.103   3.414  0.00  0.00    +0.307 C 
ATOM      8  O   UNL     1       3.605  -5.489   3.215  0.00  0.00    -0.265 OA
BRANCH   7   9
ATOM      9  C   UNL     1       1.972  -4.941   4.797  0.00  0.00    +0.224 A 
ATOM     10  C   UNL     1       2.678  -5.178   5.934  0.00  0.00    +0.080 A 
ATOM     11  C   UNL     1       1.843  -4.901   7.029  0.00  0.00    +0.081 A 
ATOM     12  N   UNL     1       0.686  -4.513   6.573  0.00  0.00    -0.083 NA
ATOM     13  O   UNL     1       0.742  -4.524   5.158  0.00  0.00    -0.350 OA
ATOM     14  C   UNL     1       2.221  -5.030   8.482  0.00  0.00    +0.069 C 
ENDBRANCH   7   9
ENDBRANCH   6   7
BRANCH   1  15
ATOM     15  C   UNL     1       0.059  -4.275  -0.021  0.00  0.00    +0.158 C 
BRANCH  15  20
ATOM     16  C   UNL     1      -0.018   1.503   0.010  0.00  0.00    +0.044 C 
ATOM     17  C   UNL     1       0.002  -0.004   0.002  0.00  0.00    -0.050 A 
ATOM     18  C   UNL     1       0.006  -0.689  -1.199  0.00  0.00    +0.004 A 
ATOM     19  C   UNL     1       0.025  -2.071  -1.206  0.00  0.00    +0.005 A 
ATOM     20  C   UNL     1       0.040  -2.768  -0.013  0.00  0.00    -0.028 A 
ATOM     21  C   UNL     1       0.037  -2.084   1.188  0.00  0.00    +0.005 A 
ATOM     22  C   UNL     1       0.023  -0.702   1.195  0.00  0.00    +0.004 A 
ENDBRANCH  15  20
ENDBRANCH   1  15
TORSDOF 4
