REMARK  Name = ZINC54541595
REMARK  6 active torsions:
REMARK  status: ('A' for Active; 'I' for Inactive)
REMARK    1  A    between atoms: C_1  and  C_2
REMARK    2  A    between atoms: C_6  and  N_9
REMARK    3  A    between atoms: C_7  and  C_8
REMARK    4  A    between atoms: C_16  and  N_32
REMARK    5  A    between atoms: C_17  and  N_21
REMARK    6  A    between atoms: N_21  and  C_22
REMARK                            x       y       z     vdW  Elec       q    Type
REMARK                         _______ _______ _______ _____ _____    ______ ____
ROOT
ATOM      1  N   UNL     1      -1.133  -3.920   1.748  0.00  0.00    -0.327 N 
ATOM      2  C   UNL     1      -1.120  -5.389   1.780  0.00  0.00    +0.124 C 
ATOM      3  C   UNL     1       0.085  -5.851   2.607  0.00  0.00    +0.125 C 
ATOM      4  N   UNL     1       0.091  -5.115   3.880  0.00  0.00    -0.311 N 
ATOM      5  C   UNL     1       0.078  -3.646   3.848  0.00  0.00    +0.125 C 
ATOM      6  C   UNL     1      -1.122  -3.184   3.020  0.00  0.00    +0.124 C 
ATOM      7  C   UNL     1       0.108  -5.797   5.091  0.00  0.00    +0.147 A 
ATOM      8  C   UNL     1       1.317  -6.199   5.661  0.00  0.00    +0.105 A 
ATOM      9  C   UNL     1       1.277  -6.880   6.879  0.00  0.00    +0.145 A 
ATOM     10  N   UNL     1       0.097  -7.118   7.446  0.00  0.00    -0.219 NA
ATOM     11  C   UNL     1      -1.022  -6.721   6.874  0.00  0.00    +0.225 A 
ATOM     12  N   UNL     1      -1.028  -6.072   5.728  0.00  0.00    -0.219 NA
ENDROOT
BRANCH   1  18
ATOM     13  C   UNL     1      -3.687  -1.858  -1.910  0.00  0.00    +0.044 C 
ATOM     14  C   UNL     1      -2.374  -2.223  -1.266  0.00  0.00    -0.046 A 
ATOM     15  C   UNL     1      -1.184  -1.879  -1.880  0.00  0.00    +0.004 A 
ATOM     16  C   UNL     1       0.023  -2.212  -1.293  0.00  0.00    +0.002 A 
ATOM     17  C   UNL     1       0.043  -2.889  -0.089  0.00  0.00    +0.023 A 
ATOM     18  C   UNL     1      -1.150  -3.235   0.531  0.00  0.00    +0.033 A 
ATOM     19  C   UNL     1      -2.361  -2.895  -0.059  0.00  0.00    -0.027 A 
ATOM     20  C   UNL     1      -3.658  -3.263   0.613  0.00  0.00    +0.046 C 
ENDBRANCH   1  18
BRANCH   8  21
ATOM     21  N   UNL     1       2.540  -5.926   5.027  0.00  0.00    -0.353 N 
ATOM     22  H   UNL     1       2.560  -5.375   4.229  0.00  0.00    +0.143 HD
ATOM     23  H   UNL     1       3.365  -6.288   5.387  0.00  0.00    +0.143 HD
ENDBRANCH   8  21
BRANCH   9  24
ATOM     24  N   UNL     1       2.452  -7.302   7.490  0.00  0.00    -0.322 N 
ATOM     25  H   UNL     1       3.308  -7.125   7.070  0.00  0.00    +0.148 HD
BRANCH  24  26
ATOM     26  C   UNL     1       2.397  -8.016   8.768  0.00  0.00    +0.034 C 
ATOM     27  C   UNL     1       1.585  -9.302   8.600  0.00  0.00    +0.029 C 
ATOM     28  C   UNL     1       1.527 -10.047   9.935  0.00  0.00    -0.008 C 
ATOM     29  C   UNL     1       2.947 -10.396  10.386  0.00  0.00    +0.007 C 
ATOM     30  C   UNL     1       3.760  -9.111  10.554  0.00  0.00    -0.008 C 
ATOM     31  C   UNL     1       3.817  -8.365   9.219  0.00  0.00    +0.029 C 
ATOM     32  C   UNL     1       3.095  -8.221  11.606  0.00  0.00    +0.007 C 
ATOM     33  C   UNL     1       1.675  -7.872  11.156  0.00  0.00    -0.008 C 
ATOM     34  C   UNL     1       0.863  -9.157  10.988  0.00  0.00    +0.007 C 
ATOM     35  C   UNL     1       1.732  -7.127   9.821  0.00  0.00    +0.029 C 
ENDBRANCH  24  26
ENDBRANCH   9  24
TORSDOF 4
