REMARK  Name = ZINC63807273
REMARK  6 active torsions:
REMARK  status: ('A' for Active; 'I' for Inactive)
REMARK    1  A    between atoms: C_1  and  C_2
REMARK    2  A    between atoms: C_4  and  C_14
REMARK    3  A    between atoms: C_6  and  C_11
REMARK    4  A    between atoms: C_11  and  C_12
REMARK    5  A    between atoms: C_11  and  C_13
REMARK    6  A    between atoms: N_16  and  C_17
REMARK                            x       y       z     vdW  Elec       q    Type
REMARK                         _______ _______ _______ _____ _____    ______ ____
ROOT
ATOM      1  C   UNL     1      -0.443   1.497   0.064  0.00  0.00    +0.070 C 
ATOM      2  C   UNL     1      -0.341  -0.006   0.049  0.00  0.00    +0.091 A 
ATOM      3  C   UNL     1      -0.264  -0.858  -1.137  0.00  0.00    +0.076 A 
ATOM      4  C   UNL     1      -0.258  -0.608  -2.524  0.00  0.00    +0.053 A 
ATOM      5  C   UNL     1      -0.171  -1.704  -3.382  0.00  0.00    +0.037 A 
ATOM      6  C   UNL     1      -0.094  -2.979  -2.844  0.00  0.00    +0.048 A 
ATOM      7  N   UNL     1      -0.102  -3.182  -1.544  0.00  0.00    -0.215 NA
ATOM      8  C   UNL     1      -0.183  -2.183  -0.678  0.00  0.00    +0.259 A 
ATOM      9  O   UNL     1      -0.209  -2.132   0.670  0.00  0.00    -0.334 OA
ATOM     10  N   UNL     1      -0.300  -0.785   1.087  0.00  0.00    -0.080 NA
ENDROOT
BRANCH   4  11
ATOM     11  C   UNL     1      -0.343   0.771  -3.052  0.00  0.00    +0.249 C 
ATOM     12  O   UNL     1       0.243   1.675  -2.489  0.00  0.00    -0.270 OA
ATOM     13  N   UNL     1      -1.069   1.026  -4.158  0.00  0.00    -0.281 N 
ATOM     14  H   UNL     1      -1.603   0.323  -4.561  0.00  0.00    +0.155 HD
BRANCH  13  15
ATOM     15  C   UNL     1      -1.054   2.292  -4.721  0.00  0.00    +0.034 C 
ATOM     16  C   UNL     1      -0.678   2.462  -6.046  0.00  0.00    +0.029 C 
ATOM     17  C   UNL     1      -0.646   3.790  -6.488  0.00  0.00    -0.016 C 
ATOM     18  C   UNL     1      -0.859   4.360  -7.691  0.00  0.00    +0.025 C 
ATOM     19  C   UNL     1      -0.983   5.754  -7.531  0.00  0.00    +0.106 C 
ATOM     20  N   UNL     1      -0.767   6.130  -6.301  0.00  0.00    -0.279 NA
ATOM     21  C   UNL     1      -0.376   4.950  -5.543  0.00  0.00    +0.158 C 
ATOM     22  C   UNL     1      -1.159   4.711  -4.288  0.00  0.00    +0.006 C 
ATOM     23  C   UNL     1      -1.442   3.458  -3.921  0.00  0.00    +0.021 C 
ENDBRANCH  13  15
ENDBRANCH   4  11
BRANCH   6  24
ATOM     24  C   UNL     1       0.000  -4.163  -3.771  0.00  0.00    +0.032 C 
ATOM     25  C   UNL     1      -1.405  -4.582  -4.207  0.00  0.00    +0.014 C 
ATOM     26  C   UNL     1       0.824  -3.782  -5.003  0.00  0.00    +0.014 C 
ENDBRANCH   6  24
TORSDOF 3
