REMARK  Name = ZINC57345675
REMARK  9 active torsions:
REMARK  status: ('A' for Active; 'I' for Inactive)
REMARK    1  A    between atoms: C_1  and  C_2
REMARK    2  A    between atoms: C_9  and  C_11
REMARK    3  A    between atoms: C_13  and  N_19
REMARK    4  A    between atoms: C_15  and  C_18
REMARK    5  A    between atoms: C_16  and  O_17
REMARK    6  A    between atoms: C_20  and  C_22
REMARK    7  A    between atoms: C_22  and  C_24
REMARK    8  A    between atoms: C_22  and  O_31
REMARK    9  A    between atoms: O_31  and  C_32
REMARK                            x       y       z     vdW  Elec       q    Type
REMARK                         _______ _______ _______ _____ _____    ______ ____
ROOT
ATOM      1  C   UNL     1       0.280  -5.505   2.335  0.00  0.00    +0.080 A 
ATOM      2  C   UNL     1       0.276  -5.518   3.731  0.00  0.00    +0.040 A 
ATOM      3  C   UNL     1       0.116  -6.715   4.409  0.00  0.00    +0.035 A 
ATOM      4  C   UNL     1      -0.041  -7.902   3.701  0.00  0.00    +0.030 A 
ATOM      5  C   UNL     1      -0.038  -7.896   2.321  0.00  0.00    -0.007 A 
ATOM      6  C   UNL     1       0.115  -6.704   1.630  0.00  0.00    +0.132 A 
ATOM      7  C   UNL     1      -0.208  -9.187   1.563  0.00  0.00    +0.047 C 
ENDROOT
BRANCH   1  16
ATOM      8  C   UNL     1       1.218   1.441   0.027  0.00  0.00    +0.044 C 
ATOM      9  C   UNL     1       1.015  -0.052   0.016  0.00  0.00    -0.048 A 
ATOM     10  C   UNL     1       0.920  -0.725  -1.193  0.00  0.00    +0.007 A 
ATOM     11  C   UNL     1       0.734  -2.092  -1.220  0.00  0.00    +0.049 A 
ATOM     12  C   UNL     1       0.641  -2.801  -0.033  0.00  0.00    +0.156 A 
ATOM     13  C   UNL     1       0.736  -2.123   1.194  0.00  0.00    +0.110 A 
ATOM     14  C   UNL     1       0.930  -0.740   1.206  0.00  0.00    +0.035 A 
ATOM     15  N   UNL     1       0.611  -3.061   2.168  0.00  0.00    -0.209 NA
ATOM     16  C   UNL     1       0.450  -4.233   1.606  0.00  0.00    +0.232 A 
ATOM     17  O   UNL     1       0.464  -4.107   0.265  0.00  0.00    -0.435 OA
ENDBRANCH   1  16
BRANCH   3  18
ATOM     18  N   UNL     1       0.113  -6.730   5.810  0.00  0.00    -0.283 N 
ATOM     19  C   UNL     1      -0.397  -5.687   6.494  0.00  0.00    +0.251 C 
ATOM     20  O   UNL     1      -0.939  -4.778   5.900  0.00  0.00    -0.272 OA
ATOM     21  H   UNL     1       0.477  -7.492   6.287  0.00  0.00    +0.155 HD
BRANCH  19  22
ATOM     22  C   UNL     1      -0.294  -5.648   7.997  0.00  0.00    +0.234 C 
BRANCH  22  23
ATOM     23  C   UNL     1       1.155  -5.551   8.399  0.00  0.00    -0.010 A 
ATOM     24  C   UNL     1       1.773  -4.316   8.462  0.00  0.00    +0.009 A 
ATOM     25  C   UNL     1       3.102  -4.226   8.831  0.00  0.00    +0.039 A 
ATOM     26  C   UNL     1       3.814  -5.373   9.137  0.00  0.00    +0.123 A 
ATOM     27  C   UNL     1       3.195  -6.609   9.073  0.00  0.00    +0.039 A 
ATOM     28  C   UNL     1       1.864  -6.697   8.709  0.00  0.00    +0.009 A 
ATOM     29  F   UNL     1       5.114  -5.286   9.497  0.00  0.00    -0.205 F 
ENDBRANCH  22  23
BRANCH  22  30
ATOM     30  O   UNL     1      -1.003  -4.512   8.494  0.00  0.00    -0.366 OA
ATOM     31  C   UNL     1      -1.554  -4.696   9.800  0.00  0.00    +0.195 C 
ENDBRANCH  22  30
ENDBRANCH  19  22
ENDBRANCH   3  18
BRANCH   6  32
ATOM     32  O   UNL     1       0.111  -6.699   0.272  0.00  0.00    -0.506 OA
ATOM     33  H   UNL     1       0.985  -6.816  -0.124  0.00  0.00    +0.292 HD
ENDBRANCH   6  32
TORSDOF 6
