REMARK  Name = ZINC65527588
REMARK  7 active torsions:
REMARK  status: ('A' for Active; 'I' for Inactive)
REMARK    1  A    between atoms: C_1  and  C_2
REMARK    2  A    between atoms: C_5  and  C_7
REMARK    3  A    between atoms: C_7  and  C_8
REMARK    4  A    between atoms: C_7  and  N_9
REMARK    5  A    between atoms: N_12  and  C_13
REMARK    6  A    between atoms: C_13  and  C_14
REMARK    7  A    between atoms: N_23  and  C_26
REMARK                            x       y       z     vdW  Elec       q    Type
REMARK                         _______ _______ _______ _____ _____    ______ ____
ROOT
ATOM      1  C   UNL     1       4.000  -6.709   2.819  0.00  0.00    +0.142 C 
ENDROOT
BRANCH   1   2
ATOM      2  C   UNL     1       5.225  -6.514   3.675  0.00  0.00    -0.012 A 
ATOM      3  C   UNL     1       6.483  -6.441   3.092  0.00  0.00    +0.010 A 
ATOM      4  C   UNL     1       7.582  -6.263   3.913  0.00  0.00    +0.044 A 
ATOM      5  C   UNL     1       7.390  -6.162   5.287  0.00  0.00    +0.121 A 
ATOM      6  N   UNL     1       6.173  -6.237   5.805  0.00  0.00    -0.240 NA
ATOM      7  C   UNL     1       5.107  -6.401   5.045  0.00  0.00    +0.118 A 
ATOM      8  N   UNL     1       8.485  -5.983   6.125  0.00  0.00    -0.319 N 
ATOM      9  C   UNL     1       8.304  -5.652   7.547  0.00  0.00    +0.088 C 
ATOM     10  C   UNL     1       9.149  -6.620   8.382  0.00  0.00    -0.060 C 
ATOM     11  N   UNL     1      10.542  -6.574   7.921  0.00  0.00    +0.380 N 
ATOM     12  C   UNL     1      10.629  -7.064   6.540  0.00  0.00    -0.060 C 
ATOM     13  C   UNL     1       9.858  -6.124   5.615  0.00  0.00    +0.088 C 
ATOM     14  C   UNL     1      11.372  -7.418   8.792  0.00  0.00    -0.096 C 
ATOM     15  H   UNL     1      10.877  -5.623   7.961  0.00  0.00    -0.082 HD
ENDBRANCH   1   2
BRANCH   1  19
ATOM     16  N   UNL     1       1.887  -4.127   1.273  0.00  0.00    -0.292 N 
ATOM     17  C   UNL     1       2.372  -5.329   1.643  0.00  0.00    +0.300 C 
ATOM     18  O   UNL     1       1.817  -6.347   1.277  0.00  0.00    -0.253 OA
ATOM     19  N   UNL     1       3.472  -5.402   2.417  0.00  0.00    -0.295 N 
ATOM     20  H   UNL     1       2.330  -3.315   1.565  0.00  0.00    +0.151 HD
ATOM     21  H   UNL     1       3.915  -4.590   2.709  0.00  0.00    +0.151 HD
BRANCH  16  22
ATOM     22  C   UNL     1       0.691  -4.048   0.431  0.00  0.00    +0.108 C 
ATOM     23  C   UNL     1       1.093  -4.173  -1.040  0.00  0.00    +0.033 C 
BRANCH  22  28
ATOM     24  C   UNL     1      -0.962   1.303   1.287  0.00  0.00    +0.051 C 
ATOM     25  C   UNL     1      -0.779  -0.176   1.061  0.00  0.00    -0.013 A 
ATOM     26  C   UNL     1      -1.721  -1.145   0.952  0.00  0.00    +0.011 A 
ATOM     27  C   UNL     1      -1.318  -2.450   0.743  0.00  0.00    +0.013 A 
ATOM     28  C   UNL     1       0.007  -2.723   0.653  0.00  0.00    +0.010 A 
ATOM     29  S   UNL     1       0.732  -1.105   0.860  0.00  0.00    -0.097 S 
ENDBRANCH  22  28
ENDBRANCH  16  22
ENDBRANCH   1  19
TORSDOF 4
