REMARK  Name = ZINC64795590
REMARK  6 active torsions:
REMARK  status: ('A' for Active; 'I' for Inactive)
REMARK    1  A    between atoms: C_2  and  C_3
REMARK    2  A    between atoms: C_3  and  O_4
REMARK    3  A    between atoms: O_4  and  C_5
REMARK    4  A    between atoms: C_8  and  C_11
REMARK    5  A    between atoms: C_20  and  C_29
REMARK    6  A    between atoms: C_21  and  C_22
REMARK                            x       y       z     vdW  Elec       q    Type
REMARK                         _______ _______ _______ _____ _____    ______ ____
ROOT
ATOM      1  C   UNL     1       5.900  -4.992   1.394  0.00  0.00    +0.066 C 
ATOM      2  C   UNL     1       6.428  -4.933   2.833  0.00  0.00    +0.109 C 
ATOM      3  C   UNL     1       7.383  -6.063   3.093  0.00  0.00    +0.218 C 
ATOM      4  O   UNL     1       8.360  -5.850   3.780  0.00  0.00    -0.275 OA
ATOM      5  N   UNL     1       7.203  -7.299   2.597  0.00  0.00    -0.284 N 
ATOM      6  C   UNL     1       6.178  -7.510   1.631  0.00  0.00    +0.053 A 
ATOM      7  C   UNL     1       5.566  -6.419   1.074  0.00  0.00    +0.020 A 
ATOM      8  S   UNL     1       4.428  -7.017   0.015  0.00  0.00    -0.084 S 
ATOM      9  C   UNL     1       4.733  -8.762   0.230  0.00  0.00    +0.110 A 
ATOM     10  C   UNL     1       5.759  -8.762   1.185  0.00  0.00    +0.025 A 
ATOM     11  H   UNL     1       7.762  -8.035   2.892  0.00  0.00    +0.155 HD
ENDROOT
BRANCH  10  12
ATOM     12  C   UNL     1       6.361 -10.017   1.690  0.00  0.00    -0.015 A 
ATOM     13  C   UNL     1       7.702 -10.302   1.433  0.00  0.00    +0.010 A 
ATOM     14  C   UNL     1       8.258 -11.473   1.906  0.00  0.00    +0.020 A 
ATOM     15  C   UNL     1       7.487 -12.364   2.634  0.00  0.00    +0.041 A 
ATOM     16  C   UNL     1       6.155 -12.086   2.891  0.00  0.00    +0.020 A 
ATOM     17  C   UNL     1       5.590 -10.916   2.428  0.00  0.00    +0.010 A 
ATOM     18 CL   UNL     1       8.194 -13.835   3.225  0.00  0.00    -0.084 Cl
ENDBRANCH  10  12
BRANCH   1  22
ATOM     19  C   UNL     1       2.392  -2.577   1.044  0.00  0.00    +0.121 A 
ATOM     20  C   UNL     1       3.505  -2.304   0.262  0.00  0.00    +0.046 A 
ATOM     21  C   UNL     1       4.638  -3.086   0.377  0.00  0.00    +0.008 A 
ATOM     22  C   UNL     1       4.663  -4.141   1.271  0.00  0.00    -0.039 A 
ATOM     23  C   UNL     1       3.556  -4.415   2.051  0.00  0.00    +0.008 A 
ATOM     24  C   UNL     1       2.422  -3.632   1.944  0.00  0.00    +0.046 A 
BRANCH  19  25
ATOM     25  O   UNL     1       1.277  -1.809   0.933  0.00  0.00    -0.488 OA
BRANCH  25  26
ATOM     26  C   UNL     1       1.317  -0.740  -0.015  0.00  0.00    +0.256 C 
BRANCH  26  28
ATOM     27  C   UNL     1      -0.016   1.306   0.009  0.00  0.00    +0.007 C 
ATOM     28  C   UNL     1       0.002  -0.004   0.002  0.00  0.00    +0.006 C 
ENDBRANCH  26  28
ENDBRANCH  25  26
ENDBRANCH  19  25
ENDBRANCH   1  22
BRANCH   9  29
ATOM     29  C   UNL     1       4.103  -9.859  -0.400  0.00  0.00    +0.394 C 
ATOM     30  O   UNL     1       3.213  -9.666  -1.221  0.00  0.00    -0.240 OA
ATOM     31  O   UNL     1       4.447 -11.003  -0.126  0.00  0.00    -0.240 OA
ENDBRANCH   9  29
TORSDOF 6
