REMARK  Name = ZINC35338017
REMARK  6 active torsions:
REMARK  status: ('A' for Active; 'I' for Inactive)
REMARK    1  A    between atoms: C_1  and  C_2
REMARK    2  A    between atoms: C_8  and  C_10
REMARK    3  A    between atoms: C_10  and  N_11
REMARK    4  A    between atoms: N_11  and  C_12
REMARK    5  A    between atoms: C_12  and  C_13
REMARK    6  A    between atoms: C_15  and  C_17
REMARK                            x       y       z     vdW  Elec       q    Type
REMARK                         _______ _______ _______ _____ _____    ______ ____
ROOT
ATOM      1  N   UNL     1      -0.069  -7.581  -0.083  0.00  0.00    -0.285 N 
ATOM      2  C   UNL     1      -0.654  -7.748   1.120  0.00  0.00    +0.249 C 
ATOM      3  O   UNL     1      -1.730  -8.308   1.200  0.00  0.00    -0.270 OA
ENDROOT
BRANCH   2   4
ATOM      4  C   UNL     1       0.013  -7.251   2.340  0.00  0.00    +0.055 A 
ATOM      5  C   UNL     1       0.904  -6.178   2.265  0.00  0.00    +0.016 A 
ATOM      6  C   UNL     1       1.523  -5.719   3.408  0.00  0.00    +0.021 A 
ATOM      7  C   UNL     1       1.265  -6.319   4.630  0.00  0.00    +0.042 A 
ATOM      8  C   UNL     1       0.384  -7.384   4.712  0.00  0.00    +0.040 A 
ATOM      9  C   UNL     1      -0.248  -7.849   3.576  0.00  0.00    +0.054 A 
ATOM     10 CL   UNL     1      -1.359  -9.179   3.681  0.00  0.00    -0.083 Cl
ATOM     11 CL   UNL     1       2.050  -5.734   6.063  0.00  0.00    -0.083 Cl
ENDBRANCH   2   4
BRANCH   1  12
ATOM     12  C   UNL     1       1.244  -6.940  -0.176  0.00  0.00    +0.204 C 
BRANCH  12  20
ATOM     13  C   UNL     1       2.512   0.354  -2.808  0.00  0.00    +0.053 C 
ATOM     14  C   UNL     1       2.155  -1.028  -2.323  0.00  0.00    +0.008 A 
ATOM     15  C   UNL     1       0.942  -1.627  -2.235  0.00  0.00    +0.124 A 
ATOM     16  N   UNL     1       0.915  -2.861  -1.768  0.00  0.00    -0.233 NA
ATOM     17  C   UNL     1       2.021  -3.476  -1.407  0.00  0.00    +0.165 A 
ATOM     18  S   UNL     1       3.214  -2.330  -1.714  0.00  0.00    -0.057 S 
ATOM     19  N   UNL     1       2.168  -4.762  -0.900  0.00  0.00    -0.263 N 
ATOM     20  C   UNL     1       1.085  -5.546  -0.726  0.00  0.00    +0.236 C 
ATOM     21  O   UNL     1      -0.018  -5.129  -1.012  0.00  0.00    -0.274 OA
ATOM     22  H   UNL     1       3.049  -5.095  -0.672  0.00  0.00    +0.157 HD
ENDBRANCH  12  20
ENDBRANCH   1  12
BRANCH   1  23
ATOM     23  C   UNL     1      -0.748  -8.041  -1.298  0.00  0.00    +0.135 C 
BRANCH  23  24
ATOM     24  C   UNL     1      -0.446  -9.501  -1.520  0.00  0.00    -0.016 C 
ATOM     25  C   UNL     1      -1.427 -10.359  -1.657  0.00  0.00    +0.005 C 
ENDBRANCH  23  24
ENDBRANCH   1  23
TORSDOF 5
