REMARK  Name = ZINC35742341
REMARK  9 active torsions:
REMARK  status: ('A' for Active; 'I' for Inactive)
REMARK    1  A    between atoms: C_1  and  C_2
REMARK    2  A    between atoms: C_7  and  O_8
REMARK    3  A    between atoms: O_8  and  C_9
REMARK    4  A    between atoms: C_9  and  C_10
REMARK    5  A    between atoms: C_20  and  C_22
REMARK    6  A    between atoms: C_22  and  N_23
REMARK    7  A    between atoms: N_23  and  C_24
REMARK    8  A    between atoms: C_24  and  C_25
REMARK    9  A    between atoms: C_27  and  C_29
REMARK                            x       y       z     vdW  Elec       q    Type
REMARK                         _______ _______ _______ _____ _____    ______ ____
ROOT
ATOM      1  C   UNL     1       0.057   2.371   5.099  0.00  0.00    +0.144 C 
ATOM      2  C   UNL     1       0.665   3.772   5.059  0.00  0.00    -0.014 A 
ATOM      3  C   UNL     1       1.994   4.036   5.383  0.00  0.00    +0.013 A 
ATOM      4  C   UNL     1       2.466   5.303   5.321  0.00  0.00    +0.046 A 
ATOM      5  S   UNL     1       1.022   6.208   4.789  0.00  0.00    -0.101 S 
ATOM      6  C   UNL     1      -0.099   4.837   4.692  0.00  0.00    -0.004 A 
ATOM      7  C   UNL     1      -1.542   4.842   4.306  0.00  0.00    +0.061 C 
ATOM      8  C   UNL     1      -1.971   3.402   3.985  0.00  0.00    +0.114 C 
ATOM      9  N   UNL     1      -1.403   2.511   5.008  0.00  0.00    -0.289 N 
ATOM     10  C   UNL     1      -2.209   1.833   5.849  0.00  0.00    +0.234 C 
ATOM     11  O   UNL     1      -1.730   1.101   6.690  0.00  0.00    -0.274 OA
ENDROOT
BRANCH   1  12
ATOM     12  C   UNL     1       0.573   1.547   3.918  0.00  0.00    +0.256 C 
BRANCH  12  13
ATOM     13  O   UNL     1       0.324   2.253   2.700  0.00  0.00    -0.490 OA
BRANCH  13  20
ATOM     14  C   UNL     1      -0.159   3.631   0.282  0.00  0.00    +0.047 C 
ATOM     15  C   UNL     1       0.515   2.284   0.329  0.00  0.00    -0.009 A 
ATOM     16  C   UNL     1       0.929   1.677  -0.841  0.00  0.00    +0.007 A 
ATOM     17  C   UNL     1       1.546   0.441  -0.799  0.00  0.00    +0.000 A 
ATOM     18  C   UNL     1       1.752  -0.191   0.414  0.00  0.00    +0.004 A 
ATOM     19  C   UNL     1       1.341   0.412   1.587  0.00  0.00    +0.046 A 
ATOM     20  C   UNL     1       0.725   1.655   1.548  0.00  0.00    +0.123 A 
ENDBRANCH  13  20
ENDBRANCH  12  13
ENDBRANCH   1  12
BRANCH  10  21
ATOM     21  C   UNL     1      -3.704   1.984   5.746  0.00  0.00    +0.204 C 
BRANCH  21  22
ATOM     22  N   UNL     1      -4.351   1.151   6.763  0.00  0.00    -0.285 N 
ATOM     23  C   UNL     1      -4.875  -0.043   6.423  0.00  0.00    +0.247 C 
ATOM     24  O   UNL     1      -5.438  -0.720   7.260  0.00  0.00    -0.270 OA
BRANCH  23  25
ATOM     25  C   UNL     1      -4.765  -0.528   5.031  0.00  0.00    +0.038 A 
ATOM     26  C   UNL     1      -3.758  -0.041   4.196  0.00  0.00    +0.013 A 
ATOM     27  C   UNL     1      -3.660  -0.498   2.898  0.00  0.00    +0.002 A 
ATOM     28  C   UNL     1      -4.558  -1.438   2.422  0.00  0.00    +0.020 A 
ATOM     29  C   UNL     1      -5.559  -1.925   3.245  0.00  0.00    +0.042 A 
ATOM     30  C   UNL     1      -5.664  -1.480   4.548  0.00  0.00    +0.033 A 
ATOM     31 CL   UNL     1      -6.680  -3.104   2.639  0.00  0.00    -0.084 Cl
ENDBRANCH  23  25
BRANCH  22  32
ATOM     32  C   UNL     1      -4.428   1.617   8.150  0.00  0.00    +0.135 C 
BRANCH  32  33
ATOM     33  C   UNL     1      -5.752   2.299   8.379  0.00  0.00    -0.016 C 
ATOM     34  C   UNL     1      -6.538   1.896   9.346  0.00  0.00    +0.005 C 
ENDBRANCH  32  33
ENDBRANCH  22  32
ENDBRANCH  21  22
ENDBRANCH  10  21
TORSDOF 8
