REMARK  Name = ZINC14200835
REMARK  7 active torsions:
REMARK  status: ('A' for Active; 'I' for Inactive)
REMARK    1  A    between atoms: C_1  and  C_2
REMARK    2  A    between atoms: C_2  and  C_3
REMARK    3  A    between atoms: C_3  and  C_26
REMARK    4  A    between atoms: N_6  and  N_10
REMARK    5  A    between atoms: C_11  and  C_13
REMARK    6  A    between atoms: C_13  and  S_14
REMARK    7  A    between atoms: S_14  and  C_15
REMARK                            x       y       z     vdW  Elec       q    Type
REMARK                         _______ _______ _______ _____ _____    ______ ____
ROOT
ATOM      1  N   UNL     1       3.364  -3.029  -0.046  0.00  0.00    -0.223 N 
ATOM      2  C   UNL     1       3.477  -1.686  -0.040  0.00  0.00    +0.240 C 
ATOM      3  O   UNL     1       4.574  -1.170  -0.048  0.00  0.00    -0.273 OA
ATOM      4  H   UNL     1       2.487  -3.443  -0.040  0.00  0.00    +0.174 HD
ENDROOT
BRANCH   1   8
ATOM      5  C   UNL     1       6.217  -5.213  -0.698  0.00  0.00    +0.111 C 
ATOM      6  C   UNL     1       4.959  -4.496  -1.145  0.00  0.00    +0.263 C 
ATOM      7  O   UNL     1       4.457  -4.517  -2.248  0.00  0.00    -0.271 OA
ATOM      8  N   UNL     1       4.515  -3.829  -0.061  0.00  0.00    -0.137 N 
ATOM      9  C   UNL     1       5.306  -4.028   0.999  0.00  0.00    +0.326 C 
ATOM     10  O   UNL     1       5.108  -3.534   2.092  0.00  0.00    -0.251 OA
ATOM     11  N   UNL     1       6.344  -4.837   0.721  0.00  0.00    -0.284 N 
ATOM     12  C   UNL     1       7.430  -4.728  -1.494  0.00  0.00    +0.041 C 
ATOM     13  H   UNL     1       7.040  -5.118   1.335  0.00  0.00    +0.151 HD
BRANCH   5  15
ATOM     14  C   UNL     1       7.232  -7.434  -0.170  0.00  0.00    +0.006 C 
ATOM     15  C   UNL     1       6.053  -6.727  -0.840  0.00  0.00    +0.032 C 
ENDBRANCH   5  15
ENDBRANCH   1   8
BRANCH   2  16
ATOM     16  C   UNL     1       2.239  -0.827  -0.024  0.00  0.00    +0.171 C 
BRANCH  16  17
ATOM     17  S   UNL     1       2.718   0.923  -0.019  0.00  0.00    -0.116 S 
BRANCH  17  18
ATOM     18  C   UNL     1       1.182   1.785   0.000  0.00  0.00    +0.012 A 
ATOM     19  C   UNL     1      -0.013   1.076   0.008  0.00  0.00    +0.018 A 
ATOM     20  C   UNL     1      -1.220   1.750   0.017  0.00  0.00    +0.050 A 
ATOM     21  C   UNL     1      -1.236   3.134   0.031  0.00  0.00    +0.162 A 
ATOM     22  C   UNL     1      -0.045   3.846   0.024  0.00  0.00    +0.163 A 
ATOM     23  C   UNL     1       1.166   3.175   0.008  0.00  0.00    +0.064 A 
ATOM     24  O   UNL     1      -0.075   5.210   0.034  0.00  0.00    -0.488 OA
ATOM     25  C   UNL     1      -0.575   5.833  -1.151  0.00  0.00    +0.232 C 
ATOM     26  C   UNL     1      -2.093   5.912  -1.119  0.00  0.00    +0.082 C 
ATOM     27  C   UNL     1      -2.744   4.538  -1.139  0.00  0.00    +0.232 C 
ATOM     28  O   UNL     1      -2.424   3.808   0.047  0.00  0.00    -0.488 OA
ENDBRANCH  17  18
ENDBRANCH  16  17
ENDBRANCH   2  16
TORSDOF 5
