REMARK  Name = ZINC02420279
REMARK  5 active torsions:
REMARK  status: ('A' for Active; 'I' for Inactive)
REMARK    1  A    between atoms: C_1  and  C_2
REMARK    2  A    between atoms: C_2  and  C_4
REMARK    3  A    between atoms: C_2  and  O_25
REMARK    4  A    between atoms: C_10  and  C_18
REMARK    5  A    between atoms: O_25  and  C_26
REMARK                            x       y       z     vdW  Elec       q    Type
REMARK                         _______ _______ _______ _____ _____    ______ ____
ROOT
ATOM      1  C   UNL     1       0.861  -0.294   1.210  0.00  0.00    +0.260 C 
ATOM      2  O   UNL     1       1.977  -0.746   1.067  0.00  0.00    -0.271 OA
ATOM      3  N   UNL     1       0.389  -0.043   2.448  0.00  0.00    -0.252 N 
ATOM      4  C   UNL     1       1.181  -0.303   3.560  0.00  0.00    +0.229 C 
ATOM      5  N   UNL     1       0.833  -0.108   4.803  0.00  0.00    -0.143 NA
ATOM      6  N   UNL     1       1.899  -0.487   5.613  0.00  0.00    -0.184 N 
ATOM      7  C   UNL     1       2.025  -0.444   7.072  0.00  0.00    +0.140 C 
ATOM      8  C   UNL     1       2.965  -1.577   7.502  0.00  0.00    +0.127 C 
ATOM      9  C   UNL     1       4.144  -1.675   6.574  0.00  0.00    +0.241 C 
ATOM     10  O   UNL     1       5.219  -2.026   7.023  0.00  0.00    -0.274 OA
ATOM     11  N   UNL     1       4.050  -1.390   5.281  0.00  0.00    -0.148 NA
ATOM     12  C   UNL     1       2.893  -0.930   4.805  0.00  0.00    +0.222 C 
ATOM     13  N   UNL     1       2.459  -0.815   3.531  0.00  0.00    -0.149 NA
ATOM     14  H   UNL     1      -0.504   0.319   2.562  0.00  0.00    +0.158 HD
ENDROOT
BRANCH   7  15
ATOM     15  C   UNL     1       2.599   0.883   7.495  0.00  0.00    -0.025 A 
ATOM     16  C   UNL     1       3.611   1.466   6.754  0.00  0.00    +0.007 A 
ATOM     17  C   UNL     1       4.138   2.683   7.141  0.00  0.00    +0.020 A 
ATOM     18  C   UNL     1       3.654   3.319   8.270  0.00  0.00    +0.041 A 
ATOM     19  C   UNL     1       2.641   2.736   9.011  0.00  0.00    +0.020 A 
ATOM     20  C   UNL     1       2.111   1.521   8.620  0.00  0.00    +0.007 A 
ATOM     21 CL   UNL     1       4.316   4.848   8.757  0.00  0.00    -0.084 Cl
ENDBRANCH   7  15
BRANCH   1  23
ATOM     22  C   UNL     1      -0.252   1.493  -0.100  0.00  0.00    +0.062 C 
ATOM     23  C   UNL     1       0.002  -0.012   0.005  0.00  0.00    +0.256 C 
BRANCH  23  24
ATOM     24  O   UNL     1       0.671  -0.465  -1.174  0.00  0.00    -0.480 OA
BRANCH  24  25
ATOM     25  C   UNL     1      -0.106  -0.775  -2.244  0.00  0.00    +0.122 A 
ATOM     26  C   UNL     1       0.464  -1.331  -3.380  0.00  0.00    +0.045 A 
ATOM     27  C   UNL     1      -0.328  -1.646  -4.467  0.00  0.00    +0.004 A 
ATOM     28  C   UNL     1      -1.689  -1.406  -4.424  0.00  0.00    +0.000 A 
ATOM     29  C   UNL     1      -2.260  -0.851  -3.294  0.00  0.00    +0.004 A 
ATOM     30  C   UNL     1      -1.473  -0.541  -2.202  0.00  0.00    +0.045 A 
ENDBRANCH  24  25
ENDBRANCH  23  24
ENDBRANCH   1  23
TORSDOF 4
