REMARK  Name = ZINC36531463
REMARK  10 active torsions:
REMARK  status: ('A' for Active; 'I' for Inactive)
REMARK    1  A    between atoms: C_1  and  N_2
REMARK    2  A    between atoms: N_2  and  C_3
REMARK    3  A    between atoms: C_3  and  C_5
REMARK    4  A    between atoms: C_3  and  C_13
REMARK    5  A    between atoms: C_8  and  O_11
REMARK    6  A    between atoms: O_11  and  C_12
REMARK    7  A    between atoms: N_15  and  C_16
REMARK    8  A    between atoms: C_22  and  C_24
REMARK    9  A    between atoms: C_28  and  O_31
REMARK   10  A    between atoms: C_29  and  O_30
REMARK                            x       y       z     vdW  Elec       q    Type
REMARK                         _______ _______ _______ _____ _____    ______ ____
ROOT
ATOM      1  C   UNL     1      -0.397  -2.130   0.665  0.00  0.00    +0.192 C 
ENDROOT
BRANCH   1   2
ATOM      2  C   UNL     1      -1.215  -3.229   1.293  0.00  0.00    -0.018 A 
ATOM      3  C   UNL     1      -1.999  -2.959   2.400  0.00  0.00    +0.009 A 
ATOM      4  C   UNL     1      -2.749  -3.965   2.978  0.00  0.00    +0.046 A 
ATOM      5  C   UNL     1      -2.716  -5.246   2.447  0.00  0.00    +0.120 A 
ATOM      6  C   UNL     1      -1.928  -5.514   1.337  0.00  0.00    +0.046 A 
ATOM      7  C   UNL     1      -1.184  -4.504   0.759  0.00  0.00    +0.009 A 
BRANCH   5   8
ATOM      8  O   UNL     1      -3.452  -6.237   3.014  0.00  0.00    -0.495 OA
ATOM      9  C   UNL     1      -3.369  -7.532   2.415  0.00  0.00    +0.277 C 
ENDBRANCH   5   8
ENDBRANCH   1   2
BRANCH   1  11
ATOM     10  C   UNL     1      -2.692  -1.060   0.497  0.00  0.00    +0.133 C 
ATOM     11  N   UNL     1      -1.292  -1.135   0.070  0.00  0.00    -0.285 N 
ATOM     12  C   UNL     1      -0.828  -0.287  -0.870  0.00  0.00    +0.251 C 
ATOM     13  O   UNL     1      -1.414   0.755  -1.091  0.00  0.00    -0.270 OA
BRANCH  12  14
ATOM     14  C   UNL     1       0.391  -0.624  -1.629  0.00  0.00    +0.082 A 
ATOM     15  C   UNL     1       1.498  -1.171  -0.974  0.00  0.00    +0.017 A 
ATOM     16  C   UNL     1       2.635  -1.484  -1.687  0.00  0.00    +0.005 A 
ATOM     17  C   UNL     1       2.688  -1.261  -3.053  0.00  0.00    +0.049 A 
ATOM     18  C   UNL     1       1.600  -0.720  -3.716  0.00  0.00    +0.159 A 
ATOM     19  C   UNL     1       0.442  -0.403  -3.011  0.00  0.00    +0.171 A 
BRANCH  19  20
ATOM     20  O   UNL     1      -0.629   0.122  -3.658  0.00  0.00    -0.503 OA
ATOM     21  H   UNL     1      -0.626   1.088  -3.704  0.00  0.00    +0.292 HD
ENDBRANCH  19  20
BRANCH  18  22
ATOM     22  O   UNL     1       1.659  -0.503  -5.057  0.00  0.00    -0.503 OA
ATOM     23  H   UNL     1       1.361  -1.252  -5.591  0.00  0.00    +0.292 HD
ENDBRANCH  18  22
ENDBRANCH  12  14
ENDBRANCH   1  11
BRANCH   1  24
ATOM     24  C   UNL     1       0.456  -1.473   1.719  0.00  0.00    +0.238 C 
ATOM     25  O   UNL     1       0.621  -0.272   1.703  0.00  0.00    -0.273 OA
ATOM     26  N   UNL     1       1.035  -2.220   2.679  0.00  0.00    -0.311 N 
ATOM     27  H   UNL     1       0.903  -3.181   2.692  0.00  0.00    +0.149 HD
BRANCH  26  28
ATOM     28  C   UNL     1       1.864  -1.582   3.704  0.00  0.00    +0.073 C 
ATOM     29  C   UNL     1       3.291  -1.417   3.177  0.00  0.00    +0.022 C 
ATOM     30  C   UNL     1       4.157  -0.750   4.247  0.00  0.00    +0.002 C 
ATOM     31  C   UNL     1       4.176  -1.622   5.505  0.00  0.00    +0.000 C 
ATOM     32  C   UNL     1       2.749  -1.786   6.032  0.00  0.00    +0.002 C 
ATOM     33  C   UNL     1       1.883  -2.453   4.962  0.00  0.00    +0.022 C 
ENDBRANCH  26  28
ENDBRANCH   1  24
TORSDOF 8
