REMARK  Name = ZINC04515799
REMARK  7 active torsions:
REMARK  status: ('A' for Active; 'I' for Inactive)
REMARK    1  A    between atoms: C_1  and  C_2
REMARK    2  A    between atoms: C_4  and  C_27
REMARK    3  A    between atoms: C_5  and  N_9
REMARK    4  A    between atoms: C_6  and  C_8
REMARK    5  A    between atoms: C_10  and  C_12
REMARK    6  A    between atoms: C_12  and  N_13
REMARK    7  A    between atoms: C_21  and  C_23
REMARK                            x       y       z     vdW  Elec       q    Type
REMARK                         _______ _______ _______ _____ _____    ______ ____
ROOT
ATOM      1  C   UNL     1       2.895   2.138   0.066  0.00  0.00    +0.214 C 
ENDROOT
BRANCH   1   2
ATOM      2  N   UNL     1       2.112   3.371   0.176  0.00  0.00    -0.215 N 
ATOM      3  C   UNL     1       0.782   3.448  -0.041  0.00  0.00    +0.247 C 
ATOM      4  O   UNL     1       0.037   2.544  -0.354  0.00  0.00    -0.273 OA
ATOM      5  C   UNL     1       0.420   4.898   0.180  0.00  0.00    +0.115 C 
ATOM      6  C   UNL     1      -0.578   5.027   1.326  0.00  0.00    +0.035 C 
ATOM      7  C   UNL     1      -0.911   6.504   1.552  0.00  0.00    +0.003 C 
ATOM      8  C   UNL     1      -1.501   7.096   0.271  0.00  0.00    +0.000 C 
ATOM      9  C   UNL     1      -0.479   6.981  -0.863  0.00  0.00    +0.006 C 
ATOM     10  C   UNL     1      -0.145   5.506  -1.099  0.00  0.00    +0.018 C 
ATOM     11  C   UNL     1       0.892   5.392  -2.218  0.00  0.00    +0.010 C 
ATOM     12  N   UNL     1       1.694   5.534   0.537  0.00  0.00    -0.285 N 
ATOM     13  C   UNL     1       2.627   4.562   0.505  0.00  0.00    +0.310 C 
ATOM     14  O   UNL     1       3.803   4.747   0.747  0.00  0.00    -0.252 OA
ATOM     15  H   UNL     1       1.837   6.470   0.749  0.00  0.00    +0.151 HD
ENDBRANCH   1   2
BRANCH   1  17
ATOM     16  N   UNL     1       4.153   0.922  -1.683  0.00  0.00    -0.284 N 
ATOM     17  C   UNL     1       3.403   1.990  -1.345  0.00  0.00    +0.235 C 
ATOM     18  O   UNL     1       3.138   2.832  -2.177  0.00  0.00    -0.274 OA
ATOM     19  H   UNL     1       4.409   0.276  -1.007  0.00  0.00    +0.155 HD
BRANCH  16  24
ATOM     20  C   UNL     1       5.809   0.206  -7.062  0.00  0.00    +0.044 C 
ATOM     21  C   UNL     1       5.369   0.397  -5.633  0.00  0.00    -0.050 A 
ATOM     22  C   UNL     1       6.302   0.360  -4.613  0.00  0.00    +0.008 A 
ATOM     23  C   UNL     1       5.902   0.534  -3.303  0.00  0.00    -0.029 A 
ATOM     24  C   UNL     1       4.561   0.746  -3.010  0.00  0.00    +0.039 A 
ATOM     25  C   UNL     1       3.626   0.776  -4.036  0.00  0.00    -0.029 A 
ATOM     26  C   UNL     1       4.033   0.608  -5.345  0.00  0.00    +0.008 A 
ATOM     27  C   UNL     1       2.169   0.999  -3.722  0.00  0.00    +0.045 C 
ATOM     28  C   UNL     1       6.920   0.495  -2.192  0.00  0.00    +0.045 C 
ENDBRANCH  16  24
ENDBRANCH   1  17
TORSDOF 3
