REMARK  Name = ZINC15957498
REMARK  5 active torsions:
REMARK  status: ('A' for Active; 'I' for Inactive)
REMARK    1  A    between atoms: C_1  and  C_2
REMARK    2  A    between atoms: C_7  and  C_8
REMARK    3  A    between atoms: C_17  and  C_20
REMARK    4  A    between atoms: C_20  and  C_21
REMARK    5  A    between atoms: N_29  and  C_32
REMARK                            x       y       z     vdW  Elec       q    Type
REMARK                         _______ _______ _______ _____ _____    ______ ____
ROOT
ATOM      1  C   UNL     1      -0.018   1.503   0.010  0.00  0.00    +0.044 C 
ATOM      2  C   UNL     1       0.002  -0.004   0.002  0.00  0.00    -0.046 A 
ATOM      3  C   UNL     1       0.006  -0.686  -1.201  0.00  0.00    +0.004 A 
ATOM      4  C   UNL     1       0.024  -2.069  -1.209  0.00  0.00    +0.008 A 
ATOM      5  C   UNL     1       0.038  -2.765  -0.021  0.00  0.00    +0.004 A 
ATOM      6  C   UNL     1       0.036  -2.090   1.196  0.00  0.00    +0.042 A 
ATOM      7  C   UNL     1       0.023  -0.697   1.195  0.00  0.00    -0.026 A 
ATOM      8  C   UNL     1       0.025   0.056   2.500  0.00  0.00    +0.046 C 
ATOM      9  N   UNL     1       0.055  -3.001   2.254  0.00  0.00    -0.283 N 
ATOM     10  C   UNL     1       0.067  -4.278   1.825  0.00  0.00    +0.243 C 
ATOM     11  O   UNL     1       0.084  -5.274   2.516  0.00  0.00    -0.273 OA
ATOM     12  C   UNL     1       0.056  -4.228   0.321  0.00  0.00    +0.136 C 
ATOM     13  C   UNL     1       1.283  -4.930  -0.272  0.00  0.00    +0.122 C 
ATOM     14  C   UNL     1       0.758  -5.610  -1.567  0.00  0.00    +0.107 C 
ATOM     15  C   UNL     1      -0.740  -5.241  -1.628  0.00  0.00    +0.072 C 
ATOM     16  N   UNL     1      -1.119  -4.927  -0.231  0.00  0.00    -0.295 NA
ATOM     17  C   UNL     1       1.505  -4.888  -2.666  0.00  0.00    +0.227 C 
ATOM     18  O   UNL     1       1.395  -5.113  -3.853  0.00  0.00    -0.275 OA
ATOM     19  N   UNL     1       2.307  -3.963  -2.126  0.00  0.00    -0.238 N 
ATOM     20  C   UNL     1       2.268  -3.900  -0.775  0.00  0.00    +0.228 C 
ATOM     21  O   UNL     1       2.910  -3.145  -0.077  0.00  0.00    -0.275 OA
ATOM     22  H   UNL     1       0.059  -2.744   3.190  0.00  0.00    +0.155 HD
ATOM     23  H   UNL     1      -1.308  -5.776   0.281  0.00  0.00    +0.124 HD
ENDROOT
BRANCH  19  24
ATOM     24  C   UNL     1       3.165  -3.091  -2.931  0.00  0.00    +0.084 C 
ATOM     25  C   UNL     1       4.112  -3.927  -3.748  0.00  0.00    +0.023 C 
ATOM     26  C   UNL     1       5.482  -3.250  -3.939  0.00  0.00    +0.002 C 
ATOM     27  C   UNL     1       5.367  -1.742  -4.234  0.00  0.00    +0.000 C 
ATOM     28  C   UNL     1       4.253  -1.427  -5.194  0.00  0.00    +0.000 C 
ATOM     29  C   UNL     1       2.991  -1.072  -4.382  0.00  0.00    +0.002 C 
ATOM     30  C   UNL     1       2.296  -2.254  -3.893  0.00  0.00    +0.023 C 
ENDBRANCH  19  24
BRANCH  15  31
ATOM     31  C   UNL     1      -1.557  -6.416  -2.169  0.00  0.00    +0.054 C 
BRANCH  31  32
ATOM     32  C   UNL     1      -2.994  -5.996  -2.335  0.00  0.00    -0.046 A 
ATOM     33  C   UNL     1      -3.885  -6.151  -1.290  0.00  0.00    +0.004 A 
ATOM     34  C   UNL     1      -5.204  -5.765  -1.442  0.00  0.00    +0.000 A 
ATOM     35  C   UNL     1      -5.631  -5.223  -2.640  0.00  0.00    +0.000 A 
ATOM     36  C   UNL     1      -4.740  -5.067  -3.685  0.00  0.00    +0.000 A 
ATOM     37  C   UNL     1      -3.420  -5.449  -3.531  0.00  0.00    +0.004 A 
ENDBRANCH  31  32
ENDBRANCH  15  31
TORSDOF 3
