REMARK  Name = ZINC40911550
REMARK  5 active torsions:
REMARK  status: ('A' for Active; 'I' for Inactive)
REMARK    1  A    between atoms: C_1  and  C_2
REMARK    2  A    between atoms: C_2  and  C_3
REMARK    3  A    between atoms: C_2  and  C_4
REMARK    4  A    between atoms: C_2  and  N_7
REMARK    5  A    between atoms: C_8  and  C_10
REMARK                            x       y       z     vdW  Elec       q    Type
REMARK                         _______ _______ _______ _____ _____    ______ ____
ROOT
ATOM      1  C   UNL     1       2.677  -0.618  -2.667  0.00  0.00    +0.017 C 
ATOM      2  C   UNL     1       1.961  -0.071  -3.932  0.00  0.00    -0.005 C 
ATOM      3  C   UNL     1       3.147   0.234  -4.859  0.00  0.00    -0.026 C 
ATOM      4  C   UNL     1       2.895   1.308  -5.903  0.00  0.00    +0.002 C 
ATOM      5  C   UNL     1       4.223   1.554  -6.636  0.00  0.00    +0.000 C 
ATOM      6  C   UNL     1       5.326   1.975  -5.669  0.00  0.00    -0.002 C 
ATOM      7  C   UNL     1       5.493   0.955  -4.531  0.00  0.00    -0.015 C 
ATOM      8  C   UNL     1       4.160   0.811  -3.833  0.00  0.00    -0.068 C 
ATOM      9  N   UNL     1       4.070  -0.101  -2.693  0.00  0.00    +0.389 N 
ATOM     10  H   UNL     1       4.268   0.396  -1.837  0.00  0.00    -0.084 HD
ATOM     11  H   UNL     1       4.718  -0.865  -2.808  0.00  0.00    -0.084 HD
ENDROOT
BRANCH   1  13
ATOM     12  N   UNL     1       0.688  -0.476  -1.203  0.00  0.00    -0.302 N 
ATOM     13  C   UNL     1       1.972  -0.132  -1.427  0.00  0.00    +0.200 C 
ATOM     14  O   UNL     1       2.559   0.569  -0.630  0.00  0.00    -0.278 OA
ATOM     15  H   UNL     1       0.218  -1.037  -1.840  0.00  0.00    +0.150 HD
BRANCH  12  17
ATOM     16  C   UNL     1      -0.019   1.526   0.010  0.00  0.00    +0.043 C 
ATOM     17  C   UNL     1       0.002  -0.004   0.002  0.00  0.00    +0.130 C 
ATOM     18  C   UNL     1       0.742  -0.511   1.242  0.00  0.00    +0.043 C 
BRANCH  17  19
ATOM     19  C   UNL     1      -1.412  -0.526   0.013  0.00  0.00    +0.378 C 
ATOM     20  O   UNL     1      -1.810  -1.227  -0.902  0.00  0.00    -0.244 OA
ATOM     21  O   UNL     1      -2.158  -0.246   0.936  0.00  0.00    -0.244 OA
ENDBRANCH  17  19
ENDBRANCH  12  17
ENDBRANCH   1  13
TORSDOF 3
