REMARK  Name = ZINC41515249
REMARK  10 active torsions:
REMARK  status: ('A' for Active; 'I' for Inactive)
REMARK    1  A    between atoms: C_1  and  C_2
REMARK    2  A    between atoms: C_2  and  O_3
REMARK    3  A    between atoms: O_3  and  C_4
REMARK    4  A    between atoms: C_7  and  C_10
REMARK    5  A    between atoms: C_15  and  C_33
REMARK    6  A    between atoms: C_17  and  O_32
REMARK    7  A    between atoms: C_18  and  C_21
REMARK    8  A    between atoms: C_21  and  N_22
REMARK    9  A    between atoms: C_24  and  C_31
REMARK   10  A    between atoms: C_27  and  C_30
REMARK                            x       y       z     vdW  Elec       q    Type
REMARK                         _______ _______ _______ _____ _____    ______ ____
ROOT
ATOM      1  C   UNL     1       1.141  -6.024   1.761  0.00  0.00    +0.058 C 
ATOM      2  C   UNL     1       1.867  -6.540   2.786  0.00  0.00    +0.176 C 
ATOM      3  C   UNL     1       2.499  -5.777   3.872  0.00  0.00    +0.232 C 
ATOM      4  O   UNL     1       2.483  -4.570   4.044  0.00  0.00    -0.283 OA
ATOM      5  C   UNL     1       3.155  -6.799   4.708  0.00  0.00    +0.071 A 
ATOM      6  C   UNL     1       3.915  -6.732   5.877  0.00  0.00    -0.033 A 
ATOM      7  C   UNL     1       4.404  -7.877   6.437  0.00  0.00    +0.050 A 
ATOM      8  C   UNL     1       4.147  -9.111   5.845  0.00  0.00    +0.122 A 
ATOM      9  C   UNL     1       3.395  -9.192   4.684  0.00  0.00    +0.020 A 
ATOM     10  C   UNL     1       2.889  -8.037   4.102  0.00  0.00    +0.145 A 
ATOM     11  O   UNL     1       2.137  -7.850   2.995  0.00  0.00    -0.451 OA
ATOM     12  C   UNL     1       4.195  -5.398   6.519  0.00  0.00    +0.045 C 
ENDROOT
BRANCH   1  16
ATOM     13  C   UNL     1       0.976  -1.828   1.179  0.00  0.00    +0.121 A 
ATOM     14  C   UNL     1       2.172  -2.428   1.556  0.00  0.00    +0.046 A 
ATOM     15  C   UNL     1       2.231  -3.790   1.746  0.00  0.00    +0.011 A 
ATOM     16  C   UNL     1       1.084  -4.571   1.560  0.00  0.00    -0.021 A 
ATOM     17  C   UNL     1      -0.119  -3.961   1.180  0.00  0.00    +0.011 A 
ATOM     18  C   UNL     1      -0.168  -2.598   0.998  0.00  0.00    +0.046 A 
BRANCH  13  19
ATOM     19  O   UNL     1       0.923  -0.484   0.992  0.00  0.00    -0.492 OA
BRANCH  19  21
ATOM     20  C   UNL     1       1.880   1.734   0.941  0.00  0.00    +0.048 C 
ATOM     21  C   UNL     1       2.134   0.247   1.195  0.00  0.00    +0.225 C 
ENDBRANCH  19  21
ENDBRANCH  13  19
ENDBRANCH   1  16
BRANCH   8  22
ATOM     22  O   UNL     1       4.638 -10.244   6.409  0.00  0.00    -0.506 OA
ATOM     23  H   UNL     1       4.045 -10.650   7.055  0.00  0.00    +0.292 HD
ENDBRANCH   8  22
BRANCH   9  24
ATOM     24  C   UNL     1       3.125 -10.534   4.054  0.00  0.00    -0.036 C 
BRANCH  24  25
ATOM     25  N   UNL     1       1.884 -11.094   4.605  0.00  0.00    +0.383 N 
ATOM     26  C   UNL     1       2.062 -11.357   6.038  0.00  0.00    -0.075 C 
ATOM     27  C   UNL     1       0.747 -11.864   6.635  0.00  0.00    -0.031 C 
ATOM     28  C   UNL     1       0.335 -13.156   5.924  0.00  0.00    +0.003 C 
ATOM     29  C   UNL     1       0.224 -12.887   4.420  0.00  0.00    -0.031 C 
ATOM     30  C   UNL     1       1.558 -12.342   3.906  0.00  0.00    -0.075 C 
ATOM     31  C   UNL     1      -0.112 -14.190   3.692  0.00  0.00    +0.005 C 
ATOM     32  C   UNL     1      -0.342 -10.806   6.445  0.00  0.00    +0.005 C 
ATOM     33  H   UNL     1       1.132 -10.432   4.478  0.00  0.00    -0.081 HD
ENDBRANCH  24  25
ENDBRANCH   9  24
TORSDOF 6
