REMARK  Name = ZINC33614304
REMARK  13 active torsions:
REMARK  status: ('A' for Active; 'I' for Inactive)
REMARK    1  A    between atoms: C_1  and  C_2
REMARK    2  A    between atoms: C_2  and  C_3
REMARK    3  A    between atoms: C_3  and  C_4
REMARK    4  A    between atoms: C_4  and  C_6
REMARK    5  A    between atoms: C_4  and  S_17
REMARK    6  A    between atoms: N_8  and  C_9
REMARK    7  A    between atoms: C_9  and  C_10
REMARK    8  A    between atoms: C_10  and  N_11
REMARK    9  A    between atoms: S_17  and  C_18
REMARK   10  A    between atoms: C_20  and  C_33
REMARK   11  A    between atoms: C_21  and  C_26
REMARK   12  A    between atoms: N_24  and  C_25
REMARK   13  A    between atoms: C_26  and  C_27
REMARK                            x       y       z     vdW  Elec       q    Type
REMARK                         _______ _______ _______ _____ _____    ______ ____
ROOT
ATOM      1  C   UNL     1      -1.678   6.253  -1.115  0.00  0.00    +0.140 C 
ENDROOT
BRANCH   1   2
ATOM      2  C   UNL     1      -2.973   7.022  -1.158  0.00  0.00    +0.226 C 
ATOM      3  O   UNL     1      -3.950   6.599  -0.577  0.00  0.00    -0.275 OA
ATOM      4  N   UNL     1      -3.046   8.181  -1.842  0.00  0.00    -0.316 N 
ATOM      5  H   UNL     1      -2.160   8.566  -2.369  0.00  0.00    +0.149 HD
BRANCH   4   6
ATOM      6  C   UNL     1      -4.305   8.929  -1.884  0.00  0.00    +0.085 C 
BRANCH   6   7
ATOM      7  C   UNL     1      -4.117  10.197  -2.720  0.00  0.00    -0.060 C 
BRANCH   7   8
ATOM      8  N   UNL     1      -5.380  10.947  -2.763  0.00  0.00    +0.381 N 
ATOM      9  C   UNL     1      -6.414  10.195  -3.484  0.00  0.00    -0.079 C 
ATOM     10  C   UNL     1      -7.749  10.937  -3.384  0.00  0.00    -0.019 C 
ATOM     11  C   UNL     1      -7.596  12.337  -3.984  0.00  0.00    -0.004 C 
ATOM     12  C   UNL     1      -6.480  13.082  -3.246  0.00  0.00    -0.019 C 
ATOM     13  C   UNL     1      -5.182  12.278  -3.351  0.00  0.00    -0.079 C 
ATOM     14  H   UNL     1      -5.727  11.086  -1.728  0.00  0.00    -0.082 HD
ENDBRANCH   7   8
ENDBRANCH   6   7
ENDBRANCH   4   6
ENDBRANCH   1   2
BRANCH   1  15
ATOM     15  C   UNL     1      -0.796   6.801   0.009  0.00  0.00    +0.024 C 
BRANCH  15  17
ATOM     16  C   UNL     1       1.418   6.592   1.147  0.00  0.00    +0.004 C 
ATOM     17  C   UNL     1       0.569   6.111  -0.032  0.00  0.00    -0.002 C 
ENDBRANCH  15  17
ENDBRANCH   1  15
BRANCH   1  18
ATOM     18  S   UNL     1      -2.026   4.503  -0.809  0.00  0.00    -0.075 S 
BRANCH  18  19
ATOM     19  C   UNL     1      -2.780   4.069  -2.341  0.00  0.00    +0.172 A 
ATOM     20  N   UNL     1      -2.871   4.972  -3.298  0.00  0.00    -0.228 NA
ATOM     21  C   UNL     1      -3.434   4.685  -4.469  0.00  0.00    +0.050 A 
ATOM     22  C   UNL     1      -3.932   3.436  -4.702  0.00  0.00    +0.042 A 
ATOM     23  C   UNL     1      -3.840   2.467  -3.688  0.00  0.00    +0.258 A 
ATOM     24  O   UNL     1      -4.276   1.341  -3.862  0.00  0.00    -0.267 OA
ATOM     25  N   UNL     1      -3.265   2.808  -2.515  0.00  0.00    -0.291 N 
ATOM     26  C   UNL     1      -3.158   1.824  -1.435  0.00  0.00    +0.154 C 
ATOM     27  C   UNL     1      -3.521   5.742  -5.540  0.00  0.00    +0.066 C 
BRANCH  22  28
ATOM     28  C   UNL     1      -4.571   3.101  -6.025  0.00  0.00    +0.077 C 
BRANCH  28  29
ATOM     29  C   UNL     1      -6.064   3.275  -5.921  0.00  0.00    -0.043 A 
ATOM     30  C   UNL     1      -6.850   2.236  -5.457  0.00  0.00    +0.004 A 
ATOM     31  C   UNL     1      -8.219   2.397  -5.357  0.00  0.00    +0.000 A 
ATOM     32  C   UNL     1      -8.804   3.593  -5.729  0.00  0.00    +0.000 A 
ATOM     33  C   UNL     1      -8.019   4.630  -6.198  0.00  0.00    +0.000 A 
ATOM     34  C   UNL     1      -6.649   4.471  -6.293  0.00  0.00    +0.004 A 
ENDBRANCH  28  29
ENDBRANCH  22  28
ENDBRANCH  18  19
ENDBRANCH   1  18
TORSDOF 10
