REMARK  Name = ZINC23141442
REMARK  6 active torsions:
REMARK  status: ('A' for Active; 'I' for Inactive)
REMARK    1  A    between atoms: C_1  and  C_2
REMARK    2  A    between atoms: C_3  and  C_10
REMARK    3  A    between atoms: C_13  and  S_16
REMARK    4  A    between atoms: N_14  and  C_15
REMARK    5  A    between atoms: S_16  and  C_17
REMARK    6  A    between atoms: C_17  and  C_18
REMARK                            x       y       z     vdW  Elec       q    Type
REMARK                         _______ _______ _______ _____ _____    ______ ____
ROOT
ATOM      1  C   UNL     1      -0.547  -1.831   0.170  0.00  0.00    +0.183 A 
ATOM      2  N   UNL     1       0.766  -1.778   0.108  0.00  0.00    -0.127 NA
ATOM      3  N   UNL     1       1.147  -0.569  -0.102  0.00  0.00    -0.122 NA
ATOM      4  C   UNL     1       0.106   0.226  -0.187  0.00  0.00    +0.192 A 
ATOM      5  N   UNL     1      -1.010  -0.546  -0.012  0.00  0.00    -0.304 N 
ATOM      6  C   UNL     1      -2.406  -0.101  -0.019  0.00  0.00    +0.153 C 
ENDROOT
BRANCH   1   9
ATOM      7  C   UNL     1       0.399  -4.431   1.605  0.00  0.00    +0.068 C 
ATOM      8  C   UNL     1      -0.966  -4.174   1.021  0.00  0.00    +0.068 A 
ATOM      9  C   UNL     1      -1.365  -3.032   0.396  0.00  0.00    +0.114 A 
ATOM     10  N   UNL     1      -2.701  -3.212   0.015  0.00  0.00    -0.290 N 
ATOM     11  C   UNL     1      -3.688  -2.506  -0.636  0.00  0.00    +0.101 A 
ATOM     12  C   UNL     1      -4.894  -3.038  -0.829  0.00  0.00    +0.067 A 
ATOM     13  S   UNL     1      -4.709  -4.649  -0.080  0.00  0.00    -0.058 S 
ATOM     14  C   UNL     1      -3.017  -4.476   0.436  0.00  0.00    +0.178 A 
ATOM     15  N   UNL     1      -1.993  -5.029   1.027  0.00  0.00    -0.226 NA
ENDBRANCH   1   9
BRANCH   4  16
ATOM     16  S   UNL     1       0.140   1.965  -0.468  0.00  0.00    -0.077 S 
BRANCH  16  17
ATOM     17  C   UNL     1       1.927   2.230  -0.584  0.00  0.00    +0.173 C 
BRANCH  17  18
ATOM     18  C   UNL     1       2.203   3.691  -0.830  0.00  0.00    +0.230 C 
ATOM     19  O   UNL     1       1.283   4.461  -1.005  0.00  0.00    -0.274 OA
ATOM     20  N   UNL     1       3.473   4.141  -0.855  0.00  0.00    -0.270 N 
ATOM     21  C   UNL     1       4.600   3.208  -0.725  0.00  0.00    +0.114 C 
ATOM     22  C   UNL     1       5.605   3.819   0.260  0.00  0.00    +0.024 C 
ATOM     23  C   UNL     1       6.142   5.123  -0.328  0.00  0.00    +0.038 C 
ATOM     24  C   UNL     1       5.008   6.016  -0.758  0.00  0.00    -0.026 A 
ATOM     25  C   UNL     1       3.741   5.508  -1.010  0.00  0.00    +0.039 A 
ATOM     26  C   UNL     1       2.718   6.357  -1.415  0.00  0.00    +0.024 A 
ATOM     27  C   UNL     1       2.961   7.708  -1.570  0.00  0.00    +0.002 A 
ATOM     28  C   UNL     1       4.223   8.214  -1.322  0.00  0.00    +0.000 A 
ATOM     29  C   UNL     1       5.242   7.372  -0.909  0.00  0.00    +0.005 A 
ENDBRANCH  17  18
ENDBRANCH  16  17
ENDBRANCH   4  16
TORSDOF 4
