REMARK  Name = ZINC41602697
REMARK  5 active torsions:
REMARK  status: ('A' for Active; 'I' for Inactive)
REMARK    1  A    between atoms: C_1  and  C_2
REMARK    2  A    between atoms: C_3  and  C_21
REMARK    3  A    between atoms: N_10  and  C_11
REMARK    4  A    between atoms: C_11  and  C_12
REMARK    5  A    between atoms: C_21  and  C_22
REMARK                            x       y       z     vdW  Elec       q    Type
REMARK                         _______ _______ _______ _____ _____    ______ ____
ROOT
ATOM      1  C   UNL     1      -0.018   1.503   0.010  0.00  0.00    +0.066 C 
ATOM      2  C   UNL     1       0.002  -0.004   0.002  0.00  0.00    +0.050 A 
ATOM      3  C   UNL     1      -1.171  -0.701   0.004  0.00  0.00    +0.042 A 
ATOM      4  C   UNL     1      -1.126  -2.107  -0.004  0.00  0.00    +0.256 A 
ATOM      5  O   UNL     1      -2.156  -2.762  -0.004  0.00  0.00    -0.267 OA
ATOM      6  N   UNL     1       0.078  -2.717  -0.014  0.00  0.00    -0.295 N 
ATOM      7  H   UNL     1       0.132  -3.686  -0.020  0.00  0.00    +0.172 HD
ATOM      8  C   UNL     1       1.215  -1.970  -0.015  0.00  0.00    +0.196 A 
ATOM      9  N   UNL     1       1.164  -0.653  -0.013  0.00  0.00    -0.221 NA
ATOM     10  N   UNL     1       2.432  -2.597  -0.025  0.00  0.00    -0.311 N 
ATOM     11  H   UNL     1       2.478  -3.566  -0.031  0.00  0.00    +0.149 HD
ENDROOT
BRANCH  10  12
ATOM     12  C   UNL     1       3.664  -1.804  -0.026  0.00  0.00    +0.139 C 
BRANCH  12  13
ATOM     13  C   UNL     1       4.855  -2.727  -0.038  0.00  0.00    -0.027 A 
ATOM     14  C   UNL     1       5.402  -3.161   1.155  0.00  0.00    +0.009 A 
ATOM     15  C   UNL     1       6.495  -4.008   1.150  0.00  0.00    +0.050 A 
ATOM     16  C   UNL     1       7.044  -4.424  -0.052  0.00  0.00    +0.166 A 
ATOM     17  C   UNL     1       6.493  -3.987  -1.253  0.00  0.00    +0.167 A 
ATOM     18  C   UNL     1       5.394  -3.143  -1.241  0.00  0.00    +0.054 A 
ATOM     19  O   UNL     1       7.205  -4.530  -2.284  0.00  0.00    -0.453 OA
ATOM     20  C   UNL     1       8.444  -4.974  -1.702  0.00  0.00    +0.466 C 
ATOM     21  O   UNL     1       8.102  -5.241  -0.329  0.00  0.00    -0.453 OA
ENDBRANCH  12  13
ENDBRANCH  10  12
BRANCH   3  22
ATOM     22  C   UNL     1      -2.493   0.023   0.015  0.00  0.00    +0.077 C 
BRANCH  22  23
ATOM     23  C   UNL     1      -3.000   0.164  -1.397  0.00  0.00    -0.043 A 
ATOM     24  C   UNL     1      -2.655   1.273  -2.147  0.00  0.00    +0.005 A 
ATOM     25  C   UNL     1      -3.120   1.403  -3.442  0.00  0.00    +0.020 A 
ATOM     26  C   UNL     1      -3.930   0.424  -3.988  0.00  0.00    +0.041 A 
ATOM     27  C   UNL     1      -4.275  -0.685  -3.236  0.00  0.00    +0.020 A 
ATOM     28  C   UNL     1      -3.805  -0.817  -1.944  0.00  0.00    +0.005 A 
ATOM     29 CL   UNL     1      -4.515   0.587  -5.614  0.00  0.00    -0.084 Cl
ENDBRANCH  22  23
ENDBRANCH   3  22
TORSDOF 4
