REMARK  Name = ZINC63289660
REMARK  5 active torsions:
REMARK  status: ('A' for Active; 'I' for Inactive)
REMARK    1  A    between atoms: C_6  and  S_10
REMARK    2  A    between atoms: S_10  and  C_11
REMARK    3  A    between atoms: C_11  and  C_12
REMARK    4  A    between atoms: N_14  and  C_15
REMARK    5  A    between atoms: C_18  and  C_21
REMARK                            x       y       z     vdW  Elec       q    Type
REMARK                         _______ _______ _______ _____ _____    ______ ____
ROOT
ATOM      1  C   UNL     1       3.313  -2.560  -4.211  0.00  0.00    +0.225 C 
ATOM      2  O   UNL     1       4.002  -3.557  -4.234  0.00  0.00    -0.275 OA
ATOM      3  N   UNL     1       2.897  -2.000  -5.364  0.00  0.00    -0.285 N 
ATOM      4  H   UNL     1       2.346  -1.202  -5.346  0.00  0.00    +0.152 HD
ENDROOT
BRANCH   3   5
ATOM      5  C   UNL     1       3.278  -2.597  -6.647  0.00  0.00    +0.251 C 
ATOM      6  N   UNL     1       2.509  -2.005  -7.760  0.00  0.00    -0.254 NA
ATOM      7  C   UNL     1       3.103  -1.617  -8.813  0.00  0.00    +0.056 C 
ATOM      8  C   UNL     1       4.615  -1.776  -8.895  0.00  0.00    +0.128 C 
ATOM      9  S   UNL     1       4.998  -2.119  -7.120  0.00  0.00    -0.109 S 
BRANCH   7  10
ATOM     10  C   UNL     1       2.345  -1.026  -9.933  0.00  0.00    -0.003 A 
ATOM     11  C   UNL     1       3.011  -0.609 -11.088  0.00  0.00    +0.011 A 
ATOM     12  C   UNL     1       2.297  -0.057 -12.131  0.00  0.00    +0.016 A 
ATOM     13  C   UNL     1       0.923   0.084 -12.035  0.00  0.00    +0.018 A 
ATOM     14  C   UNL     1       0.257  -0.327 -10.892  0.00  0.00    +0.016 A 
ATOM     15  C   UNL     1       0.959  -0.886  -9.845  0.00  0.00    +0.011 A 
ATOM     16 BR   UNL     1      -0.048   0.842 -13.469  0.00  0.00    -0.050 Br
ENDBRANCH   7  10
ENDBRANCH   3   5
BRANCH   1  17
ATOM     17  C   UNL     1       2.921  -1.946  -2.892  0.00  0.00    +0.168 C 
BRANCH  17  18
ATOM     18  S   UNL     1       3.629  -2.921  -1.536  0.00  0.00    -0.106 S 
BRANCH  18  24
ATOM     19  C   UNL     1      -0.016   1.344   0.009  0.00  0.00    +0.002 A 
ATOM     20  C   UNL     1       1.158   2.118   0.002  0.00  0.00    +0.002 A 
ATOM     21  C   UNL     1       2.389   1.570  -0.013  0.00  0.00    +0.027 A 
ATOM     22  C   UNL     1       2.533   0.108  -0.022  0.00  0.00    +0.061 A 
ATOM     23  N   UNL     1       3.569  -0.680  -0.036  0.00  0.00    -0.355 N 
ATOM     24  C   UNL     1       3.071  -2.062  -0.039  0.00  0.00    +0.236 C 
ATOM     25  N   UNL     1       1.606  -1.974  -0.024  0.00  0.00    -0.355 N 
ATOM     26  C   UNL     1       1.290  -0.712  -0.014  0.00  0.00    +0.061 A 
ATOM     27  C   UNL     1       0.002  -0.004   0.002  0.00  0.00    +0.027 A 
ATOM     28  H   UNL     1       4.499  -0.405  -0.045  0.00  0.00    +0.162 HD
ATOM     29  H   UNL     1       0.987  -2.721  -0.022  0.00  0.00    +0.162 HD
ENDBRANCH  18  24
ENDBRANCH  17  18
ENDBRANCH   1  17
TORSDOF 5
