REMARK  Name = ZINC63637921
REMARK  7 active torsions:
REMARK  status: ('A' for Active; 'I' for Inactive)
REMARK    1  A    between atoms: C_3  and  C_6
REMARK    2  A    between atoms: N_10  and  C_14
REMARK    3  A    between atoms: C_14  and  C_15
REMARK    4  A    between atoms: C_15  and  C_16
REMARK    5  A    between atoms: N_18  and  C_19
REMARK    6  A    between atoms: C_19  and  C_20
REMARK    7  A    between atoms: C_20  and  C_21
REMARK                            x       y       z     vdW  Elec       q    Type
REMARK                         _______ _______ _______ _____ _____    ______ ____
ROOT
ATOM      1  C   UNL     1       9.352  -2.992   1.355  0.00  0.00    +0.215 C 
ATOM      2  O   UNL     1       9.935  -3.127   0.300  0.00  0.00    -0.276 OA
ATOM      3  N   UNL     1      10.013  -3.160   2.517  0.00  0.00    -0.315 N 
ATOM      4  H   UNL     1       9.546  -3.052   3.361  0.00  0.00    +0.149 HD
ENDROOT
BRANCH   1   5
ATOM      5  C   UNL     1       7.888  -2.634   1.366  0.00  0.00    +0.115 C 
BRANCH   5   6
ATOM      6  C   UNL     1       7.385  -2.502  -0.073  0.00  0.00    +0.127 C 
BRANCH   6  11
ATOM      7  C   UNL     1       3.514   0.604  -0.029  0.00  0.00    +0.066 C 
ATOM      8  C   UNL     1       4.162  -0.595  -0.041  0.00  0.00    +0.083 C 
ATOM      9  C   UNL     1       5.607  -0.881  -0.051  0.00  0.00    +0.260 C 
ATOM     10  O   UNL     1       6.435   0.012  -0.048  0.00  0.00    -0.269 OA
ATOM     11  N   UNL     1       5.961  -2.155  -0.063  0.00  0.00    -0.228 N 
ATOM     12  C   UNL     1       5.042  -3.141  -0.065  0.00  0.00    +0.286 C 
ATOM     13  O   UNL     1       5.223  -4.344  -0.076  0.00  0.00    -0.262 OA
ATOM     14  S   UNL     1       3.493  -2.253  -0.043  0.00  0.00    -0.026 S 
BRANCH   7  17
ATOM     15  C   UNL     1      -0.016   1.347   0.009  0.00  0.00    +0.042 A 
ATOM     16  C   UNL     1       1.318   1.781  -0.001  0.00  0.00    +0.049 A 
ATOM     17  C   UNL     1       2.101   0.643  -0.015  0.00  0.00    +0.129 A 
ATOM     18  O   UNL     1       1.275  -0.424  -0.012  0.00  0.00    -0.463 OA
ATOM     19  C   UNL     1       0.002  -0.004   0.002  0.00  0.00    +0.195 A 
ENDBRANCH   7  17
ENDBRANCH   6  11
ENDBRANCH   5   6
ENDBRANCH   1   5
BRANCH   3  20
ATOM     20  C   UNL     1      11.436  -3.508   2.507  0.00  0.00    +0.108 C 
BRANCH  20  21
ATOM     21  C   UNL     1      11.940  -3.640   3.945  0.00  0.00    +0.052 C 
BRANCH  21  22
ATOM     22  C   UNL     1      13.403  -3.997   3.934  0.00  0.00    -0.040 C 
ATOM     23  C   UNL     1      14.449  -3.146   4.035  0.00  0.00    +0.000 A 
ATOM     24  C   UNL     1      14.533  -1.687   4.178  0.00  0.00    +0.030 A 
ATOM     25  C   UNL     1      15.752  -1.104   4.254  0.00  0.00    +0.042 A 
ATOM     26  C   UNL     1      16.934  -1.858   4.199  0.00  0.00    +0.022 A 
ATOM     27  C   UNL     1      16.937  -3.201   4.069  0.00  0.00    +0.027 A 
ATOM     28  C   UNL     1      15.711  -3.917   3.980  0.00  0.00    +0.043 A 
ATOM     29  N   UNL     1      15.456  -5.197   3.851  0.00  0.00    -0.380 N 
ATOM     30  C   UNL     1      14.001  -5.382   3.816  0.00  0.00    +0.144 C 
ATOM     31 CL   UNL     1      15.856   0.620   4.423  0.00  0.00    -0.084 Cl
ATOM     32  H   UNL     1      16.118  -5.903   3.793  0.00  0.00    +0.160 HD
ENDBRANCH  21  22
ENDBRANCH  20  21
ENDBRANCH   3  20
TORSDOF 7
