REMARK  Name = ZINC30883703
REMARK  15 active torsions:
REMARK  status: ('A' for Active; 'I' for Inactive)
REMARK    1  A    between atoms: C_1  and  C_2
REMARK    2  A    between atoms: C_4  and  N_32
REMARK    3  A    between atoms: C_8  and  C_31
REMARK    4  A    between atoms: C_11  and  O_30
REMARK    5  A    between atoms: C_13  and  C_17
REMARK    6  A    between atoms: C_17  and  C_19
REMARK    7  A    between atoms: C_17  and  C_20
REMARK    8  A    between atoms: N_22  and  C_23
REMARK    9  A    between atoms: C_23  and  C_24
REMARK   10  A    between atoms: C_24  and  N_25
REMARK   11  A    between atoms: C_33  and  C_35
REMARK   12  A    between atoms: C_35  and  C_36
REMARK   13  A    between atoms: C_36  and  C_37
REMARK   14  A    between atoms: C_36  and  C_38
REMARK   15  A    between atoms: C_36  and  C_39
REMARK                            x       y       z     vdW  Elec       q    Type
REMARK                         _______ _______ _______ _____ _____    ______ ____
ROOT
ATOM      1  C   UNL     1       4.103   1.248  -0.517  0.00  0.00    +0.010 C 
ATOM      2  C   UNL     1       3.571   1.575   0.879  0.00  0.00    +0.012 C 
ATOM      3  C   UNL     1       4.105   0.551   1.882  0.00  0.00    +0.076 C 
ATOM      4  C   UNL     1       3.573   0.878   3.278  0.00  0.00    +0.023 C 
ATOM      5  C   UNL     1       2.044   0.829   3.265  0.00  0.00    +0.009 C 
ATOM      6  C   UNL     1       1.509   1.854   2.263  0.00  0.00    -0.027 C 
ATOM      7  C   UNL     1       2.042   1.527   0.866  0.00  0.00    +0.028 C 
ATOM      8  C   UNL     1       1.507   2.551  -0.136  0.00  0.00    +0.122 C 
ATOM      9  C   UNL     1      -0.022   2.503  -0.149  0.00  0.00    +0.029 C 
ATOM     10  C   UNL     1      -0.554   2.830   1.247  0.00  0.00    +0.007 C 
ATOM     11  C   UNL     1      -0.020   1.806   2.250  0.00  0.00    +0.007 C 
ATOM     12  C   UNL     1       1.972   3.255   2.670  0.00  0.00    +0.011 C 
ENDROOT
BRANCH   3  13
ATOM     13  N   UNL     1       5.569   0.597   1.894  0.00  0.00    -0.312 N 
ATOM     14  C   UNL     1       6.275  -0.486   2.276  0.00  0.00    +0.214 C 
ATOM     15  O   UNL     1       5.698  -1.499   2.609  0.00  0.00    -0.276 OA
ATOM     16  H   UNL     1       6.093   1.516   1.592  0.00  0.00    +0.149 HD
BRANCH  14  17
ATOM     17  C   UNL     1       7.781  -0.438   2.288  0.00  0.00    +0.102 C 
BRANCH  17  18
ATOM     18  C   UNL     1       8.330  -1.787   2.758  0.00  0.00    -0.029 C 
ATOM     19  C   UNL     1       7.863  -2.888   1.803  0.00  0.00    +0.011 C 
ATOM     20  C   UNL     1       9.860  -1.738   2.771  0.00  0.00    +0.011 C 
ATOM     21  C   UNL     1       7.818  -2.083   4.168  0.00  0.00    +0.011 C 
ENDBRANCH  17  18
ENDBRANCH  14  17
ENDBRANCH   3  13
BRANCH   9  22
ATOM     22  C   UNL     1      -0.556   3.527  -1.152  0.00  0.00    +0.077 C 
ATOM     23  C   UNL     1      -0.220   4.939  -0.667  0.00  0.00    +0.017 C 
BRANCH  22  24
ATOM     24  C   UNL     1      -2.051   3.380  -1.272  0.00  0.00    +0.216 C 
ATOM     25  O   UNL     1      -2.627   2.513  -0.650  0.00  0.00    -0.276 OA
ATOM     26  N   UNL     1      -2.748   4.213  -2.071  0.00  0.00    -0.317 N 
ATOM     27  H   UNL     1      -2.226   4.999  -2.635  0.00  0.00    +0.149 HD
BRANCH  26  28
ATOM     28  C   UNL     1      -4.202   4.069  -2.188  0.00  0.00    +0.085 C 
BRANCH  28  29
ATOM     29  C   UNL     1      -4.743   5.129  -3.149  0.00  0.00    -0.060 C 
BRANCH  29  30
ATOM     30  N   UNL     1      -6.200   4.986  -3.266  0.00  0.00    +0.381 N 
ATOM     31  C   UNL     1      -6.844   4.981  -1.928  0.00  0.00    -0.079 C 
ATOM     32  C   UNL     1      -8.315   5.354  -2.240  0.00  0.00    -0.020 C 
ATOM     33  C   UNL     1      -8.174   6.395  -3.374  0.00  0.00    -0.020 C 
ATOM     34  C   UNL     1      -6.789   6.132  -3.993  0.00  0.00    -0.079 C 
ATOM     35  H   UNL     1      -6.366   4.040  -3.803  0.00  0.00    -0.082 HD
ENDBRANCH  29  30
ENDBRANCH  28  29
ENDBRANCH  26  28
ENDBRANCH  22  24
ENDBRANCH   9  22
BRANCH   8  36
ATOM     36  O   UNL     1       2.005   2.246  -1.441  0.00  0.00    -0.391 OA
ATOM     37  H   UNL     1       1.726   2.877  -2.297  0.00  0.00    +0.210 HD
ENDBRANCH   8  36
TORSDOF 9
