REMARK  Name = ZINC53750033
REMARK  2 active torsions:
REMARK  status: ('A' for Active; 'I' for Inactive)
REMARK    1  A    between atoms: C_4  and  C_8
REMARK    2  A    between atoms: C_8  and  C_9
REMARK                            x       y       z     vdW  Elec       q    Type
REMARK                         _______ _______ _______ _____ _____    ______ ____
ROOT
ATOM      1  C   UNL     1      -0.017   1.378   0.010  0.00  0.00    +0.003 A 
ATOM      2  C   UNL     1       1.171   2.086   0.002  0.00  0.00    +0.020 A 
ATOM      3  C   UNL     1       2.378   1.411  -0.013  0.00  0.00    +0.046 A 
ATOM      4  C   UNL     1       2.398   0.028  -0.021  0.00  0.00    -0.003 A 
ATOM      5  C   UNL     1       1.209  -0.680  -0.013  0.00  0.00    +0.046 A 
ATOM      6  C   UNL     1       0.002  -0.004   0.002  0.00  0.00    +0.020 A 
ATOM      7 CL   UNL     1       1.233  -2.416  -0.023  0.00  0.00    -0.083 Cl
ATOM      8 CL   UNL     1       3.869   2.300  -0.024  0.00  0.00    -0.083 Cl
ENDROOT
BRANCH   4   9
ATOM      9  C   UNL     1       3.713  -0.707  -0.038  0.00  0.00    +0.117 C 
BRANCH   9  10
ATOM     10  C   UNL     1       4.166  -0.960   1.376  0.00  0.00    +0.177 A 
ATOM     11  N   UNL     1       4.927  -0.138   2.108  0.00  0.00    -0.181 NA
ATOM     12  C   UNL     1       5.136  -0.654   3.289  0.00  0.00    +0.321 A 
ATOM     13  O   UNL     1       4.507  -1.835   3.347  0.00  0.00    -0.321 OA
ATOM     14  N   UNL     1       3.876  -2.011   2.087  0.00  0.00    -0.059 NA
ATOM     15 CL   UNL     1       6.068   0.067   4.564  0.00  0.00    -0.020 Cl
ENDBRANCH   9  10
ENDBRANCH   4   9
TORSDOF 2
