REMARK  Name = ZINC18246813
REMARK  6 active torsions:
REMARK  status: ('A' for Active; 'I' for Inactive)
REMARK    1  A    between atoms: C_3  and  C_6
REMARK    2  A    between atoms: N_8  and  C_9
REMARK    3  A    between atoms: C_9  and  C_10
REMARK    4  A    between atoms: C_10  and  N_12
REMARK    5  A    between atoms: N_13  and  C_14
REMARK    6  A    between atoms: C_23  and  O_24
REMARK                            x       y       z     vdW  Elec       q    Type
REMARK                         _______ _______ _______ _____ _____    ______ ____
ROOT
ATOM      1  N   UNL     1       8.326   0.081  -0.077  0.00  0.00    -0.078 NA
ATOM      2  N   UNL     1       9.084  -0.963  -0.090  0.00  0.00    -0.151 NA
ENDROOT
BRANCH   2   3
ATOM      3  C   UNL     1      10.410  -0.823  -0.102  0.00  0.00    +0.152 A 
ATOM      4  C   UNL     1      11.418  -1.904  -0.123  0.00  0.00    +0.032 A 
ATOM      5  C   UNL     1      11.337  -3.293  -0.136  0.00  0.00    +0.027 A 
ATOM      6  C   UNL     1      12.494  -4.045  -0.155  0.00  0.00    +0.019 A 
ATOM      7  C   UNL     1      13.732  -3.420  -0.162  0.00  0.00    +0.017 A 
ATOM      8  C   UNL     1      13.824  -2.043  -0.149  0.00  0.00    +0.027 A 
ATOM      9  C   UNL     1      12.669  -1.270  -0.130  0.00  0.00    +0.051 A 
ATOM     10  N   UNL     1      12.457   0.100  -0.114  0.00  0.00    -0.324 N 
ATOM     11  H   UNL     1      13.161   0.767  -0.114  0.00  0.00    +0.169 HD
ATOM     12  C   UNL     1      11.132   0.378  -0.103  0.00  0.00    +0.219 A 
ATOM     13 BR   UNL     1      12.392  -5.933  -0.172  0.00  0.00    -0.050 Br
BRANCH  12  14
ATOM     14  O   UNL     1      10.593   1.615  -0.091  0.00  0.00    -0.492 OA
ATOM     15  H   UNL     1      10.444   1.970   0.796  0.00  0.00    +0.294 HD
ENDBRANCH  12  14
ENDBRANCH   2   3
BRANCH   1  16
ATOM     16  C   UNL     1       6.993  -0.059  -0.065  0.00  0.00    +0.271 C 
ATOM     17  O   UNL     1       6.499  -1.169  -0.066  0.00  0.00    -0.270 OA
BRANCH  16  18
ATOM     18  C   UNL     1       6.107   1.160  -0.050  0.00  0.00    +0.204 C 
BRANCH  18  21
ATOM     19  C   UNL     1       3.725   1.670  -0.025  0.00  0.00    +0.251 C 
ATOM     20  O   UNL     1       4.008   2.853  -0.021  0.00  0.00    -0.270 OA
ATOM     21  N   UNL     1       4.703   0.743  -0.039  0.00  0.00    -0.302 N 
ATOM     22  H   UNL     1       4.477  -0.201  -0.042  0.00  0.00    +0.150 HD
BRANCH  19  25
ATOM     23  C   UNL     1      -0.016   1.352   0.009  0.00  0.00    +0.008 A 
ATOM     24  C   UNL     1       1.175   2.036   0.002  0.00  0.00    +0.021 A 
ATOM     25  C   UNL     1       2.320   1.253  -0.013  0.00  0.00    +0.074 A 
ATOM     26  S   UNL     1       1.636  -0.394  -0.016  0.00  0.00    -0.092 S 
ATOM     27  C   UNL     1       0.002  -0.004   0.002  0.00  0.00    +0.046 A 
ENDBRANCH  19  25
ENDBRANCH  18  21
ENDBRANCH  16  18
ENDBRANCH   1  16
TORSDOF 6
