REMARK  Name = ZINC38546795
REMARK  12 active torsions:
REMARK  status: ('A' for Active; 'I' for Inactive)
REMARK    1  A    between atoms: C_1  and  C_2
REMARK    2  A    between atoms: C_2  and  N_3
REMARK    3  A    between atoms: N_6  and  C_9
REMARK    4  A    between atoms: C_9  and  C_11
REMARK    5  A    between atoms: C_9  and  C_20
REMARK    6  A    between atoms: C_14  and  C_17
REMARK    7  A    between atoms: C_17  and  C_18
REMARK    8  A    between atoms: C_17  and  C_19
REMARK    9  A    between atoms: C_21  and  C_34
REMARK   10  A    between atoms: C_22  and  C_33
REMARK   11  A    between atoms: C_24  and  N_25
REMARK   12  A    between atoms: C_26  and  C_28
REMARK                            x       y       z     vdW  Elec       q    Type
REMARK                         _______ _______ _______ _____ _____    ______ ____
ROOT
ATOM      1  C   UNL     1       3.492  -2.454  -3.747  0.00  0.00    +0.120 C 
ENDROOT
BRANCH   1   5
ATOM      2  N   UNL     1       1.710  -0.491  -0.454  0.00  0.00    +0.381 N 
ATOM      3  C   UNL     1       1.806  -1.956  -0.415  0.00  0.00    -0.063 C 
ATOM      4  C   UNL     1       2.876  -2.424  -1.405  0.00  0.00    +0.067 C 
ATOM      5  N   UNL     1       2.517  -1.975  -2.757  0.00  0.00    -0.295 NA
ATOM      6  C   UNL     1       2.392  -0.511  -2.806  0.00  0.00    +0.067 C 
ATOM      7  C   UNL     1       1.327  -0.059  -1.805  0.00  0.00    -0.063 C 
ATOM      8  H   UNL     1       2.604  -0.089  -0.214  0.00  0.00    -0.082 HD
BRANCH   2  10
ATOM      9  C   UNL     1       1.155  -0.380   1.929  0.00  0.00    -0.017 C 
ATOM     10  C   UNL     1       0.696  -0.041   0.509  0.00  0.00    -0.082 C 
ENDBRANCH   2  10
ENDBRANCH   1   5
BRANCH   1  11
ATOM     11  C   UNL     1       3.614  -3.952  -3.647  0.00  0.00    +0.006 A 
ATOM     12  C   UNL     1       4.855  -4.562  -3.688  0.00  0.00    -0.034 A 
ATOM     13  C   UNL     1       4.929  -5.911  -3.595  0.00  0.00    -0.008 A 
ATOM     14  S   UNL     1       3.211  -6.370  -3.444  0.00  0.00    -0.078 S 
ATOM     15  C   UNL     1       2.505  -4.731  -3.509  0.00  0.00    +0.077 A 
ATOM     16  C   UNL     1       6.148  -6.796  -3.615  0.00  0.00    +0.052 C 
ATOM     17  C   UNL     1       6.107  -3.736  -3.834  0.00  0.00    +0.045 C 
BRANCH  15  18
ATOM     18  N   UNL     1       1.164  -4.348  -3.438  0.00  0.00    -0.275 N 
ATOM     19  C   UNL     1       0.195  -5.285  -3.415  0.00  0.00    +0.255 C 
ATOM     20  O   UNL     1       0.491  -6.464  -3.362  0.00  0.00    -0.269 OA
ATOM     21  H   UNL     1       0.929  -3.407  -3.406  0.00  0.00    +0.156 HD
BRANCH  19  22
ATOM     22  C   UNL     1      -1.214  -4.883  -3.452  0.00  0.00    +0.074 A 
ATOM     23  C   UNL     1      -2.350  -5.670  -3.340  0.00  0.00    +0.021 A 
ATOM     24  C   UNL     1      -3.549  -5.001  -3.413  0.00  0.00    +0.008 A 
ATOM     25  C   UNL     1      -3.544  -3.657  -3.586  0.00  0.00    +0.046 A 
ATOM     26  S   UNL     1      -1.913  -3.255  -3.647  0.00  0.00    -0.092 S 
ENDBRANCH  19  22
ENDBRANCH  15  18
ENDBRANCH   1  11
BRANCH   1  27
ATOM     27  C   UNL     1       3.028  -2.079  -5.131  0.00  0.00    -0.026 A 
ATOM     28  C   UNL     1       1.677  -2.022  -5.415  0.00  0.00    +0.006 A 
ATOM     29  C   UNL     1       1.252  -1.677  -6.685  0.00  0.00    +0.004 A 
ATOM     30  C   UNL     1       2.178  -1.390  -7.670  0.00  0.00    -0.045 A 
ATOM     31  C   UNL     1       3.530  -1.446  -7.385  0.00  0.00    +0.004 A 
ATOM     32  C   UNL     1       3.954  -1.786  -6.114  0.00  0.00    +0.006 A 
BRANCH  30  33
ATOM     33  C   UNL     1       1.714  -1.016  -9.054  0.00  0.00    +0.013 C 
ATOM     34  C   UNL     1       2.224   0.384  -9.401  0.00  0.00    +0.012 C 
ATOM     35  C   UNL     1       2.264  -2.024 -10.066  0.00  0.00    +0.012 C 
ENDBRANCH  30  33
ENDBRANCH   1  27
TORSDOF 7
