REMARK  Name = ZINC13030527
REMARK  4 active torsions:
REMARK  status: ('A' for Active; 'I' for Inactive)
REMARK    1  A    between atoms: C_3  and  S_10
REMARK    2  A    between atoms: C_6  and  C_7
REMARK    3  A    between atoms: S_10  and  N_13
REMARK    4  A    between atoms: C_16  and  C_19
REMARK                            x       y       z     vdW  Elec       q    Type
REMARK                         _______ _______ _______ _____ _____    ______ ____
ROOT
ATOM      1  N   UNL     1       4.325   2.569   1.555  0.00  0.00    -0.103 NA
ATOM      2  C   UNL     1       5.424   3.225   1.837  0.00  0.00    +0.192 A 
ATOM      3  N   UNL     1       5.967   3.530   3.066  0.00  0.00    -0.336 N 
ATOM      4  C   UNL     1       7.136   4.232   3.104  0.00  0.00    +0.031 A 
ATOM      5  C   UNL     1       7.730   4.609   1.972  0.00  0.00    +0.070 A 
ATOM      6  S   UNL     1       6.623   3.955   0.733  0.00  0.00    -0.057 S 
ATOM      7  H   UNL     1       5.528   3.253   3.885  0.00  0.00    +0.168 HD
ENDROOT
BRANCH   4   8
ATOM      8  C   UNL     1       7.759   4.583   4.431  0.00  0.00    +0.012 C 
ATOM      9  C   UNL     1       8.071   3.300   5.204  0.00  0.00    +0.016 C 
ATOM     10  C   UNL     1       8.703   3.657   6.551  0.00  0.00    -0.010 C 
ATOM     11  C   UNL     1       9.997   4.439   6.316  0.00  0.00    +0.007 C 
ATOM     12  C   UNL     1       9.685   5.722   5.543  0.00  0.00    -0.010 C 
ATOM     13  C   UNL     1       9.053   5.365   4.196  0.00  0.00    +0.016 C 
ATOM     14  C   UNL     1       8.710   6.580   6.353  0.00  0.00    +0.007 C 
ATOM     15  C   UNL     1       7.416   5.798   6.587  0.00  0.00    -0.010 C 
ATOM     16  C   UNL     1       7.728   4.515   7.360  0.00  0.00    +0.007 C 
ATOM     17  C   UNL     1       6.784   5.442   5.240  0.00  0.00    +0.016 C 
ENDBRANCH   4   8
BRANCH   1  18
ATOM     18  S   UNL     1       3.889   2.326  -0.024  0.00  0.00    +0.101 S 
ATOM     19  O   UNL     1       4.872   1.469  -0.589  0.00  0.00    -0.146 OA
ATOM     20  O   UNL     1       3.591   3.605  -0.566  0.00  0.00    -0.146 OA
BRANCH  18  23
ATOM     21  C   UNL     1      -0.017   1.393   0.010  0.00  0.00    +0.017 A 
ATOM     22  C   UNL     1       1.170   2.095   0.002  0.00  0.00    +0.030 A 
ATOM     23  C   UNL     1       2.378   1.420  -0.013  0.00  0.00    +0.113 A 
ATOM     24  C   UNL     1       2.404   0.036  -0.021  0.00  0.00    +0.030 A 
ATOM     25  C   UNL     1       1.225  -0.679  -0.013  0.00  0.00    +0.017 A 
ATOM     26  C   UNL     1       0.002  -0.004   0.002  0.00  0.00    +0.063 A 
BRANCH  26  27
ATOM     27  C   UNL     1      -1.263  -0.763   0.011  0.00  0.00    +0.387 C 
ATOM     28  O   UNL     1      -2.332  -0.169   0.024  0.00  0.00    -0.241 OA
ATOM     29  O   UNL     1      -1.243  -1.985   0.004  0.00  0.00    -0.241 OA
ENDBRANCH  26  27
ENDBRANCH  18  23
ENDBRANCH   1  18
TORSDOF 4
