REMARK  Name = ZINC63637637
REMARK  4 active torsions:
REMARK  status: ('A' for Active; 'I' for Inactive)
REMARK    1  A    between atoms: C_4  and  C_7
REMARK    2  A    between atoms: C_7  and  O_8
REMARK    3  A    between atoms: O_8  and  C_9
REMARK    4  A    between atoms: C_13  and  C_15
REMARK                            x       y       z     vdW  Elec       q    Type
REMARK                         _______ _______ _______ _____ _____    ______ ____
ROOT
ATOM      1  C   UNL     1       7.507  -2.840   4.289  0.00  0.00    +0.073 C 
ATOM      2  C   UNL     1       7.642  -4.353   4.468  0.00  0.00    +0.148 C 
ATOM      3  C   UNL     1       8.867  -4.793   3.701  0.00  0.00    +0.106 C 
ATOM      4  N   UNL     1       8.818  -5.696   2.772  0.00  0.00    -0.151 NA
ATOM      5  C   UNL     1       7.674  -6.290   2.404  0.00  0.00    +0.331 C 
ATOM      6  O   UNL     1       7.702  -7.149   1.542  0.00  0.00    -0.250 OA
ATOM      7  N   UNL     1       6.499  -5.962   2.962  0.00  0.00    -0.238 N 
ATOM      8  C   UNL     1       6.417  -5.045   3.946  0.00  0.00    +0.231 C 
ATOM      9  O   UNL     1       5.335  -4.771   4.420  0.00  0.00    -0.275 OA
ATOM     10  N   UNL     1      10.042  -4.174   4.029  0.00  0.00    -0.307 N 
ATOM     11  C   UNL     1      10.009  -2.830   4.330  0.00  0.00    +0.016 C 
ATOM     12  C   UNL     1       8.849  -2.170   4.476  0.00  0.00    +0.020 C 
ATOM     13  C   UNL     1       8.840  -0.802   4.815  0.00  0.00    +0.161 C 
ATOM     14  O   UNL     1       7.777  -0.227   4.937  0.00  0.00    -0.292 OA
ATOM     15  C   UNL     1      10.117  -0.038   5.029  0.00  0.00    +0.080 C 
ATOM     16  C   UNL     1      11.202  -1.006   5.513  0.00  0.00    +0.014 C 
ATOM     17  C   UNL     1      11.334  -2.122   4.488  0.00  0.00    +0.051 C 
ATOM     18  H   UNL     1       5.688  -6.395   2.652  0.00  0.00    +0.159 HD
ATOM     19  H   UNL     1      10.877  -4.668   4.048  0.00  0.00    +0.153 HD
ENDROOT
BRANCH   1  24
ATOM     20  C   UNL     1       5.319  -1.605   1.466  0.00  0.00    +0.121 A 
ATOM     21  C   UNL     1       6.048  -2.007   0.357  0.00  0.00    +0.045 A 
ATOM     22  C   UNL     1       7.245  -2.676   0.525  0.00  0.00    +0.004 A 
ATOM     23  C   UNL     1       7.716  -2.945   1.797  0.00  0.00    +0.004 A 
ATOM     24  C   UNL     1       6.991  -2.545   2.904  0.00  0.00    -0.035 A 
ATOM     25  C   UNL     1       5.796  -1.871   2.742  0.00  0.00    +0.050 A 
BRANCH  20  26
ATOM     26  O   UNL     1       4.141  -0.946   1.304  0.00  0.00    -0.487 OA
BRANCH  26  27
ATOM     27  C   UNL     1       3.711  -0.707  -0.038  0.00  0.00    +0.264 C 
BRANCH  27  31
ATOM     28  C   UNL     1      -0.017   1.378   0.010  0.00  0.00    +0.000 A 
ATOM     29  C   UNL     1       1.171   2.086   0.002  0.00  0.00    +0.000 A 
ATOM     30  C   UNL     1       2.377   1.411  -0.013  0.00  0.00    +0.007 A 
ATOM     31  C   UNL     1       2.396   0.029  -0.020  0.00  0.00    -0.010 A 
ATOM     32  C   UNL     1       1.208  -0.679  -0.012  0.00  0.00    +0.007 A 
ATOM     33  C   UNL     1       0.002  -0.004   0.002  0.00  0.00    +0.000 A 
ENDBRANCH  27  31
ENDBRANCH  26  27
ENDBRANCH  20  26
ENDBRANCH   1  24
TORSDOF 4
