REMARK  Name = ZINC63339744
REMARK  13 active torsions:
REMARK  status: ('A' for Active; 'I' for Inactive)
REMARK    1  A    between atoms: C_1  and  C_2
REMARK    2  A    between atoms: C_6  and  C_8
REMARK    3  A    between atoms: C_8  and  S_9
REMARK    4  A    between atoms: S_9  and  C_10
REMARK    5  A    between atoms: C_14  and  C_17
REMARK    6  A    between atoms: C_17  and  C_19
REMARK    7  A    between atoms: C_17  and  N_29
REMARK    8  A    between atoms: C_19  and  C_20
REMARK    9  A    between atoms: C_30  and  O_32
REMARK   10  A    between atoms: O_32  and  C_33
REMARK   11  A    between atoms: C_33  and  C_34
REMARK   12  A    between atoms: C_33  and  C_35
REMARK   13  A    between atoms: C_33  and  C_36
REMARK                            x       y       z     vdW  Elec       q    Type
REMARK                         _______ _______ _______ _____ _____    ______ ____
ROOT
ATOM      1  C   UNL     1      -1.093  -3.879   6.874  0.00  0.00    +0.125 C 
ENDROOT
BRANCH   1   5
ATOM      2  C   UNL     1       1.617  -4.041   4.561  0.00  0.00    +0.263 C 
ATOM      3  N   UNL     1       0.813  -5.277   4.369  0.00  0.00    -0.218 NA
ATOM      4  N   UNL     1       0.285  -5.557   5.709  0.00  0.00    -0.225 NA
ATOM      5  C   UNL     1       0.320  -4.270   6.435  0.00  0.00    +0.223 C 
ATOM      6  O   UNL     1       0.844  -3.286   5.521  0.00  0.00    -0.330 OA
ATOM      7  H   UNL     1       1.391  -6.037   4.042  0.00  0.00    +0.144 HD
ATOM      8  H   UNL     1      -0.656  -5.918   5.659  0.00  0.00    +0.143 HD
BRANCH   2   9
ATOM      9  S   UNL     1       1.770  -3.127   3.002  0.00  0.00    -0.108 S 
BRANCH   9  10
ATOM     10  C   UNL     1       0.054  -2.845   2.489  0.00  0.00    +0.108 C 
BRANCH  10  16
ATOM     11  C   UNL     1      -0.018   1.503   0.010  0.00  0.00    +0.044 C 
ATOM     12  C   UNL     1       0.002  -0.004   0.002  0.00  0.00    -0.050 A 
ATOM     13  C   UNL     1       0.006  -0.689  -1.199  0.00  0.00    +0.003 A 
ATOM     14  C   UNL     1       0.025  -2.071  -1.207  0.00  0.00    +0.001 A 
ATOM     15  C   UNL     1       0.040  -2.768  -0.013  0.00  0.00    +0.004 A 
ATOM     16  C   UNL     1       0.037  -2.084   1.188  0.00  0.00    -0.037 A 
ATOM     17  C   UNL     1       0.023  -0.702   1.195  0.00  0.00    +0.007 A 
ENDBRANCH  10  16
ENDBRANCH   9  10
ENDBRANCH   2   9
ENDBRANCH   1   5
BRANCH   1  18
ATOM     18  N   UNL     1      -1.634  -4.915   7.757  0.00  0.00    -0.274 N 
ATOM     19  C   UNL     1      -1.005  -5.214   8.911  0.00  0.00    +0.401 C 
ATOM     20  O   UNL     1       0.011  -4.623   9.219  0.00  0.00    -0.226 OA
ATOM     21  H   UNL     1      -2.445  -5.387   7.511  0.00  0.00    +0.152 HD
BRANCH  19  22
ATOM     22  O   UNL     1      -1.502  -6.166   9.722  0.00  0.00    -0.445 OA
BRANCH  22  23
ATOM     23  C   UNL     1      -0.784  -6.431  10.929  0.00  0.00    +0.107 C 
ATOM     24  C   UNL     1      -0.726  -5.158  11.776  0.00  0.00    +0.055 C 
ATOM     25  C   UNL     1      -1.495  -7.534  11.714  0.00  0.00    +0.055 C 
ATOM     26  C   UNL     1       0.637  -6.882  10.588  0.00  0.00    +0.055 C 
ENDBRANCH  22  23
ENDBRANCH  19  22
ENDBRANCH   1  18
BRANCH   1  27
ATOM     27  C   UNL     1      -1.043  -2.546   7.623  0.00  0.00    +0.059 C 
BRANCH  27  28
ATOM     28  C   UNL     1      -2.446  -2.100   7.949  0.00  0.00    -0.040 C 
ATOM     29  C   UNL     1      -3.117  -2.306   9.105  0.00  0.00    -0.001 A 
ATOM     30  C   UNL     1      -2.756  -2.982  10.357  0.00  0.00    +0.010 A 
ATOM     31  C   UNL     1      -3.661  -3.028  11.361  0.00  0.00    +0.001 A 
ATOM     32  C   UNL     1      -4.931  -2.448  11.236  0.00  0.00    +0.002 A 
ATOM     33  C   UNL     1      -5.335  -1.810  10.117  0.00  0.00    +0.026 A 
ATOM     34  C   UNL     1      -4.464  -1.702   8.998  0.00  0.00    +0.043 A 
ATOM     35  N   UNL     1      -4.620  -1.144   7.822  0.00  0.00    -0.380 N 
ATOM     36  C   UNL     1      -3.385  -1.326   7.051  0.00  0.00    +0.144 C 
ATOM     37  H   UNL     1      -5.416  -0.684   7.515  0.00  0.00    +0.160 HD
ENDBRANCH  27  28
ENDBRANCH   1  27
TORSDOF 9
