REMARK  Name = ZINC36135893
REMARK  6 active torsions:
REMARK  status: ('A' for Active; 'I' for Inactive)
REMARK    1  A    between atoms: C_1  and  C_2
REMARK    2  A    between atoms: C_4  and  S_9
REMARK    3  A    between atoms: S_9  and  N_12
REMARK    4  A    between atoms: N_12  and  C_13
REMARK    5  A    between atoms: C_13  and  C_14
REMARK    6  A    between atoms: N_17  and  C_21
REMARK                            x       y       z     vdW  Elec       q    Type
REMARK                         _______ _______ _______ _____ _____    ______ ____
ROOT
ATOM      1  N   UNL     1       1.612  -3.163  -3.171  0.00  0.00    -0.186 NA
ATOM      2  H   UNL     1       1.960  -2.735  -3.969  0.00  0.00    +0.148 HD
ENDROOT
BRANCH   1   3
ATOM      3  S   UNL     1       0.029  -2.942  -2.738  0.00  0.00    +0.059 S 
ATOM      4  O   UNL     1      -0.503  -4.233  -2.472  0.00  0.00    -0.153 OA
ATOM      5  O   UNL     1      -0.539  -2.069  -3.704  0.00  0.00    -0.153 OA
BRANCH   3   9
ATOM      6  C   UNL     1      -0.018   1.503   0.010  0.00  0.00    +0.047 C 
ATOM      7  C   UNL     1       0.002  -0.004   0.002  0.00  0.00    -0.013 A 
ATOM      8  C   UNL     1       0.006  -0.689  -1.199  0.00  0.00    +0.034 A 
ATOM      9  C   UNL     1       0.025  -2.071  -1.206  0.00  0.00    +0.106 A 
ATOM     10  C   UNL     1       0.040  -2.770  -0.014  0.00  0.00    +0.031 A 
ATOM     11  C   UNL     1       0.036  -2.088   1.188  0.00  0.00    +0.040 A 
ATOM     12  C   UNL     1       0.023  -0.703   1.197  0.00  0.00    +0.126 A 
ATOM     13  F   UNL     1       0.025  -0.035   2.371  0.00  0.00    -0.205 F 
ENDBRANCH   3   9
ENDBRANCH   1   3
BRANCH   1  14
ATOM     14  C   UNL     1       2.486  -4.005  -2.350  0.00  0.00    +0.152 C 
BRANCH  14  15
ATOM     15  C   UNL     1       3.751  -4.348  -3.139  0.00  0.00    +0.211 C 
ATOM     16  C   UNL     1       4.665  -5.298  -2.329  0.00  0.00    +0.163 C 
ATOM     17  N   UNL     1       5.194  -6.192  -3.378  0.00  0.00    -0.234 N 
ATOM     18  C   UNL     1       4.437  -6.025  -4.479  0.00  0.00    +0.408 C 
ATOM     19  O   UNL     1       4.637  -6.606  -5.527  0.00  0.00    -0.226 OA
ATOM     20  O   UNL     1       3.435  -5.148  -4.295  0.00  0.00    -0.444 OA
BRANCH  17  21
ATOM     21  C   UNL     1       6.287  -7.057  -3.252  0.00  0.00    +0.040 A 
ATOM     22  C   UNL     1       6.979  -7.132  -2.050  0.00  0.00    +0.023 A 
ATOM     23  C   UNL     1       8.057  -7.987  -1.929  0.00  0.00    +0.002 A 
ATOM     24  C   UNL     1       8.447  -8.768  -3.001  0.00  0.00    +0.000 A 
ATOM     25  C   UNL     1       7.760  -8.695  -4.199  0.00  0.00    +0.002 A 
ATOM     26  C   UNL     1       6.678  -7.846  -4.326  0.00  0.00    +0.023 A 
ENDBRANCH  17  21
ENDBRANCH  14  15
ENDBRANCH   1  14
TORSDOF 5
