REMARK  Name = ZINC28236884
REMARK  9 active torsions:
REMARK  status: ('A' for Active; 'I' for Inactive)
REMARK    1  A    between atoms: C_1  and  C_2
REMARK    2  A    between atoms: C_4  and  C_27
REMARK    3  A    between atoms: N_6  and  C_7
REMARK    4  A    between atoms: C_7  and  C_9
REMARK    5  A    between atoms: C_7  and  C_10
REMARK    6  A    between atoms: N_12  and  C_13
REMARK    7  A    between atoms: C_13  and  C_15
REMARK    8  A    between atoms: C_13  and  C_16
REMARK    9  A    between atoms: C_19  and  N_22
REMARK                            x       y       z     vdW  Elec       q    Type
REMARK                         _______ _______ _______ _____ _____    ______ ____
ROOT
ATOM      1  C   UNL     1      -0.742   1.585  -1.213  0.00  0.00    +0.238 C 
ATOM      2  O   UNL     1      -0.169   2.295  -2.013  0.00  0.00    -0.273 OA
ATOM      3  N   UNL     1      -2.029   1.243  -1.416  0.00  0.00    -0.307 N 
ATOM      4  H   UNL     1      -2.549   0.600  -0.690  0.00  0.00    +0.149 HD
ENDROOT
BRANCH   1   5
ATOM      5  C   UNL     1      -0.013   1.086   0.008  0.00  0.00    +0.190 C 
ATOM      6  C   UNL     1      -0.729   1.579   1.267  0.00  0.00    +0.042 C 
BRANCH   5  12
ATOM      7  C   UNL     1       2.548  -0.662  -0.025  0.00  0.00    +0.065 C 
ATOM      8  C   UNL     1       2.484   0.844  -0.017  0.00  0.00    +0.038 A 
ATOM      9  C   UNL     1       3.542   1.687  -0.023  0.00  0.00    +0.056 A 
ATOM     10  C   UNL     1       3.050   2.996  -0.012  0.00  0.00    +0.165 A 
ATOM     11  N   UNL     1       1.743   2.941  -0.005  0.00  0.00    -0.166 NA
ATOM     12  N   UNL     1       1.362   1.593  -0.002  0.00  0.00    -0.256 N 
BRANCH  10  13
ATOM     13  C   UNL     1       3.881   4.253  -0.013  0.00  0.00    +0.436 C 
ATOM     14  F   UNL     1       4.126   4.649  -1.333  0.00  0.00    -0.164 F 
ATOM     15  F   UNL     1       3.192   5.269   0.658  0.00  0.00    -0.164 F 
ATOM     16  F   UNL     1       5.098   4.009   0.633  0.00  0.00    -0.164 F 
ENDBRANCH  10  13
ENDBRANCH   5  12
ENDBRANCH   1   5
BRANCH   3  17
ATOM     17  C   UNL     1      -2.738   1.728  -2.603  0.00  0.00    +0.100 C 
ATOM     18  C   UNL     1      -2.457   0.794  -3.782  0.00  0.00    +0.033 C 
BRANCH  17  19
ATOM     19  C   UNL     1      -4.219   1.757  -2.326  0.00  0.00    -0.027 A 
ATOM     20  C   UNL     1      -4.809   0.729  -1.615  0.00  0.00    +0.007 A 
ATOM     21  C   UNL     1      -6.165   0.755  -1.355  0.00  0.00    +0.026 A 
ATOM     22  C   UNL     1      -6.939   1.811  -1.819  0.00  0.00    +0.046 A 
ATOM     23  C   UNL     1      -6.345   2.839  -2.538  0.00  0.00    +0.026 A 
ATOM     24  C   UNL     1      -4.987   2.810  -2.790  0.00  0.00    +0.007 A 
BRANCH  22  25
ATOM     25  N   UNL     1      -8.316   1.838  -1.562  0.00  0.00    -0.323 N 
ATOM     26  C   UNL     1      -9.181   2.819  -1.957  0.00  0.00    +0.091 A 
ATOM     27  C   UNL     1     -10.416   2.490  -1.526  0.00  0.00    +0.019 A 
ATOM     28  C   UNL     1     -10.310   1.268  -0.833  0.00  0.00    +0.019 A 
ATOM     29  C   UNL     1      -9.016   0.891  -0.870  0.00  0.00    +0.091 A 
ENDBRANCH  22  25
ENDBRANCH  17  19
ENDBRANCH   3  17
TORSDOF 6
