REMARK  Name = ZINC12619552
REMARK  9 active torsions:
REMARK  status: ('A' for Active; 'I' for Inactive)
REMARK    1  A    between atoms: C_1  and  C_2
REMARK    2  A    between atoms: C_3  and  C_14
REMARK    3  A    between atoms: C_4  and  O_13
REMARK    4  A    between atoms: N_5  and  C_7
REMARK    5  A    between atoms: C_14  and  C_15
REMARK    6  A    between atoms: C_14  and  C_27
REMARK    7  A    between atoms: C_18  and  C_21
REMARK    8  A    between atoms: C_28  and  C_39
REMARK    9  A    between atoms: N_30  and  C_33
REMARK                            x       y       z     vdW  Elec       q    Type
REMARK                         _______ _______ _______ _____ _____    ______ ____
ROOT
ATOM      1  C   UNL     1      -0.284  -0.327  -2.471  0.00  0.00    +0.093 C 
ENDROOT
BRANCH   1   2
ATOM      2  C   UNL     1       0.911  -0.649  -3.332  0.00  0.00    +0.051 A 
ATOM      3  C   UNL     1       1.674   0.244  -3.994  0.00  0.00    +0.039 A 
ATOM      4  N   UNL     1       2.656  -0.434  -4.658  0.00  0.00    -0.294 N 
ATOM      5  N   UNL     1       2.495  -1.802  -4.397  0.00  0.00    -0.219 N 
ATOM      6  C   UNL     1       1.431  -1.940  -3.580  0.00  0.00    +0.276 A 
ATOM      7  O   UNL     1       0.995  -2.989  -3.139  0.00  0.00    -0.266 OA
ATOM      8  C   UNL     1       1.476   1.738  -4.000  0.00  0.00    +0.065 C 
ATOM      9  H   UNL     1       3.345  -0.038  -5.214  0.00  0.00    +0.187 HD
BRANCH   5  10
ATOM     10  C   UNL     1       3.297  -2.835  -4.891  0.00  0.00    +0.067 A 
ATOM     11  C   UNL     1       3.018  -4.154  -4.555  0.00  0.00    +0.028 A 
ATOM     12  C   UNL     1       3.812  -5.172  -5.044  0.00  0.00    +0.002 A 
ATOM     13  C   UNL     1       4.884  -4.881  -5.867  0.00  0.00    +0.000 A 
ATOM     14  C   UNL     1       5.165  -3.569  -6.204  0.00  0.00    +0.002 A 
ATOM     15  C   UNL     1       4.371  -2.546  -5.723  0.00  0.00    +0.028 A 
ENDBRANCH   5  10
ENDBRANCH   1   2
BRANCH   1  18
ATOM     16  C   UNL     1       2.454  -0.738  -0.935  0.00  0.00    +0.068 C 
ATOM     17  C   UNL     1       1.092  -1.150  -0.438  0.00  0.00    +0.068 A 
ATOM     18  C   UNL     1      -0.116  -0.968  -1.118  0.00  0.00    +0.048 A 
ATOM     19  C   UNL     1      -1.112  -1.471  -0.342  0.00  0.00    +0.220 A 
ATOM     20  N   UNL     1      -0.541  -1.954   0.794  0.00  0.00    -0.200 N 
ATOM     21  N   UNL     1       0.841  -1.744   0.701  0.00  0.00    -0.168 NA
BRANCH  20  22
ATOM     22  C   UNL     1      -1.214  -2.560   1.864  0.00  0.00    +0.069 A 
ATOM     23  C   UNL     1      -2.483  -2.126   2.222  0.00  0.00    +0.028 A 
ATOM     24  C   UNL     1      -3.144  -2.725   3.277  0.00  0.00    +0.002 A 
ATOM     25  C   UNL     1      -2.543  -3.756   3.975  0.00  0.00    +0.000 A 
ATOM     26  C   UNL     1      -1.279  -4.190   3.621  0.00  0.00    +0.002 A 
ATOM     27  C   UNL     1      -0.615  -3.599   2.563  0.00  0.00    +0.028 A 
ENDBRANCH  20  22
BRANCH  19  28
ATOM     28  O   UNL     1      -2.435  -1.487  -0.644  0.00  0.00    -0.492 OA
ATOM     29  H   UNL     1      -2.739  -2.317  -1.036  0.00  0.00    +0.294 HD
ENDBRANCH  19  28
ENDBRANCH   1  18
BRANCH   1  30
ATOM     30  C   UNL     1      -1.533  -0.858  -3.127  0.00  0.00    -0.035 A 
ATOM     31  C   UNL     1      -1.734  -2.223  -3.222  0.00  0.00    +0.005 A 
ATOM     32  C   UNL     1      -2.876  -2.715  -3.822  0.00  0.00    +0.009 A 
ATOM     33  C   UNL     1      -3.826  -1.833  -4.332  0.00  0.00    -0.018 A 
ATOM     34  C   UNL     1      -3.619  -0.459  -4.233  0.00  0.00    +0.009 A 
ATOM     35  C   UNL     1      -2.476   0.022  -3.627  0.00  0.00    +0.005 A 
BRANCH  33  36
ATOM     36  C   UNL     1      -5.056  -2.356  -4.978  0.00  0.00    -0.018 A 
ATOM     37  C   UNL     1      -5.266  -3.730  -5.071  0.00  0.00    +0.008 A 
ATOM     38  C   UNL     1      -6.412  -4.211  -5.673  0.00  0.00    +0.001 A 
ATOM     39  C   UNL     1      -7.349  -3.332  -6.183  0.00  0.00    +0.000 A 
ATOM     40  C   UNL     1      -7.146  -1.966  -6.093  0.00  0.00    +0.001 A 
ATOM     41  C   UNL     1      -6.007  -1.474  -5.488  0.00  0.00    +0.008 A 
ENDBRANCH  33  36
ENDBRANCH   1  30
TORSDOF 7
