REMARK  Name = ZINC63811650
REMARK  9 active torsions:
REMARK  status: ('A' for Active; 'I' for Inactive)
REMARK    1  A    between atoms: C_6  and  C_7
REMARK    2  A    between atoms: C_7  and  C_8
REMARK    3  A    between atoms: C_8  and  C_9
REMARK    4  A    between atoms: C_8  and  C_25
REMARK    5  A    between atoms: C_9  and  N_10
REMARK    6  A    between atoms: C_11  and  C_13
REMARK    7  A    between atoms: C_13  and  O_14
REMARK    8  A    between atoms: O_14  and  C_15
REMARK    9  A    between atoms: C_18  and  N_22
REMARK                            x       y       z     vdW  Elec       q    Type
REMARK                         _______ _______ _______ _____ _____    ______ ____
ROOT
ATOM      1  N   UNL     1      -3.682  -1.613  -2.834  0.00  0.00    -0.312 N 
ATOM      2  C   UNL     1      -4.942  -2.010  -3.101  0.00  0.00    +0.251 C 
ATOM      3  O   UNL     1      -5.700  -2.276  -2.191  0.00  0.00    -0.272 OA
ATOM      4  H   UNL     1      -3.077  -1.401  -3.562  0.00  0.00    +0.149 HD
ENDROOT
BRANCH   1   5
ATOM      5  C   UNL     1      -3.227  -1.502  -1.446  0.00  0.00    +0.117 C 
BRANCH   5   6
ATOM      6  C   UNL     1      -1.811  -0.923  -1.419  0.00  0.00    +0.096 C 
BRANCH   6   7
ATOM      7  C   UNL     1      -0.859  -1.896  -2.064  0.00  0.00    +0.215 C 
ATOM      8  O   UNL     1      -1.023  -3.089  -1.924  0.00  0.00    -0.276 OA
ATOM      9  N   UNL     1       0.176  -1.440  -2.798  0.00  0.00    -0.329 N 
ATOM     10  H   UNL     1       0.349  -0.487  -2.852  0.00  0.00    +0.145 HD
ATOM     11  H   UNL     1       0.747  -2.064  -3.273  0.00  0.00    +0.145 HD
ENDBRANCH   6   7
BRANCH   6  12
ATOM     12  C   UNL     1      -1.387  -0.681   0.031  0.00  0.00    +0.049 C 
BRANCH  12  18
ATOM     13  C   UNL     1       0.010   1.393  -0.069  0.00  0.00    +0.006 A 
ATOM     14  C   UNL     1       1.234   2.034  -0.048  0.00  0.00    +0.038 A 
ATOM     15  C   UNL     1       2.398   1.299   0.097  0.00  0.00    +0.123 A 
ATOM     16  C   UNL     1       2.334  -0.079   0.220  0.00  0.00    +0.038 A 
ATOM     17  C   UNL     1       1.109  -0.718   0.199  0.00  0.00    +0.006 A 
ATOM     18  C   UNL     1      -0.052   0.018   0.054  0.00  0.00    -0.046 A 
ATOM     19  F   UNL     1       3.595   1.925   0.117  0.00  0.00    -0.205 F 
ENDBRANCH  12  18
ENDBRANCH   6  12
ENDBRANCH   5   6
ENDBRANCH   1   5
BRANCH   2  20
ATOM     20  C   UNL     1      -5.410  -2.125  -4.529  0.00  0.00    +0.324 C 
BRANCH  20  21
ATOM     21  O   UNL     1      -6.771  -2.561  -4.550  0.00  0.00    -0.483 OA
BRANCH  21  22
ATOM     22  C   UNL     1      -7.350  -2.716  -5.770  0.00  0.00    +0.124 A 
ATOM     23  C   UNL     1      -6.621  -2.460  -6.922  0.00  0.00    +0.048 A 
ATOM     24  C   UNL     1      -7.210  -2.619  -8.162  0.00  0.00    +0.039 A 
ATOM     25  C   UNL     1      -8.526  -3.032  -8.256  0.00  0.00    +0.161 A 
ATOM     26  C   UNL     1      -9.257  -3.288  -7.108  0.00  0.00    +0.157 A 
ATOM     27  C   UNL     1      -8.668  -3.136  -5.864  0.00  0.00    +0.086 A 
ATOM     28  F   UNL     1     -10.543  -3.692  -7.201  0.00  0.00    -0.203 F 
BRANCH  25  29
ATOM     29  N   UNL     1      -9.155  -3.200  -9.585  0.00  0.00    +0.059 N 
ATOM     30  O   UNL     1      -8.518  -2.976 -10.588  0.00  0.00    -0.126 OA
ATOM     31  O   UNL     1     -10.306  -3.562  -9.668  0.00  0.00    -0.126 OA
ENDBRANCH  25  29
ENDBRANCH  21  22
ENDBRANCH  20  21
ENDBRANCH   2  20
TORSDOF 9
