REMARK  Name = ZINC55651746
REMARK  7 active torsions:
REMARK  status: ('A' for Active; 'I' for Inactive)
REMARK    1  A    between atoms: C_1  and  C_2
REMARK    2  A    between atoms: C_5  and  N_23
REMARK    3  A    between atoms: C_7  and  S_8
REMARK    4  A    between atoms: S_8  and  N_11
REMARK    5  A    between atoms: N_11  and  C_12
REMARK    6  A    between atoms: C_17  and  C_18
REMARK    7  A    between atoms: N_20  and  C_21
REMARK                            x       y       z     vdW  Elec       q    Type
REMARK                         _______ _______ _______ _____ _____    ______ ____
ROOT
ATOM      1  S   UNL     1       0.025   0.171   2.726  0.00  0.00    +0.092 S 
ATOM      2  O   UNL     1      -1.014   1.137   2.645  0.00  0.00    -0.148 OA
ATOM      3  O   UNL     1       0.076  -0.810   3.753  0.00  0.00    -0.148 OA
ENDROOT
BRANCH   1  10
ATOM      4  C   UNL     1      -0.018   1.503   0.010  0.00  0.00    +0.046 C 
ATOM      5  C   UNL     1       0.002  -0.004   0.002  0.00  0.00    -0.024 A 
ATOM      6  C   UNL     1       0.006  -0.689  -1.199  0.00  0.00    +0.007 A 
ATOM      7  C   UNL     1       0.025  -2.071  -1.207  0.00  0.00    +0.033 A 
ATOM      8  C   UNL     1       0.040  -2.768  -0.013  0.00  0.00    +0.128 A 
ATOM      9  C   UNL     1       0.037  -2.084   1.188  0.00  0.00    +0.061 A 
ATOM     10  C   UNL     1       0.023  -0.702   1.195  0.00  0.00    +0.115 A 
BRANCH   8  11
ATOM     11  N   UNL     1       0.059  -4.248  -0.021  0.00  0.00    +0.056 N 
ATOM     12  O   UNL     1       0.061  -4.847  -1.072  0.00  0.00    -0.126 OA
ATOM     13  O   UNL     1       0.073  -4.859   1.022  0.00  0.00    -0.126 OA
ENDBRANCH   8  11
ENDBRANCH   1  10
BRANCH   1  14
ATOM     14  N   UNL     1       1.449   1.014   2.807  0.00  0.00    -0.097 NA
BRANCH  14  15
ATOM     15  C   UNL     1       1.728   1.802   3.916  0.00  0.00    +0.088 A 
ATOM     16  C   UNL     1       0.818   1.880   4.962  0.00  0.00    +0.047 A 
ATOM     17  C   UNL     1       1.097   2.664   6.064  0.00  0.00    +0.043 A 
ATOM     18  C   UNL     1       2.285   3.377   6.135  0.00  0.00    +0.021 A 
ATOM     19  C   UNL     1       3.199   3.311   5.107  0.00  0.00    +0.016 A 
ATOM     20  C   UNL     1       2.933   2.517   3.988  0.00  0.00    +0.061 A 
ATOM     21 CL   UNL     1      -0.045   2.759   7.368  0.00  0.00    -0.083 Cl
BRANCH  20  22
ATOM     22  C   UNL     1       3.909   2.437   2.887  0.00  0.00    +0.246 C 
ATOM     23  O   UNL     1       3.672   1.750   1.913  0.00  0.00    -0.270 OA
ATOM     24  N   UNL     1       5.066   3.126   2.960  0.00  0.00    -0.314 N 
ATOM     25  C   UNL     1       6.036   3.047   1.866  0.00  0.00    +0.128 C 
ATOM     26  H   UNL     1       5.255   3.675   3.738  0.00  0.00    +0.149 HD
ENDBRANCH  20  22
ENDBRANCH  14  15
ENDBRANCH   1  14
TORSDOF 5
