REMARK  Name = ZINC19219161
REMARK  5 active torsions:
REMARK  status: ('A' for Active; 'I' for Inactive)
REMARK    1  A    between atoms: C_1  and  C_2
REMARK    2  A    between atoms: C_16  and  N_19
REMARK    3  A    between atoms: C_20  and  C_22
REMARK    4  A    between atoms: C_22  and  N_23
REMARK    5  A    between atoms: C_24  and  C_26
REMARK                            x       y       z     vdW  Elec       q    Type
REMARK                         _______ _______ _______ _____ _____    ______ ____
ROOT
ATOM      1  C   UNL     1       2.545   6.210  -1.531  0.00  0.00    +0.044 C 
ATOM      2  C   UNL     1       1.759   5.321  -0.602  0.00  0.00    -0.050 A 
ATOM      3  C   UNL     1       0.972   5.884   0.390  0.00  0.00    +0.007 A 
ATOM      4  C   UNL     1       0.244   5.082   1.248  0.00  0.00    +0.047 A 
ATOM      5  C   UNL     1       0.300   3.704   1.121  0.00  0.00    +0.133 A 
ATOM      6  C   UNL     1       1.099   3.132   0.118  0.00  0.00    +0.079 A 
ATOM      7  C   UNL     1       1.827   3.950  -0.742  0.00  0.00    +0.020 A 
ATOM      8  C   UNL     1       1.151   1.662   0.000  0.00  0.00    +0.248 C 
ATOM      9  O   UNL     1       2.217   1.087  -0.103  0.00  0.00    -0.270 OA
ATOM     10  N   UNL     1      -0.011   0.966   0.007  0.00  0.00    -0.307 N 
ATOM     11  C   UNL     1      -1.286   1.683   0.017  0.00  0.00    +0.152 C 
ATOM     12  C   UNL     1      -1.566   2.263   1.405  0.00  0.00    +0.126 C 
ATOM     13  O   UNL     1      -0.411   2.897   1.946  0.00  0.00    -0.483 OA
ATOM     14  C   UNL     1      -2.703   3.286   1.303  0.00  0.00    +0.051 C 
ATOM     15  C   UNL     1      -2.996   3.861   2.690  0.00  0.00    +0.026 C 
ATOM     16  C   UNL     1      -3.418   2.733   3.633  0.00  0.00    +0.073 C 
ATOM     17  C   UNL     1      -2.291   1.704   3.732  0.00  0.00    +0.026 C 
ATOM     18  C   UNL     1      -2.001   1.130   2.344  0.00  0.00    +0.051 C 
ATOM     19  H   UNL     1       0.001  -0.134   0.006  0.00  0.00    +0.149 HD
ENDROOT
BRANCH  16  20
ATOM     20  N   UNL     1      -3.694   3.284   4.962  0.00  0.00    -0.311 N 
ATOM     21  C   UNL     1      -4.910   3.796   5.240  0.00  0.00    +0.230 C 
ATOM     22  O   UNL     1      -5.775   3.800   4.390  0.00  0.00    -0.274 OA
ATOM     23  H   UNL     1      -2.909   3.281   5.733  0.00  0.00    +0.149 HD
BRANCH  21  24
ATOM     24  C   UNL     1      -5.193   4.363   6.607  0.00  0.00    +0.200 C 
BRANCH  24  25
ATOM     25  N   UNL     1      -6.573   4.852   6.656  0.00  0.00    -0.307 N 
ATOM     26  C   UNL     1      -7.053   5.405   7.788  0.00  0.00    +0.210 C 
ATOM     27  O   UNL     1      -6.341   5.498   8.766  0.00  0.00    -0.276 OA
ATOM     28  C   UNL     1      -8.472   5.909   7.838  0.00  0.00    +0.109 C 
ATOM     29  H   UNL     1      -7.218   4.768   5.769  0.00  0.00    +0.149 HD
ENDBRANCH  24  25
ENDBRANCH  21  24
ENDBRANCH  16  20
TORSDOF 3
