REMARK  Name = ZINC36430624
REMARK  8 active torsions:
REMARK  status: ('A' for Active; 'I' for Inactive)
REMARK    1  A    between atoms: C_3  and  C_6
REMARK    2  A    between atoms: C_6  and  N_7
REMARK    3  A    between atoms: C_8  and  C_10
REMARK    4  A    between atoms: N_14  and  C_15
REMARK    5  A    between atoms: C_15  and  C_16
REMARK    6  A    between atoms: N_18  and  C_19
REMARK    7  A    between atoms: C_19  and  C_20
REMARK    8  A    between atoms: C_19  and  C_27
REMARK                            x       y       z     vdW  Elec       q    Type
REMARK                         _______ _______ _______ _____ _____    ______ ____
ROOT
ATOM      1  C   UNL     1       7.905  -0.859   2.849  0.00  0.00    +0.020 C 
ENDROOT
BRANCH   1   6
ATOM      2  C   UNL     1       5.944   0.555   2.996  0.00  0.00    +0.020 C 
ATOM      3  C   UNL     1       5.612   1.886   3.716  0.00  0.00    -0.008 C 
ATOM      4  C   UNL     1       6.688   1.957   4.824  0.00  0.00    -0.020 C 
ATOM      5  C   UNL     1       7.830   1.047   4.335  0.00  0.00    -0.077 C 
ATOM      6  N   UNL     1       7.429   0.521   3.012  0.00  0.00    +0.393 N 
ATOM      7  H   UNL     1       7.798   1.107   2.278  0.00  0.00    -0.080 HD
BRANCH   2   9
ATOM      8  N   UNL     1       4.101   0.607   1.347  0.00  0.00    -0.310 N 
ATOM      9  C   UNL     1       5.428   0.575   1.580  0.00  0.00    +0.200 C 
ATOM     10  O   UNL     1       6.207   0.561   0.650  0.00  0.00    -0.278 OA
ATOM     11  H   UNL     1       3.478   0.617   2.090  0.00  0.00    +0.149 HD
BRANCH   8  12
ATOM     12  C   UNL     1       3.599   0.625  -0.029  0.00  0.00    +0.178 C 
BRANCH  12  15
ATOM     13  C   UNL     1      -0.016   1.341   0.009  0.00  0.00    +0.041 A 
ATOM     14  C   UNL     1       1.331   1.769  -0.001  0.00  0.00    +0.046 A 
ATOM     15  C   UNL     1       2.092   0.660  -0.014  0.00  0.00    +0.122 A 
ATOM     16  O   UNL     1       1.282  -0.411  -0.012  0.00  0.00    -0.466 OA
ATOM     17  C   UNL     1       0.002  -0.004   0.002  0.00  0.00    +0.195 A 
ENDBRANCH  12  15
ENDBRANCH   8  12
ENDBRANCH   2   9
ENDBRANCH   1   6
BRANCH   1  18
ATOM     18  C   UNL     1       9.409  -0.863   2.745  0.00  0.00    +0.197 C 
ATOM     19  O   UNL     1      10.023   0.182   2.800  0.00  0.00    -0.278 OA
ATOM     20  N   UNL     1      10.070  -2.026   2.590  0.00  0.00    -0.306 N 
ATOM     21  H   UNL     1       9.579  -2.862   2.546  0.00  0.00    +0.150 HD
BRANCH  20  22
ATOM     22  C   UNL     1      11.532  -2.030   2.488  0.00  0.00    +0.140 C 
BRANCH  22  23
ATOM     23  C   UNL     1      11.980  -3.257   1.738  0.00  0.00    -0.022 A 
ATOM     24  C   UNL     1      11.353  -4.469   1.958  0.00  0.00    +0.008 A 
ATOM     25  C   UNL     1      11.763  -5.595   1.270  0.00  0.00    +0.038 A 
ATOM     26  C   UNL     1      12.803  -5.509   0.359  0.00  0.00    +0.123 A 
ATOM     27  C   UNL     1      13.430  -4.295   0.139  0.00  0.00    +0.038 A 
ATOM     28  C   UNL     1      13.015  -3.169   0.825  0.00  0.00    +0.008 A 
ATOM     29  F   UNL     1      13.205  -6.609  -0.314  0.00  0.00    -0.205 F 
ENDBRANCH  22  23
BRANCH  22  30
ATOM     30  C   UNL     1      12.132  -2.039   3.871  0.00  0.00    +0.014 A 
ATOM     31  C   UNL     1      13.210  -1.364   4.338  0.00  0.00    +0.013 A 
ATOM     32  C   UNL     1      13.582  -1.528   5.659  0.00  0.00    +0.008 A 
ATOM     33  C   UNL     1      12.858  -2.359   6.448  0.00  0.00    +0.045 A 
ATOM     34  S   UNL     1      11.601  -2.937   5.320  0.00  0.00    -0.099 S 
ENDBRANCH  22  30
ENDBRANCH  20  22
ENDBRANCH   1  18
TORSDOF 8
