REMARK  Name = ZINC36897863
REMARK  2 active torsions:
REMARK  status: ('A' for Active; 'I' for Inactive)
REMARK    1  A    between atoms: C_6  and  N_7
REMARK    2  A    between atoms: C_15  and  C_16
REMARK                            x       y       z     vdW  Elec       q    Type
REMARK                         _______ _______ _______ _____ _____    ______ ____
ROOT
ATOM      1  N   UNL     1      -1.201  -0.722   0.010  0.00  0.00    -0.295 N 
ATOM      2  C   UNL     1      -1.657  -1.548   1.022  0.00  0.00    +0.074 A 
ATOM      3  C   UNL     1      -1.153  -1.928   2.258  0.00  0.00    +0.031 A 
ATOM      4  C   UNL     1      -1.871  -2.792   3.056  0.00  0.00    +0.040 A 
ATOM      5  C   UNL     1      -3.099  -3.287   2.632  0.00  0.00    +0.126 A 
ATOM      6  C   UNL     1      -3.615  -2.920   1.408  0.00  0.00    +0.068 A 
ATOM      7  C   UNL     1      -2.898  -2.044   0.587  0.00  0.00    +0.092 A 
ATOM      8  N   UNL     1      -3.132  -1.509  -0.639  0.00  0.00    -0.231 NA
ATOM      9  C   UNL     1      -2.143  -0.733  -0.975  0.00  0.00    +0.130 A 
ATOM     10  F   UNL     1      -3.791  -4.133   3.425  0.00  0.00    -0.205 F 
ENDROOT
BRANCH   1  16
ATOM     11  C   UNL     1      -0.017   1.384   0.010  0.00  0.00    +0.028 A 
ATOM     12  C   UNL     1       1.171   2.090   0.002  0.00  0.00    +0.023 A 
ATOM     13  C   UNL     1       2.378   1.416  -0.013  0.00  0.00    +0.059 A 
ATOM     14  C   UNL     1       2.400   0.031  -0.022  0.00  0.00    +0.061 A 
ATOM     15  C   UNL     1       1.215  -0.680  -0.014  0.00  0.00    +0.047 A 
ATOM     16  C   UNL     1       0.002  -0.004   0.002  0.00  0.00    +0.050 A 
ATOM     17 CL   UNL     1       3.917  -0.813  -0.042  0.00  0.00    -0.082 Cl
ATOM     18 CL   UNL     1       3.868   2.306  -0.024  0.00  0.00    -0.082 Cl
ENDBRANCH   1  16
BRANCH   9  19
ATOM     19  C   UNL     1      -2.051   0.039  -2.265  0.00  0.00    +0.183 C 
ATOM     20 CL   UNL     1      -1.233  -0.972  -3.514  0.00  0.00    -0.117 Cl
ENDBRANCH   9  19
TORSDOF 2
