REMARK  Name = ZINC14142061
REMARK  6 active torsions:
REMARK  status: ('A' for Active; 'I' for Inactive)
REMARK    1  A    between atoms: C_1  and  C_2
REMARK    2  A    between atoms: N_5  and  C_11
REMARK    3  A    between atoms: C_7  and  C_10
REMARK    4  A    between atoms: C_11  and  N_12
REMARK    5  A    between atoms: C_15  and  C_19
REMARK    6  A    between atoms: C_15  and  C_20
REMARK                            x       y       z     vdW  Elec       q    Type
REMARK                         _______ _______ _______ _____ _____    ______ ____
ROOT
ATOM      1  N   UNL     1      -2.721  -3.926  -0.477  0.00  0.00    -0.211 N 
ATOM      2  C   UNL     1      -2.818  -4.244  -1.783  0.00  0.00    +0.248 C 
ATOM      3  O   UNL     1      -2.954  -3.481  -2.714  0.00  0.00    -0.273 OA
ATOM      4  C   UNL     1      -2.720  -5.756  -1.845  0.00  0.00    +0.113 C 
ATOM      5  N   UNL     1      -2.565  -6.151  -0.434  0.00  0.00    -0.285 N 
ATOM      6  C   UNL     1      -2.572  -5.014   0.287  0.00  0.00    +0.310 C 
ATOM      7  O   UNL     1      -2.460  -4.981   1.496  0.00  0.00    -0.252 OA
ATOM      8  C   UNL     1      -3.999  -6.354  -2.434  0.00  0.00    +0.042 C 
ATOM      9  H   UNL     1      -2.472  -7.053  -0.092  0.00  0.00    +0.151 HD
ENDROOT
BRANCH   4  10
ATOM     10  C   UNL     1      -1.498  -6.183  -2.661  0.00  0.00    +0.021 C 
ATOM     11  C   UNL     1      -1.557  -5.533  -4.045  0.00  0.00    +0.006 C 
ATOM     12  C   UNL     1      -0.335  -5.960  -4.861  0.00  0.00    +0.000 C 
ATOM     13  C   UNL     1      -0.330  -7.483  -5.012  0.00  0.00    +0.000 C 
ATOM     14  C   UNL     1      -0.271  -8.132  -3.628  0.00  0.00    +0.000 C 
ATOM     15  C   UNL     1      -1.493  -7.705  -2.812  0.00  0.00    +0.006 C 
ENDBRANCH   4  10
BRANCH   1  16
ATOM     16  C   UNL     1      -2.768  -2.557   0.042  0.00  0.00    +0.205 C 
BRANCH  16  20
ATOM     17  C   UNL     1      -0.019   1.526   0.010  0.00  0.00    +0.039 C 
ATOM     18  C   UNL     1       0.002  -0.004   0.002  0.00  0.00    +0.130 C 
ATOM     19  C   UNL     1      -1.434  -0.535   0.015  0.00  0.00    +0.117 C 
ATOM     20  N   UNL     1      -1.407  -2.003   0.085  0.00  0.00    -0.282 NA
ATOM     21  C   UNL     1      -0.692  -2.455   1.287  0.00  0.00    +0.117 C 
ATOM     22  C   UNL     1       0.736  -1.905   1.261  0.00  0.00    +0.130 C 
ATOM     23  O   UNL     1       0.692  -0.479   1.161  0.00  0.00    -0.371 OA
ATOM     24  C   UNL     1       1.461  -2.305   2.548  0.00  0.00    +0.039 C 
ENDBRANCH  16  20
ENDBRANCH   1  16
TORSDOF 3
