REMARK  Name = ZINC39533847
REMARK  10 active torsions:
REMARK  status: ('A' for Active; 'I' for Inactive)
REMARK    1  A    between atoms: C_1  and  C_2
REMARK    2  A    between atoms: C_2  and  O_3
REMARK    3  A    between atoms: O_3  and  C_4
REMARK    4  A    between atoms: N_7  and  C_11
REMARK    5  A    between atoms: C_11  and  C_13
REMARK    6  A    between atoms: C_11  and  C_22
REMARK    7  A    between atoms: C_13  and  N_14
REMARK    8  A    between atoms: N_14  and  C_15
REMARK    9  A    between atoms: C_15  and  C_16
REMARK   10  A    between atoms: C_25  and  C_28
REMARK                            x       y       z     vdW  Elec       q    Type
REMARK                         _______ _______ _______ _____ _____    ______ ____
ROOT
ATOM      1  C   UNL     1      -4.368  -4.209   0.508  0.00  0.00    -0.023 C 
ENDROOT
BRANCH   1   4
ATOM      2  C   UNL     1      -1.358  -2.046   1.105  0.00  0.00    +0.169 C 
ATOM      3  C   UNL     1      -2.834  -2.416   0.941  0.00  0.00    -0.030 C 
ATOM      4  N   UNL     1      -2.950  -3.851   0.647  0.00  0.00    +0.388 N 
ATOM      5  C   UNL     1      -2.244  -4.154  -0.605  0.00  0.00    -0.062 C 
ATOM      6  C   UNL     1      -0.763  -3.799  -0.454  0.00  0.00    +0.065 C 
ATOM      7  N   UNL     1      -0.634  -2.370  -0.133  0.00  0.00    -0.295 NA
ATOM      8  H   UNL     1      -0.955  -1.798  -0.900  0.00  0.00    +0.124 HD
ATOM      9  H   UNL     1      -2.541  -4.383   1.401  0.00  0.00    -0.081 HD
BRANCH   2  10
ATOM     10  O   UNL     1      -1.244  -0.647   1.371  0.00  0.00    -0.364 OA
BRANCH  10  12
ATOM     11  C   UNL     1       0.072   1.273   2.021  0.00  0.00    +0.034 C 
ATOM     12  C   UNL     1       0.067  -0.235   1.762  0.00  0.00    +0.158 C 
ENDBRANCH  10  12
ENDBRANCH   2  10
ENDBRANCH   1   4
BRANCH   1  13
ATOM     13  C   UNL     1      -5.122  -3.759   1.732  0.00  0.00    -0.060 A 
ATOM     14  C   UNL     1      -4.548  -3.894   2.983  0.00  0.00    +0.002 A 
ATOM     15  C   UNL     1      -5.234  -3.484   4.109  0.00  0.00    +0.009 A 
ATOM     16  C   UNL     1      -6.507  -2.933   3.982  0.00  0.00    -0.018 A 
ATOM     17  C   UNL     1      -7.081  -2.800   2.720  0.00  0.00    +0.009 A 
ATOM     18  C   UNL     1      -6.384  -3.208   1.601  0.00  0.00    +0.002 A 
BRANCH  16  19
ATOM     19  C   UNL     1      -7.250  -2.490   5.188  0.00  0.00    -0.018 A 
ATOM     20  C   UNL     1      -6.674  -2.619   6.451  0.00  0.00    +0.008 A 
ATOM     21  C   UNL     1      -7.369  -2.205   7.569  0.00  0.00    +0.001 A 
ATOM     22  C   UNL     1      -8.636  -1.665   7.438  0.00  0.00    +0.000 A 
ATOM     23  C   UNL     1      -9.213  -1.535   6.188  0.00  0.00    +0.001 A 
ATOM     24  C   UNL     1      -8.524  -1.940   5.062  0.00  0.00    +0.008 A 
ENDBRANCH  16  19
ENDBRANCH   1  13
BRANCH   1  25
ATOM     25  C   UNL     1      -4.498  -5.726   0.357  0.00  0.00    +0.070 C 
BRANCH  25  26
ATOM     26  N   UNL     1      -3.909  -6.143  -0.922  0.00  0.00    -0.313 NA
ATOM     27  H   UNL     1      -4.334  -5.652  -1.694  0.00  0.00    +0.122 HD
BRANCH  26  28
ATOM     28  C   UNL     1      -4.016  -7.598  -1.102  0.00  0.00    +0.116 C 
BRANCH  28  29
ATOM     29  C   UNL     1      -3.403  -7.987  -2.422  0.00  0.00    -0.034 A 
ATOM     30  C   UNL     1      -4.181  -8.016  -3.564  0.00  0.00    +0.005 A 
ATOM     31  C   UNL     1      -3.618  -8.374  -4.775  0.00  0.00    +0.000 A 
ATOM     32  C   UNL     1      -2.277  -8.702  -4.844  0.00  0.00    +0.000 A 
ATOM     33  C   UNL     1      -1.499  -8.672  -3.702  0.00  0.00    +0.000 A 
ATOM     34  C   UNL     1      -2.061  -8.310  -2.492  0.00  0.00    +0.005 A 
ENDBRANCH  28  29
ENDBRANCH  26  28
ENDBRANCH  25  26
ENDBRANCH   1  25
TORSDOF 9
