REMARK  Name = ZINC11379959
REMARK  8 active torsions:
REMARK  status: ('A' for Active; 'I' for Inactive)
REMARK    1  A    between atoms: C_1  and  C_2
REMARK    2  A    between atoms: C_2  and  C_28
REMARK    3  A    between atoms: N_5  and  C_9
REMARK    4  A    between atoms: C_9  and  C_10
REMARK    5  A    between atoms: C_13  and  C_23
REMARK    6  A    between atoms: C_16  and  C_18
REMARK    7  A    between atoms: C_31  and  O_34
REMARK    8  A    between atoms: O_34  and  C_35
REMARK                            x       y       z     vdW  Elec       q    Type
REMARK                         _______ _______ _______ _____ _____    ______ ____
ROOT
ATOM      1  C   UNL     1      -0.453   4.761   2.889  0.00  0.00    +0.215 C 
ENDROOT
BRANCH   1   6
ATOM      2  C   UNL     1      -0.541   1.997   6.690  0.00  0.00    +0.047 C 
ATOM      3  C   UNL     1      -1.021   3.396   6.296  0.00  0.00    +0.135 C 
ATOM      4  C   UNL     1      -1.337   3.462   4.816  0.00  0.00    +0.251 C 
ATOM      5  O   UNL     1      -2.175   2.822   4.216  0.00  0.00    -0.272 OA
ATOM      6  N   UNL     1      -0.493   4.379   4.303  0.00  0.00    -0.215 N 
ATOM      7  C   UNL     1       0.300   4.902   5.246  0.00  0.00    +0.310 C 
ATOM      8  O   UNL     1       1.141   5.751   5.027  0.00  0.00    -0.252 OA
ATOM      9  N   UNL     1       0.062   4.381   6.463  0.00  0.00    -0.281 N 
ATOM     10  H   UNL     1       0.515   4.609   7.290  0.00  0.00    +0.152 HD
BRANCH   3  11
ATOM     11  C   UNL     1      -2.227   3.790   7.110  0.00  0.00    -0.015 A 
ATOM     12  C   UNL     1      -3.495   3.471   6.663  0.00  0.00    +0.010 A 
ATOM     13  C   UNL     1      -4.602   3.826   7.410  0.00  0.00    +0.046 A 
ATOM     14  C   UNL     1      -4.440   4.514   8.604  0.00  0.00    +0.120 A 
ATOM     15  C   UNL     1      -3.166   4.838   9.048  0.00  0.00    +0.046 A 
ATOM     16  C   UNL     1      -2.062   4.476   8.300  0.00  0.00    +0.010 A 
BRANCH  14  17
ATOM     17  O   UNL     1      -5.527   4.869   9.338  0.00  0.00    -0.495 OA
ATOM     18  C   UNL     1      -6.807   4.502   8.820  0.00  0.00    +0.277 C 
ENDBRANCH  14  17
ENDBRANCH   3  11
ENDBRANCH   1   6
BRANCH   1  19
ATOM     19  C   UNL     1       0.524   3.877   2.158  0.00  0.00    +0.253 C 
ATOM     20  O   UNL     1       1.126   3.012   2.758  0.00  0.00    -0.272 OA
ATOM     21  N   UNL     1       0.727   4.046   0.836  0.00  0.00    -0.181 N 
ATOM     22  C   UNL     1       1.647   3.256   0.004  0.00  0.00    +0.173 C 
ATOM     23  C   UNL     1       1.487   3.867  -1.402  0.00  0.00    +0.090 C 
ATOM     24  C   UNL     1       0.465   4.965  -1.208  0.00  0.00    +0.075 C 
ATOM     25  N   UNL     1       0.101   4.999   0.030  0.00  0.00    -0.180 NA
BRANCH  24  26
ATOM     26  C   UNL     1      -0.034   5.852  -2.263  0.00  0.00    +0.035 A 
ATOM     27  C   UNL     1      -0.966   6.872  -2.177  0.00  0.00    +0.017 A 
ATOM     28  C   UNL     1      -1.272   7.577  -3.318  0.00  0.00    +0.008 A 
ATOM     29  C   UNL     1      -0.664   7.245  -4.487  0.00  0.00    +0.046 A 
ATOM     30  S   UNL     1       0.395   5.895  -3.996  0.00  0.00    -0.095 S 
ENDBRANCH  24  26
BRANCH  22  31
ATOM     31  C   UNL     1       1.244   1.804  -0.000  0.00  0.00    +0.128 A 
ATOM     32  C   UNL     1       2.084   0.754  -0.014  0.00  0.00    +0.046 A 
ATOM     33  C   UNL     1       1.284  -0.412  -0.012  0.00  0.00    +0.041 A 
ATOM     34  C   UNL     1       0.002  -0.004   0.002  0.00  0.00    +0.195 A 
ATOM     35  O   UNL     1      -0.016   1.339   0.009  0.00  0.00    -0.466 OA
ENDBRANCH  22  31
ENDBRANCH   1  19
TORSDOF 6
