REMARK  Name = ZINC58686595
REMARK  9 active torsions:
REMARK  status: ('A' for Active; 'I' for Inactive)
REMARK    1  A    between atoms: C_1  and  C_2
REMARK    2  A    between atoms: C_7  and  C_8
REMARK    3  A    between atoms: C_8  and  C_10
REMARK    4  A    between atoms: C_8  and  N_26
REMARK    5  A    between atoms: C_10  and  C_11
REMARK    6  A    between atoms: N_13  and  N_14
REMARK    7  A    between atoms: C_15  and  C_17
REMARK    8  A    between atoms: C_17  and  O_18
REMARK    9  A    between atoms: O_18  and  C_19
REMARK                            x       y       z     vdW  Elec       q    Type
REMARK                         _______ _______ _______ _____ _____    ______ ____
ROOT
ATOM      1  C   UNL     1       1.128   1.536   4.147  0.00  0.00    +0.231 C 
ATOM      2  O   UNL     1       0.004   1.711   4.566  0.00  0.00    -0.274 OA
ATOM      3  N   UNL     1       2.170   2.161   4.731  0.00  0.00    -0.234 N 
ATOM      4  H   UNL     1       3.069   2.022   4.396  0.00  0.00    +0.173 HD
ENDROOT
BRANCH   3   5
ATOM      5  N   UNL     1       1.953   3.013   5.822  0.00  0.00    -0.232 N 
ATOM      6  C   UNL     1       2.994   3.638   6.407  0.00  0.00    +0.267 C 
ATOM      7  O   UNL     1       4.119   3.463   5.987  0.00  0.00    -0.271 OA
ATOM      8  H   UNL     1       1.054   3.152   6.158  0.00  0.00    +0.173 HD
BRANCH   6   9
ATOM      9  C   UNL     1       2.761   4.554   7.580  0.00  0.00    +0.326 C 
BRANCH   9  10
ATOM     10  O   UNL     1       4.010   5.092   8.020  0.00  0.00    -0.483 OA
BRANCH  10  11
ATOM     11  C   UNL     1       3.977   5.944   9.079  0.00  0.00    +0.121 A 
ATOM     12  C   UNL     1       2.767   6.250   9.685  0.00  0.00    +0.048 A 
ATOM     13  C   UNL     1       2.735   7.116  10.761  0.00  0.00    +0.042 A 
ATOM     14  C   UNL     1       3.908   7.679  11.233  0.00  0.00    +0.124 A 
ATOM     15  C   UNL     1       5.116   7.374  10.629  0.00  0.00    +0.042 A 
ATOM     16  C   UNL     1       5.152   6.503   9.557  0.00  0.00    +0.048 A 
ATOM     17  F   UNL     1       3.875   8.526  12.286  0.00  0.00    -0.205 F 
ENDBRANCH  10  11
ENDBRANCH   9  10
ENDBRANCH   6   9
ENDBRANCH   3   5
BRANCH   1  18
ATOM     18  C   UNL     1       1.361   0.620   2.973  0.00  0.00    +0.124 C 
BRANCH  18  19
ATOM     19  C   UNL     1       0.024   0.044   2.503  0.00  0.00    +0.114 C 
BRANCH  19  26
ATOM     20  C   UNL     1      -2.230  -0.709   0.860  0.00  0.00    +0.044 C 
ATOM     21  C   UNL     1      -0.838  -1.133   0.469  0.00  0.00    -0.045 A 
ATOM     22  C   UNL     1      -0.639  -1.879  -0.678  0.00  0.00    +0.004 A 
ATOM     23  C   UNL     1       0.638  -2.268  -1.036  0.00  0.00    +0.000 A 
ATOM     24  C   UNL     1       1.716  -1.913  -0.247  0.00  0.00    +0.000 A 
ATOM     25  C   UNL     1       1.517  -1.167   0.900  0.00  0.00    +0.006 A 
ATOM     26  C   UNL     1       0.241  -0.774   1.255  0.00  0.00    -0.024 A 
ENDBRANCH  19  26
BRANCH  19  27
ATOM     27  N   UNL     1      -0.537  -0.808   3.554  0.00  0.00    -0.292 N 
ATOM     28  C   UNL     1       0.102  -1.937   3.920  0.00  0.00    +0.298 C 
ATOM     29  O   UNL     1       1.190  -2.201   3.444  0.00  0.00    -0.253 OA
ATOM     30  N   UNL     1      -0.464  -2.773   4.812  0.00  0.00    -0.313 N 
ATOM     31  H   UNL     1      -1.369  -0.560   3.987  0.00  0.00    +0.151 HD
ATOM     32  H   UNL     1      -1.331  -2.563   5.191  0.00  0.00    +0.146 HD
ATOM     33  H   UNL     1      -0.003  -3.586   5.075  0.00  0.00    +0.146 HD
ENDBRANCH  19  27
ENDBRANCH  18  19
ENDBRANCH   1  18
TORSDOF 8
