REMARK  Name = ZINC01460201
REMARK  5 active torsions:
REMARK  status: ('A' for Active; 'I' for Inactive)
REMARK    1  A    between atoms: C_1  and  C_2
REMARK    2  A    between atoms: C_4  and  C_32
REMARK    3  A    between atoms: C_4  and  C_33
REMARK    4  A    between atoms: C_27  and  N_31
REMARK    5  A    between atoms: C_28  and  C_29
REMARK                            x       y       z     vdW  Elec       q    Type
REMARK                         _______ _______ _______ _____ _____    ______ ____
ROOT
ATOM      1  C   UNL     1      -0.018   1.503   0.010  0.00  0.00    +0.044 C 
ATOM      2  C   UNL     1       0.002  -0.004   0.002  0.00  0.00    -0.043 C 
ATOM      3  C   UNL     1      -0.005  -0.658  -1.148  0.00  0.00    +0.002 C 
ATOM      4  C   UNL     1       0.018  -2.146  -1.328  0.00  0.00    +0.055 C 
ATOM      5  N   UNL     1       0.040  -2.846  -0.038  0.00  0.00    -0.260 N 
ATOM      6  C   UNL     1       0.042  -2.148   1.162  0.00  0.00    +0.049 A 
ATOM      7  C   UNL     1       0.024  -0.744   1.271  0.00  0.00    -0.001 A 
ATOM      8  C   UNL     1       0.029  -0.218   2.552  0.00  0.00    +0.010 A 
ATOM      9  C   UNL     1       0.051  -1.058   3.654  0.00  0.00    +0.001 A 
ATOM     10  C   UNL     1       0.068  -2.448   3.540  0.00  0.00    +0.007 A 
ATOM     11  C   UNL     1       0.063  -2.981   2.268  0.00  0.00    -0.001 A 
ATOM     12  C   UNL     1       0.077  -4.367   1.708  0.00  0.00    +0.148 C 
ATOM     13  C   UNL     1       0.061  -4.170   0.201  0.00  0.00    +0.241 C 
ATOM     14  O   UNL     1       0.065  -5.048  -0.636  0.00  0.00    -0.273 OA
ATOM     15  C   UNL     1      -1.145  -5.132   2.131  0.00  0.00    +0.104 A 
ATOM     16  C   UNL     1      -1.049  -6.125   3.061  0.00  0.00    +0.152 A 
ATOM     17  C   UNL     1      -2.281  -6.837   3.435  0.00  0.00    +0.060 A 
ATOM     18  C   UNL     1      -2.260  -7.862   4.383  0.00  0.00    +0.015 A 
ATOM     19  C   UNL     1      -3.430  -8.509   4.713  0.00  0.00    +0.001 A 
ATOM     20  C   UNL     1      -4.623  -8.146   4.106  0.00  0.00    +0.004 A 
ATOM     21  C   UNL     1      -4.658  -7.136   3.170  0.00  0.00    +0.047 A 
ATOM     22  C   UNL     1      -3.489  -6.468   2.822  0.00  0.00    +0.143 A 
ATOM     23  O   UNL     1      -3.518  -5.478   1.907  0.00  0.00    -0.422 OA
ATOM     24  C   UNL     1      -2.397  -4.831   1.571  0.00  0.00    +0.346 A 
ATOM     25  O   UNL     1      -2.466  -3.939   0.743  0.00  0.00    -0.245 OA
ATOM     26  O   UNL     1       0.129  -6.454   3.623  0.00  0.00    -0.440 OA
ATOM     27  C   UNL     1       1.282  -6.090   3.034  0.00  0.00    +0.199 C 
ATOM     28  C   UNL     1       1.325  -5.098   2.110  0.00  0.00    +0.110 C 
ATOM     29  C   UNL     1       1.262  -2.537  -2.130  0.00  0.00    +0.036 C 
ATOM     30  C   UNL     1      -1.230  -2.569  -2.105  0.00  0.00    +0.036 C 
ENDROOT
BRANCH  27  31
ATOM     31  N   UNL     1       2.443  -6.737   3.377  0.00  0.00    -0.328 N 
ATOM     32  H   UNL     1       2.425  -7.448   4.037  0.00  0.00    +0.145 HD
ATOM     33  H   UNL     1       3.281  -6.484   2.960  0.00  0.00    +0.145 HD
ENDBRANCH  27  31
BRANCH  28  34
ATOM     34  C   UNL     1       2.576  -4.745   1.509  0.00  0.00    +0.102 C 
ATOM     35  N   UNL     1       3.568  -4.464   1.033  0.00  0.00    -0.191 NA
ENDBRANCH  28  34
TORSDOF 2
