REMARK  Name = ZINC09662970
REMARK  6 active torsions:
REMARK  status: ('A' for Active; 'I' for Inactive)
REMARK    1  A    between atoms: C_4  and  O_31
REMARK    2  A    between atoms: C_5  and  N_7
REMARK    3  A    between atoms: N_10  and  C_13
REMARK    4  A    between atoms: C_16  and  S_22
REMARK    5  A    between atoms: C_18  and  N_19
REMARK    6  A    between atoms: S_22  and  N_25
REMARK                            x       y       z     vdW  Elec       q    Type
REMARK                         _______ _______ _______ _____ _____    ______ ____
ROOT
ATOM      1  C   UNL     1       4.603  -1.733  -2.773  0.00  0.00    +0.060 A 
ATOM      2  C   UNL     1       3.894  -2.681  -2.046  0.00  0.00    +0.027 A 
ATOM      3  C   UNL     1       3.448  -2.381  -0.774  0.00  0.00    +0.030 A 
ATOM      4  C   UNL     1       3.697  -1.134  -0.228  0.00  0.00    +0.108 A 
ATOM      5  C   UNL     1       4.402  -0.189  -0.950  0.00  0.00    +0.063 A 
ATOM      6  C   UNL     1       4.856  -0.484  -2.220  0.00  0.00    +0.149 A 
ENDROOT
BRANCH   1  10
ATOM      7  N   UNL     1       5.391  -3.677  -6.360  0.00  0.00    -0.324 N 
ATOM      8  C   UNL     1       6.514  -3.433  -5.446  0.00  0.00    +0.124 C 
ATOM      9  C   UNL     1       5.976  -3.185  -4.035  0.00  0.00    +0.124 C 
ATOM     10  N   UNL     1       5.060  -2.035  -4.058  0.00  0.00    -0.325 N 
ATOM     11  C   UNL     1       3.936  -2.279  -4.973  0.00  0.00    +0.124 C 
ATOM     12  C   UNL     1       4.475  -2.527  -6.384  0.00  0.00    +0.124 C 
BRANCH   7  17
ATOM     13  C   UNL     1       6.056  -3.407  -9.967  0.00  0.00    +0.002 A 
ATOM     14  C   UNL     1       6.754  -4.578 -10.196  0.00  0.00    +0.004 A 
ATOM     15  C   UNL     1       7.003  -5.454  -9.155  0.00  0.00    +0.047 A 
ATOM     16  C   UNL     1       6.552  -5.160  -7.880  0.00  0.00    +0.138 A 
ATOM     17  C   UNL     1       5.849  -3.980  -7.648  0.00  0.00    +0.072 A 
ATOM     18  C   UNL     1       5.598  -3.108  -8.698  0.00  0.00    +0.027 A 
BRANCH  16  19
ATOM     19  O   UNL     1       6.795  -6.021  -6.855  0.00  0.00    -0.505 OA
ATOM     20  H   UNL     1       6.142  -6.729  -6.773  0.00  0.00    +0.292 HD
ENDBRANCH  16  19
ENDBRANCH   7  17
ENDBRANCH   1  10
BRANCH   6  21
ATOM     21  N   UNL     1       5.611   0.529  -2.992  0.00  0.00    +0.058 N 
ATOM     22  O   UNL     1       5.832   1.624  -2.506  0.00  0.00    -0.126 OA
ATOM     23  O   UNL     1       6.010   0.267  -4.112  0.00  0.00    -0.126 OA
ENDBRANCH   6  21
BRANCH   4  24
ATOM     24  S   UNL     1       3.120  -0.753   1.392  0.00  0.00    +0.061 S 
ATOM     25  O   UNL     1       3.957   0.283   1.888  0.00  0.00    -0.153 OA
ATOM     26  O   UNL     1       2.960  -1.992   2.069  0.00  0.00    -0.153 OA
BRANCH  24  27
ATOM     27  N   UNL     1       1.605  -0.102   1.232  0.00  0.00    -0.177 NA
ATOM     28  C   UNL     1       0.415  -0.964   1.252  0.00  0.00    +0.109 C 
ATOM     29  C   UNL     1      -0.417  -0.683  -0.004  0.00  0.00    +0.017 C 
ATOM     30  C   UNL     1      -0.725   0.814  -0.083  0.00  0.00    +0.003 C 
ATOM     31  C   UNL     1       0.584   1.601  -0.185  0.00  0.00    +0.017 C 
ATOM     32  C   UNL     1       1.427   1.347   1.069  0.00  0.00    +0.109 C 
ENDBRANCH  24  27
ENDBRANCH   4  24
TORSDOF 6
