REMARK  Name = ZINC08798882
REMARK  10 active torsions:
REMARK  status: ('A' for Active; 'I' for Inactive)
REMARK    1  A    between atoms: C_1  and  C_2
REMARK    2  A    between atoms: C_5  and  S_7
REMARK    3  A    between atoms: S_7  and  N_10
REMARK    4  A    between atoms: N_10  and  C_11
REMARK    5  A    between atoms: C_11  and  C_12
REMARK    6  A    between atoms: C_12  and  C_14
REMARK    7  A    between atoms: C_12  and  N_53
REMARK    8  A    between atoms: N_23  and  C_24
REMARK    9  A    between atoms: C_25  and  N_53
REMARK   10  A    between atoms: C_26  and  N_53
REMARK                            x       y       z     vdW  Elec       q    Type
REMARK                         _______ _______ _______ _____ _____    ______ ____
ROOT
ATOM      1  C   UNL     1       3.125  -1.903   4.426  0.00  0.00    -0.023 C 
ENDROOT
BRANCH   1   2
ATOM      2  C   UNL     1       2.451  -1.043   3.388  0.00  0.00    -0.059 A 
ATOM      3  C   UNL     1       1.230  -1.423   2.861  0.00  0.00    +0.004 A 
ATOM      4  C   UNL     1       0.617  -0.636   1.909  0.00  0.00    +0.023 A 
ATOM      5  C   UNL     1       1.220   0.544   1.472  0.00  0.00    +0.033 A 
ATOM      6  C   UNL     1       2.439   0.922   2.007  0.00  0.00    -0.026 A 
ATOM      7  C   UNL     1       3.051   0.125   2.962  0.00  0.00    +0.007 A 
ATOM      8  C   UNL     1       3.135   2.193   1.590  0.00  0.00    +0.038 C 
ATOM      9  C   UNL     1       2.518   2.716   0.291  0.00  0.00    +0.024 C 
ATOM     10  C   UNL     1       0.993   2.687   0.448  0.00  0.00    +0.105 C 
ATOM     11  N   UNL     1       0.553   1.291   0.502  0.00  0.00    -0.333 N 
ATOM     12  C   UNL     1      -0.902   1.204   0.679  0.00  0.00    +0.129 C 
ENDBRANCH   1   2
BRANCH   1  15
ATOM     13  C   UNL     1       2.522  -4.090   3.582  0.00  0.00    -0.096 C 
ATOM     14  C   UNL     1       4.313  -2.841   2.537  0.00  0.00    -0.096 C 
ATOM     15  N   UNL     1       3.636  -3.147   3.814  0.00  0.00    +0.381 N 
ATOM     16  H   UNL     1       4.311  -3.581   4.454  0.00  0.00    -0.082 HD
ENDBRANCH   1  15
BRANCH   1  17
ATOM     17  C   UNL     1       2.121  -2.257   5.525  0.00  0.00    +0.095 C 
BRANCH  17  18
ATOM     18  N   UNL     1       2.792  -3.042   6.565  0.00  0.00    -0.191 NA
ATOM     19  H   UNL     1       3.579  -3.565   6.346  0.00  0.00    +0.148 HD
BRANCH  18  20
ATOM     20  S   UNL     1       2.207  -3.035   8.114  0.00  0.00    +0.065 S 
ATOM     21  O   UNL     1       3.045  -3.900   8.868  0.00  0.00    -0.153 OA
ATOM     22  O   UNL     1       2.003  -1.673   8.465  0.00  0.00    -0.153 OA
BRANCH  20  27
ATOM     23  C   UNL     1      -3.478  -4.646   7.819  0.00  0.00    +0.051 C 
ATOM     24  C   UNL     1      -1.983  -4.503   7.935  0.00  0.00    -0.011 A 
ATOM     25  C   UNL     1      -1.048  -5.460   8.152  0.00  0.00    +0.013 A 
ATOM     26  C   UNL     1       0.283  -5.094   8.222  0.00  0.00    +0.036 A 
ATOM     27  C   UNL     1       0.614  -3.788   8.072  0.00  0.00    +0.143 A 
ATOM     28  S   UNL     1      -0.983  -3.028   7.829  0.00  0.00    -0.074 S 
ENDBRANCH  20  27
ENDBRANCH  18  20
ENDBRANCH  17  18
ENDBRANCH   1  17
TORSDOF 6
