REMARK  Name = ZINC28060428
REMARK  2 active torsions:
REMARK  status: ('A' for Active; 'I' for Inactive)
REMARK    1  A    between atoms: C_9  and  C_12
REMARK    2  A    between atoms: C_19  and  C_27
REMARK                            x       y       z     vdW  Elec       q    Type
REMARK                         _______ _______ _______ _____ _____    ______ ____
ROOT
ATOM      1  C   UNL     1       6.081   3.585   0.443  0.00  0.00    +0.001 A 
ATOM      2  C   UNL     1       5.856   3.396  -0.910  0.00  0.00    +0.004 A 
ATOM      3  C   UNL     1       5.367   2.190  -1.379  0.00  0.00    +0.046 A 
ATOM      4  C   UNL     1       5.100   1.165  -0.490  0.00  0.00    +0.131 A 
ATOM      5  C   UNL     1       5.330   1.354   0.879  0.00  0.00    +0.038 A 
ATOM      6  C   UNL     1       5.820   2.569   1.342  0.00  0.00    +0.013 A 
ATOM      7  C   UNL     1       5.041   0.231   1.802  0.00  0.00    +0.050 C 
ATOM      8  C   UNL     1       4.267  -0.765   1.367  0.00  0.00    +0.026 C 
ATOM      9  C   UNL     1       3.711  -0.707  -0.038  0.00  0.00    +0.234 C 
ATOM     10  O   UNL     1       4.617  -0.032  -0.909  0.00  0.00    -0.479 OA
ATOM     11  C   UNL     1       3.920  -1.954   2.230  0.00  0.00    +0.181 C 
ATOM     12  N   UNL     1       4.769  -1.980   3.413  0.00  0.00    -0.201 N 
ATOM     13  C   UNL     1       5.544  -0.937   3.812  0.00  0.00    +0.240 A 
ATOM     14  N   UNL     1       6.154  -1.302   4.902  0.00  0.00    -0.092 NA
ATOM     15  N   UNL     1       5.822  -2.508   5.217  0.00  0.00    -0.021 NA
ATOM     16  N   UNL     1       4.983  -2.984   4.355  0.00  0.00    -0.042 NA
ATOM     17  N   UNL     1       5.590   0.244   3.090  0.00  0.00    -0.282 N 
ATOM     18  H   UNL     1       6.034   1.168   3.489  0.00  0.00    +0.155 HD
ENDROOT
BRANCH   9  19
ATOM     19  C   UNL     1       2.396   0.029  -0.021  0.00  0.00    -0.003 A 
ATOM     20  C   UNL     1       1.211  -0.670  -0.161  0.00  0.00    +0.009 A 
ATOM     21  C   UNL     1       0.005   0.005  -0.146  0.00  0.00    +0.020 A 
ATOM     22  C   UNL     1      -0.017   1.379   0.010  0.00  0.00    +0.041 A 
ATOM     23  C   UNL     1       1.169   2.078   0.150  0.00  0.00    +0.020 A 
ATOM     24  C   UNL     1       2.375   1.403   0.134  0.00  0.00    +0.009 A 
ATOM     25 CL   UNL     1      -1.531   2.228   0.021  0.00  0.00    -0.084 Cl
ENDBRANCH   9  19
BRANCH  11  26
ATOM     26  C   UNL     1       2.477  -1.859   2.652  0.00  0.00    +0.019 A 
ATOM     27  C   UNL     1       1.458  -2.721   2.411  0.00  0.00    +0.013 A 
ATOM     28  C   UNL     1       0.201  -2.429   2.906  0.00  0.00    +0.008 A 
ATOM     29  C   UNL     1       0.021  -1.283   3.608  0.00  0.00    +0.045 A 
ATOM     30  S   UNL     1       1.662  -0.580   3.594  0.00  0.00    -0.099 S 
ENDBRANCH  11  26
TORSDOF 2
