REMARK  Name = ZINC43726455
REMARK  6 active torsions:
REMARK  status: ('A' for Active; 'I' for Inactive)
REMARK    1  A    between atoms: C_1  and  C_2
REMARK    2  A    between atoms: C_2  and  C_3
REMARK    3  A    between atoms: C_3  and  O_4
REMARK    4  A    between atoms: O_4  and  C_5
REMARK    5  A    between atoms: C_11  and  C_28
REMARK    6  A    between atoms: C_26  and  C_27
REMARK                            x       y       z     vdW  Elec       q    Type
REMARK                         _______ _______ _______ _____ _____    ______ ____
ROOT
ATOM      1  C   UNL     1      -2.711  -2.561   0.014  0.00  0.00    +0.124 C 
ATOM      2  C   UNL     1      -3.184  -2.841  -1.434  0.00  0.00    +0.032 C 
ATOM      3  C   UNL     1      -3.304  -4.383  -1.567  0.00  0.00    +0.007 C 
ATOM      4  C   UNL     1      -2.350  -4.896  -0.482  0.00  0.00    +0.001 C 
ATOM      5  C   UNL     1      -2.659  -3.926   0.694  0.00  0.00    -0.003 C 
ATOM      6  C   UNL     1      -1.574  -4.121   1.736  0.00  0.00    +0.010 C 
ATOM      7  C   UNL     1      -1.710  -5.555   2.271  0.00  0.00    +0.005 C 
ATOM      8  C   UNL     1      -1.604  -6.585   1.151  0.00  0.00    +0.002 C 
ATOM      9  C   UNL     1      -2.602  -6.310   0.006  0.00  0.00    -0.003 C 
ATOM     10  C   UNL     1      -2.399  -7.303  -1.138  0.00  0.00    +0.008 C 
ATOM     11  C   UNL     1      -2.679  -8.730  -0.650  0.00  0.00    +0.032 C 
ATOM     12  C   UNL     1      -1.791  -8.986   0.555  0.00  0.00    -0.060 C 
ATOM     13  C   UNL     1      -1.004 -10.059   0.557  0.00  0.00    +0.046 C 
ATOM     14  C   UNL     1      -0.112 -10.287   1.703  0.00  0.00    +0.156 C 
ATOM     15  O   UNL     1       0.279 -11.395   2.003  0.00  0.00    -0.293 OA
ATOM     16  C   UNL     1       0.290  -9.052   2.488  0.00  0.00    +0.080 C 
ATOM     17  C   UNL     1      -0.990  -8.312   2.873  0.00  0.00    +0.019 C 
ATOM     18  C   UNL     1      -1.876  -7.981   1.711  0.00  0.00    -0.007 C 
ATOM     19  C   UNL     1      -3.318  -7.969   2.223  0.00  0.00    +0.016 C 
ATOM     20  C   UNL     1      -4.026  -4.259   1.295  0.00  0.00    +0.014 C 
ENDROOT
BRANCH   1  21
ATOM     21  O   UNL     1      -1.414  -1.962   0.005  0.00  0.00    -0.376 OA
BRANCH  21  22
ATOM     22  C   UNL     1      -1.433  -0.534   0.013  0.00  0.00    +0.160 C 
BRANCH  22  24
ATOM     23  C   UNL     1      -0.019   1.526   0.010  0.00  0.00    +0.006 C 
ATOM     24  C   UNL     1       0.002  -0.004   0.002  0.00  0.00    +0.025 C 
ENDBRANCH  22  24
ENDBRANCH  21  22
ENDBRANCH   1  21
TORSDOF 3
