REMARK  Name = ZINC12148971
REMARK  8 active torsions:
REMARK  status: ('A' for Active; 'I' for Inactive)
REMARK    1  A    between atoms: C_1  and  O_2
REMARK    2  A    between atoms: O_2  and  C_3
REMARK    3  A    between atoms: C_6  and  C_9
REMARK    4  A    between atoms: C_10  and  C_11
REMARK    5  A    between atoms: C_11  and  N_67
REMARK    6  A    between atoms: C_14  and  C_17
REMARK    7  A    between atoms: C_14  and  O_34
REMARK    8  A    between atoms: C_24  and  C_26
REMARK                            x       y       z     vdW  Elec       q    Type
REMARK                         _______ _______ _______ _____ _____    ______ ____
ROOT
ATOM      1  C   UNL     1       1.454  -1.963  -0.654  0.00  0.00    -0.075 C 
ATOM      2  C   UNL     1       1.406  -0.435  -0.574  0.00  0.00    +0.021 C 
ATOM      3  C   UNL     1       0.017   0.003  -0.101  0.00  0.00    +0.088 C 
ATOM      4  C   UNL     1      -0.281  -0.644   1.254  0.00  0.00    +0.021 C 
ATOM      5  C   UNL     1      -0.182  -2.165   1.121  0.00  0.00    -0.075 C 
ATOM      6  N   UNL     1       1.185  -2.523   0.687  0.00  0.00    +0.382 N 
ATOM      7  H   UNL     1       1.860  -2.129   1.354  0.00  0.00    -0.081 HD
ENDROOT
BRANCH   3   8
ATOM      8  C   UNL     1      -0.018   1.503   0.037  0.00  0.00    -0.015 A 
ATOM      9  C   UNL     1       1.142   2.192   0.363  0.00  0.00    +0.010 A 
ATOM     10  C   UNL     1       1.133   3.564   0.495  0.00  0.00    +0.047 A 
ATOM     11  C   UNL     1      -0.049   4.270   0.300  0.00  0.00    +0.136 A 
ATOM     12  C   UNL     1      -1.222   3.566  -0.030  0.00  0.00    +0.021 A 
ATOM     13  C   UNL     1      -1.190   2.176  -0.164  0.00  0.00    +0.018 A 
ATOM     14  C   UNL     1      -2.268   4.579  -0.164  0.00  0.00    +0.063 A 
ATOM     15  C   UNL     1      -1.670   5.773   0.086  0.00  0.00    +0.191 A 
ATOM     16  O   UNL     1      -0.362   5.579   0.359  0.00  0.00    -0.450 OA
BRANCH  15  17
ATOM     17  C   UNL     1      -2.345   7.078   0.064  0.00  0.00    +0.282 C 
ATOM     18  O   UNL     1      -3.555   7.135  -0.045  0.00  0.00    -0.267 OA
ATOM     19  N   UNL     1      -1.623   8.212   0.165  0.00  0.00    -0.293 N 
ATOM     20  C   UNL     1      -0.161   8.141   0.155  0.00  0.00    +0.119 C 
ATOM     21  C   UNL     1       0.370   8.829  -1.113  0.00  0.00    +0.088 C 
ATOM     22  S   UNL     1      -0.237  10.542  -1.142  0.00  0.00    -0.158 S 
ATOM     23  C   UNL     1      -2.035  10.347  -0.957  0.00  0.00    +0.088 C 
ATOM     24  C   UNL     1      -2.310   9.498   0.289  0.00  0.00    +0.119 C 
ENDBRANCH  15  17
ENDBRANCH   3   8
BRANCH   3  25
ATOM     25  O   UNL     1      -0.964  -0.412  -1.054  0.00  0.00    -0.384 OA
ATOM     26  H   UNL     1      -1.870  -0.169  -0.817  0.00  0.00    +0.211 HD
ENDBRANCH   3  25
BRANCH   6  27
ATOM     27  C   UNL     1       1.338  -3.992   0.661  0.00  0.00    -0.051 C 
BRANCH  27  29
ATOM     28  C   UNL     1      -0.116  -5.524   1.913  0.00  0.00    +0.002 C 
ATOM     29  C   UNL     1       0.802  -4.567   1.946  0.00  0.00    -0.045 C 
BRANCH  28  33
ATOM     30  C   UNL     1      -1.627  -7.145   5.537  0.00  0.00    +0.120 A 
ATOM     31  C   UNL     1      -2.095  -7.619   4.319  0.00  0.00    +0.046 A 
ATOM     32  C   UNL     1      -1.607  -7.095   3.140  0.00  0.00    +0.011 A 
ATOM     33  C   UNL     1      -0.641  -6.088   3.174  0.00  0.00    -0.025 A 
ATOM     34  C   UNL     1      -0.169  -5.619   4.401  0.00  0.00    +0.011 A 
ATOM     35  C   UNL     1      -0.666  -6.144   5.574  0.00  0.00    +0.046 A 
BRANCH  30  37
ATOM     36  C   UNL     1      -1.585  -7.131   7.914  0.00  0.00    +0.277 C 
ATOM     37  O   UNL     1      -2.110  -7.664   6.696  0.00  0.00    -0.495 OA
ENDBRANCH  30  37
ENDBRANCH  28  33
ENDBRANCH  27  29
ENDBRANCH   6  27
TORSDOF 7
