REMARK  Name = ZINC23016029
REMARK  5 active torsions:
REMARK  status: ('A' for Active; 'I' for Inactive)
REMARK    1  A    between atoms: C_1  and  C_2
REMARK    2  A    between atoms: N_10  and  C_11
REMARK    3  A    between atoms: N_10  and  C_12
REMARK    4  A    between atoms: C_12  and  C_14
REMARK    5  A    between atoms: C_12  and  C_15
REMARK                            x       y       z     vdW  Elec       q    Type
REMARK                         _______ _______ _______ _____ _____    ______ ____
ROOT
ATOM      1  C   UNL     1       2.500   1.546  -0.013  0.00  0.00    +0.089 C 
ATOM      2  C   UNL     1       1.041   1.923   0.002  0.00  0.00    +0.136 A 
ATOM      3  C   UNL     1      -0.013   1.076   0.008  0.00  0.00    +0.091 A 
ATOM      4  C   UNL     1      -1.143   1.935   0.017  0.00  0.00    +0.169 A 
ATOM      5  N   UNL     1      -0.674   3.155   0.025  0.00  0.00    -0.063 NA
ATOM      6  O   UNL     1       0.535   3.165   0.014  0.00  0.00    -0.358 OA
ATOM      7  N   UNL     1      -2.485   1.554   0.020  0.00  0.00    -0.251 N 
ATOM      8  C   UNL     1      -2.814   0.247   0.014  0.00  0.00    +0.308 C 
ATOM      9  O   UNL     1      -1.942  -0.600   0.005  0.00  0.00    -0.252 OA
ATOM     10  N   UNL     1      -4.111  -0.121   0.016  0.00  0.00    -0.279 N 
ATOM     11  C   UNL     1      -5.162   0.899   0.026  0.00  0.00    +0.134 C 
ATOM     12  H   UNL     1      -3.274   2.320   0.027  0.00  0.00    +0.158 HD
ENDROOT
BRANCH  10  13
ATOM     13  C   UNL     1      -4.468  -1.542   0.009  0.00  0.00    +0.140 C 
ATOM     14  C   UNL     1      -5.297  -1.853  -1.239  0.00  0.00    +0.036 C 
BRANCH  13  15
ATOM     15  C   UNL     1      -5.276  -1.863   1.241  0.00  0.00    +0.126 A 
ATOM     16  C   UNL     1      -5.154  -2.982   1.968  0.00  0.00    +0.055 A 
ATOM     17  C   UNL     1      -6.125  -2.866   3.062  0.00  0.00    +0.020 A 
ATOM     18  C   UNL     1      -6.484  -3.678   4.137  0.00  0.00    +0.011 A 
ATOM     19  C   UNL     1      -7.462  -3.268   5.000  0.00  0.00    +0.001 A 
ATOM     20  C   UNL     1      -8.099  -2.050   4.812  0.00  0.00    +0.004 A 
ATOM     21  C   UNL     1      -7.758  -1.234   3.754  0.00  0.00    +0.047 A 
ATOM     22  C   UNL     1      -6.767  -1.632   2.866  0.00  0.00    +0.135 A 
ATOM     23  O   UNL     1      -6.226  -1.070   1.767  0.00  0.00    -0.458 OA
ENDBRANCH  13  15
ENDBRANCH  10  13
TORSDOF 2
