REMARK  Name = ZINC01428326
REMARK  5 active torsions:
REMARK  status: ('A' for Active; 'I' for Inactive)
REMARK    1  A    between atoms: C_1  and  N_2
REMARK    2  A    between atoms: C_3  and  C_26
REMARK    3  A    between atoms: C_6  and  S_7
REMARK    4  A    between atoms: S_7  and  C_8
REMARK    5  A    between atoms: C_8  and  C_9
REMARK                            x       y       z     vdW  Elec       q    Type
REMARK                         _______ _______ _______ _____ _____    ______ ____
ROOT
ATOM      1  C   UNL     1       1.944   3.589   0.196  0.00  0.00    +0.146 A 
ATOM      2  N   UNL     1       1.668   4.386  -0.821  0.00  0.00    -0.199 NA
ATOM      3  C   UNL     1       1.576   5.701  -0.633  0.00  0.00    +0.217 A 
ATOM      4  N   UNL     1       1.771   6.212   0.578  0.00  0.00    -0.181 NA
ATOM      5  C   UNL     1       2.053   5.408   1.597  0.00  0.00    +0.227 A 
ATOM      6  N   UNL     1       2.138   4.094   1.402  0.00  0.00    -0.198 NA
ATOM      7  N   UNL     1       2.257   5.934   2.858  0.00  0.00    -0.269 N 
ATOM      8  C   UNL     1       2.426   5.049   4.019  0.00  0.00    +0.114 C 
ATOM      9  C   UNL     1       1.573   5.610   5.164  0.00  0.00    +0.024 C 
ATOM     10  C   UNL     1       2.105   6.991   5.546  0.00  0.00    +0.038 C 
ATOM     11  C   UNL     1       2.233   7.864   4.325  0.00  0.00    -0.026 A 
ATOM     12  C   UNL     1       2.312   7.321   3.050  0.00  0.00    +0.040 A 
ATOM     13  C   UNL     1       2.440   8.153   1.944  0.00  0.00    +0.024 A 
ATOM     14  C   UNL     1       2.492   9.523   2.112  0.00  0.00    +0.002 A 
ATOM     15  C   UNL     1       2.416  10.065   3.382  0.00  0.00    +0.000 A 
ATOM     16  C   UNL     1       2.279   9.238   4.485  0.00  0.00    +0.005 A 
ATOM     17  N   UNL     1       1.283   6.532  -1.695  0.00  0.00    -0.327 N 
ATOM     18  H   UNL     1       1.219   7.490  -1.557  0.00  0.00    +0.145 HD
ATOM     19  H   UNL     1       1.141   6.158  -2.578  0.00  0.00    +0.145 HD
ENDROOT
BRANCH   1  20
ATOM     20  C   UNL     1       2.042   2.101  -0.020  0.00  0.00    +0.153 C 
BRANCH  20  21
ATOM     21  S   UNL     1       0.416   1.346   0.228  0.00  0.00    -0.078 S 
BRANCH  21  27
ATOM     22  C   UNL     1      -1.481  -1.360   0.291  0.00  0.00    +0.153 C 
ATOM     23  N   UNL     1      -0.051  -1.400  -0.028  0.00  0.00    -0.305 N 
ATOM     24  C   UNL     1       0.700  -2.509  -0.340  0.00  0.00    +0.165 A 
ATOM     25  N   UNL     1       1.929  -2.095  -0.548  0.00  0.00    -0.128 NA
ATOM     26  N   UNL     1       1.995  -0.821  -0.394  0.00  0.00    -0.122 NA
ATOM     27  C   UNL     1       0.812  -0.343  -0.079  0.00  0.00    +0.192 A 
BRANCH  24  28
ATOM     28  C   UNL     1       0.217  -3.904  -0.421  0.00  0.00    +0.019 A 
ATOM     29  C   UNL     1       1.119  -4.964  -0.327  0.00  0.00    +0.011 A 
ATOM     30  C   UNL     1       0.661  -6.264  -0.396  0.00  0.00    +0.001 A 
ATOM     31  C   UNL     1      -0.688  -6.516  -0.571  0.00  0.00    +0.000 A 
ATOM     32  C   UNL     1      -1.587  -5.469  -0.671  0.00  0.00    +0.001 A 
ATOM     33  C   UNL     1      -1.142  -4.165  -0.597  0.00  0.00    +0.011 A 
ENDBRANCH  24  28
ENDBRANCH  21  27
ENDBRANCH  20  21
ENDBRANCH   1  20
TORSDOF 4
