REMARK  Name = ZINC35548184
REMARK  7 active torsions:
REMARK  status: ('A' for Active; 'I' for Inactive)
REMARK    1  A    between atoms: C_4  and  C_7
REMARK    2  A    between atoms: N_9  and  C_24
REMARK    3  A    between atoms: N_12  and  C_13
REMARK    4  A    between atoms: C_13  and  C_15
REMARK    5  A    between atoms: C_15  and  N_16
REMARK    6  A    between atoms: N_16  and  C_17
REMARK    7  A    between atoms: C_17  and  C_18
REMARK                            x       y       z     vdW  Elec       q    Type
REMARK                         _______ _______ _______ _____ _____    ______ ____
ROOT
ATOM      1  C   UNL     1       3.696  -0.685  -0.037  0.00  0.00    +0.066 A 
ATOM      2  C   UNL     1       3.859  -2.020  -0.051  0.00  0.00    +0.120 A 
ATOM      3  N   UNL     1       5.213  -2.286  -0.064  0.00  0.00    -0.287 N 
ATOM      4  C   UNL     1       5.878  -1.099  -0.058  0.00  0.00    +0.205 A 
ATOM      5  N   UNL     1       4.957  -0.101  -0.047  0.00  0.00    -0.326 N 
ATOM      6  N   UNL     1       7.202  -0.943  -0.066  0.00  0.00    -0.148 NA
ATOM      7  H   UNL     1       5.146   0.850  -0.044  0.00  0.00    +0.169 HD
ENDROOT
BRANCH   3   8
ATOM      8  C   UNL     1       5.801  -3.557  -0.080  0.00  0.00    +0.051 A 
ATOM      9  C   UNL     1       7.185  -3.683  -0.086  0.00  0.00    +0.026 A 
ATOM     10  C   UNL     1       7.762  -4.938  -0.102  0.00  0.00    +0.003 A 
ATOM     11  C   UNL     1       6.965  -6.068  -0.113  0.00  0.00    +0.020 A 
ATOM     12  C   UNL     1       5.587  -5.945  -0.108  0.00  0.00    +0.043 A 
ATOM     13  C   UNL     1       5.003  -4.692  -0.085  0.00  0.00    +0.046 A 
ATOM     14 CL   UNL     1       4.590  -7.367  -0.122  0.00  0.00    -0.083 Cl
ENDBRANCH   3   8
BRANCH   1  18
ATOM     15  C   UNL     1      -0.017   1.379   0.010  0.00  0.00    +0.000 A 
ATOM     16  C   UNL     1       1.168   2.093   0.002  0.00  0.00    +0.001 A 
ATOM     17  C   UNL     1       2.377   1.429  -0.013  0.00  0.00    +0.010 A 
ATOM     18  C   UNL     1       2.403   0.034  -0.021  0.00  0.00    -0.000 A 
ATOM     19  C   UNL     1       1.204  -0.680  -0.013  0.00  0.00    +0.010 A 
ATOM     20  C   UNL     1       0.002  -0.004   0.002  0.00  0.00    +0.001 A 
ENDBRANCH   1  18
BRANCH   6  21
ATOM     21  C   UNL     1       7.726   0.277  -0.058  0.00  0.00    +0.222 C 
ATOM     22  O   UNL     1       6.999   1.252  -0.043  0.00  0.00    -0.276 OA
BRANCH  21  23
ATOM     23  C   UNL     1       9.223   0.454  -0.067  0.00  0.00    +0.017 C 
BRANCH  23  24
ATOM     24  N   UNL     1       9.547   1.887  -0.056  0.00  0.00    +0.386 N 
ATOM     25  H   UNL     1       9.151   2.328  -0.873  0.00  0.00    -0.085 HD
ATOM     26  H   UNL     1       9.163   2.312   0.775  0.00  0.00    -0.085 HD
BRANCH  24  27
ATOM     27  C   UNL     1      11.006   2.059  -0.065  0.00  0.00    -0.050 C 
BRANCH  27  28
ATOM     28  C   UNL     1      11.343   3.551  -0.053  0.00  0.00    +0.101 C 
ATOM     29  C   UNL     1      12.879   3.756  -0.097  0.00  0.00    +0.032 C 
ATOM     30  C   UNL     1      12.969   5.178  -0.715  0.00  0.00    +0.030 C 
ATOM     31  C   UNL     1      11.764   5.193  -1.681  0.00  0.00    +0.160 C 
ATOM     32  O   UNL     1      10.844   4.185  -1.241  0.00  0.00    -0.378 OA
ENDBRANCH  27  28
ENDBRANCH  24  27
ENDBRANCH  23  24
ENDBRANCH  21  23
ENDBRANCH   6  21
TORSDOF 7
