REMARK  Name = ZINC50051568
REMARK  7 active torsions:
REMARK  status: ('A' for Active; 'I' for Inactive)
REMARK    1  A    between atoms: C_1  and  C_2
REMARK    2  A    between atoms: N_4  and  C_5
REMARK    3  A    between atoms: C_8  and  N_11
REMARK    4  A    between atoms: N_14  and  C_15
REMARK    5  A    between atoms: C_15  and  C_16
REMARK    6  A    between atoms: N_21  and  C_23
REMARK    7  A    between atoms: C_23  and  C_24
REMARK                            x       y       z     vdW  Elec       q    Type
REMARK                         _______ _______ _______ _____ _____    ______ ____
ROOT
ATOM      1  N   UNL     1      -0.710  -6.245   0.176  0.00  0.00    -0.269 N 
ATOM      2  C   UNL     1      -1.810  -7.013   0.051  0.00  0.00    +0.304 C 
ATOM      3  O   UNL     1      -2.909  -6.496  -0.008  0.00  0.00    -0.253 OA
ATOM      4  N   UNL     1      -1.691  -8.354  -0.011  0.00  0.00    -0.299 N 
ATOM      5  H   UNL     1       0.160  -6.658   0.291  0.00  0.00    +0.156 HD
ATOM      6  H   UNL     1      -0.815  -8.766   0.036  0.00  0.00    +0.150 HD
ENDROOT
BRANCH   1  10
ATOM      7  C   UNL     1      -1.047  -2.089   0.076  0.00  0.00    +0.033 A 
ATOM      8  C   UNL     1       0.068  -2.709  -0.474  0.00  0.00    +0.025 A 
ATOM      9  C   UNL     1       0.179  -4.084  -0.440  0.00  0.00    +0.025 A 
ATOM     10  C   UNL     1      -0.823  -4.848   0.143  0.00  0.00    +0.035 A 
ATOM     11  C   UNL     1      -1.938  -4.229   0.692  0.00  0.00    +0.025 A 
ATOM     12  C   UNL     1      -2.046  -2.853   0.664  0.00  0.00    +0.025 A 
BRANCH   7  16
ATOM     13  C   UNL     1      -1.766   1.468   1.081  0.00  0.00    +0.109 C 
ATOM     14  C   UNL     1      -1.737  -0.039   1.069  0.00  0.00    +0.214 C 
ATOM     15  O   UNL     1      -2.232  -0.662   1.984  0.00  0.00    -0.276 OA
ATOM     16  N   UNL     1      -1.160  -0.693   0.042  0.00  0.00    -0.286 N 
ATOM     17  H   UNL     1      -0.824  -0.198  -0.722  0.00  0.00    +0.155 HD
ENDBRANCH   7  16
ENDBRANCH   1  10
BRANCH   4  18
ATOM     18  C   UNL     1      -2.887  -9.190  -0.147  0.00  0.00    +0.107 C 
BRANCH  18  19
ATOM     19  C   UNL     1      -2.477 -10.663  -0.193  0.00  0.00    -0.011 C 
ATOM     20  C   UNL     1      -1.655 -10.926  -1.458  0.00  0.00    +0.001 C 
ATOM     21  C   UNL     1      -1.317 -12.418  -1.533  0.00  0.00    -0.018 C 
ATOM     22  C   UNL     1      -2.612 -13.231  -1.504  0.00  0.00    -0.078 C 
ATOM     23  N   UNL     1      -3.340 -12.956  -0.260  0.00  0.00    +0.383 N 
ATOM     24  C   UNL     1      -3.730 -11.541  -0.212  0.00  0.00    -0.073 C 
ATOM     25  H   UNL     1      -2.747 -13.165   0.529  0.00  0.00    -0.081 HD
BRANCH  23  26
ATOM     26  C   UNL     1      -4.543 -13.796  -0.201  0.00  0.00    -0.036 C 
BRANCH  26  27
ATOM     27  C   UNL     1      -4.140 -15.246  -0.115  0.00  0.00    -0.027 A 
ATOM     28  C   UNL     1      -3.910 -16.004   0.985  0.00  0.00    +0.009 A 
ATOM     29  C   UNL     1      -3.546 -17.328   0.823  0.00  0.00    +0.008 A 
ATOM     30  C   UNL     1      -3.430 -17.828  -0.431  0.00  0.00    +0.045 A 
ATOM     31  S   UNL     1      -3.848 -16.412  -1.435  0.00  0.00    -0.103 S 
ENDBRANCH  26  27
ENDBRANCH  23  26
ENDBRANCH  18  19
ENDBRANCH   4  18
TORSDOF 6
