REMARK  Name = ZINC40284409
REMARK  5 active torsions:
REMARK  status: ('A' for Active; 'I' for Inactive)
REMARK    1  A    between atoms: C_1  and  O_2
REMARK    2  A    between atoms: O_2  and  C_3
REMARK    3  A    between atoms: C_6  and  C_10
REMARK    4  A    between atoms: C_8  and  O_9
REMARK    5  A    between atoms: N_20  and  C_21
REMARK                            x       y       z     vdW  Elec       q    Type
REMARK                         _______ _______ _______ _____ _____    ______ ____
ROOT
ATOM      1  C   UNL     1      -4.987  -2.627   0.035  0.00  0.00    +0.080 C 
ATOM      2  C   UNL     1      -5.792  -2.216  -1.201  0.00  0.00    +0.110 C 
ATOM      3  C   UNL     1      -6.361  -0.835  -1.052  0.00  0.00    +0.219 C 
ATOM      4  O   UNL     1      -6.420  -0.115  -2.027  0.00  0.00    -0.275 OA
ATOM      5  N   UNL     1      -6.810  -0.367   0.134  0.00  0.00    -0.270 N 
ATOM      6  C   UNL     1      -6.610  -1.157   1.267  0.00  0.00    +0.133 A 
ATOM      7  C   UNL     1      -5.762  -2.225   1.264  0.00  0.00    +0.089 A 
ATOM      8  N   UNL     1      -5.779  -2.772   2.478  0.00  0.00    -0.238 NA
ATOM      9  C   UNL     1      -6.601  -2.099   3.244  0.00  0.00    +0.205 A 
ATOM     10  N   UNL     1      -7.143  -1.076   2.515  0.00  0.00    -0.284 N 
ATOM     11  H   UNL     1      -7.258   0.491   0.196  0.00  0.00    +0.156 HD
ENDROOT
BRANCH  10  12
ATOM     12  C   UNL     1      -8.070  -0.125   2.968  0.00  0.00    +0.087 A 
ATOM     13  C   UNL     1      -7.709   0.782   3.954  0.00  0.00    +0.067 A 
ATOM     14  C   UNL     1      -8.625   1.719   4.398  0.00  0.00    +0.126 A 
ATOM     15  C   UNL     1      -9.901   1.752   3.861  0.00  0.00    +0.041 A 
ATOM     16  C   UNL     1     -10.263   0.848   2.879  0.00  0.00    +0.043 A 
ATOM     17  C   UNL     1      -9.350  -0.087   2.426  0.00  0.00    +0.147 A 
ATOM     18  F   UNL     1      -9.702  -0.965   1.463  0.00  0.00    -0.203 F 
ATOM     19  F   UNL     1      -8.274   2.603   5.358  0.00  0.00    -0.205 F 
ENDBRANCH  10  12
BRANCH   1  23
ATOM     20  C   UNL     1      -1.201  -0.638   0.010  0.00  0.00    +0.161 A 
ATOM     21  C   UNL     1      -2.374   0.099   0.019  0.00  0.00    +0.049 A 
ATOM     22  C   UNL     1      -3.596  -0.546   0.027  0.00  0.00    +0.008 A 
ATOM     23  C   UNL     1      -3.652  -1.928   0.026  0.00  0.00    -0.034 A 
ATOM     24  C   UNL     1      -2.485  -2.669   0.017  0.00  0.00    +0.053 A 
ATOM     25  C   UNL     1      -1.257  -2.028   0.003  0.00  0.00    +0.159 A 
BRANCH  20  27
ATOM     26  C   UNL     1      -0.017   1.425   0.010  0.00  0.00    +0.277 C 
ATOM     27  O   UNL     1       0.002  -0.004   0.002  0.00  0.00    -0.491 OA
ENDBRANCH  20  27
BRANCH  25  28
ATOM     28  O   UNL     1      -0.108  -2.756  -0.012  0.00  0.00    -0.503 OA
ATOM     29  H   UNL     1       0.232  -2.972   0.867  0.00  0.00    +0.292 HD
ENDBRANCH  25  28
ENDBRANCH   1  23
TORSDOF 4
