REMARK  Name = ZINC10001358
REMARK  13 active torsions:
REMARK  status: ('A' for Active; 'I' for Inactive)
REMARK    1  A    between atoms: C_1  and  C_2
REMARK    2  A    between atoms: C_2  and  C_3
REMARK    3  A    between atoms: C_2  and  C_4
REMARK    4  A    between atoms: C_4  and  C_6
REMARK    5  A    between atoms: C_4  and  N_31
REMARK    6  A    between atoms: N_8  and  N_9
REMARK    7  A    between atoms: C_10  and  C_11
REMARK    8  A    between atoms: C_14  and  O_19
REMARK    9  A    between atoms: C_15  and  O_17
REMARK   10  A    between atoms: O_17  and  C_18
REMARK   11  A    between atoms: O_19  and  C_20
REMARK   12  A    between atoms: C_20  and  C_21
REMARK   13  A    between atoms: C_32  and  C_34
REMARK                            x       y       z     vdW  Elec       q    Type
REMARK                         _______ _______ _______ _____ _____    ______ ____
ROOT
ATOM      1  N   UNL     1      -1.107   3.603  -0.120  0.00  0.00    -0.188 NA
ATOM      2  C   UNL     1      -0.968   2.335  -0.355  0.00  0.00    +0.138 C 
ENDROOT
BRANCH   2   3
ATOM      3  C   UNL     1       0.371   1.720  -0.311  0.00  0.00    -0.002 A 
ATOM      4  C   UNL     1       1.492   2.502  -0.022  0.00  0.00    +0.013 A 
ATOM      5  C   UNL     1       2.745   1.926   0.012  0.00  0.00    +0.050 A 
ATOM      6  C   UNL     1       2.895   0.570  -0.239  0.00  0.00    +0.162 A 
ATOM      7  C   UNL     1       1.782  -0.217  -0.528  0.00  0.00    +0.162 A 
ATOM      8  C   UNL     1       0.523   0.354  -0.565  0.00  0.00    +0.059 A 
BRANCH   7   9
ATOM      9  O   UNL     1       1.933  -1.546  -0.774  0.00  0.00    -0.491 OA
ATOM     10  C   UNL     1       0.749  -2.291  -1.064  0.00  0.00    +0.277 C 
ENDBRANCH   7   9
BRANCH   6  11
ATOM     11  O   UNL     1       4.132   0.007  -0.204  0.00  0.00    -0.484 OA
BRANCH  11  12
ATOM     12  C   UNL     1       5.229   0.871   0.098  0.00  0.00    +0.265 C 
BRANCH  12  13
ATOM     13  C   UNL     1       6.510   0.077   0.092  0.00  0.00    -0.003 A 
ATOM     14  C   UNL     1       6.486  -1.259  -0.171  0.00  0.00    +0.007 A 
ATOM     15  C   UNL     1       7.661  -2.008  -0.188  0.00  0.00    +0.001 A 
ATOM     16  C   UNL     1       8.865  -1.429   0.071  0.00  0.00    +0.008 A 
ATOM     17  C   UNL     1       8.929  -0.054   0.353  0.00  0.00    -0.018 A 
ATOM     18  C   UNL     1       7.735   0.710   0.363  0.00  0.00    -0.011 A 
ATOM     19  C   UNL     1       7.799   2.085   0.646  0.00  0.00    +0.009 A 
ATOM     20  C   UNL     1       9.003   2.664   0.905  0.00  0.00    +0.001 A 
ATOM     21  C   UNL     1      10.178   1.913   0.895  0.00  0.00    +0.001 A 
ATOM     22  C   UNL     1      10.154   0.579   0.626  0.00  0.00    +0.008 A 
ENDBRANCH  12  13
ENDBRANCH  11  12
ENDBRANCH   6  11
ENDBRANCH   2   3
BRANCH   1  25
ATOM     23  C   UNL     1      -2.524   5.505   0.083  0.00  0.00    +0.253 C 
ATOM     24  O   UNL     1      -1.568   6.167   0.428  0.00  0.00    -0.272 OA
ATOM     25  N   UNL     1      -2.380   4.188  -0.161  0.00  0.00    -0.205 N 
ATOM     26  H   UNL     1      -3.156   3.644  -0.366  0.00  0.00    +0.177 HD
BRANCH  23  27
ATOM     27  C   UNL     1      -3.874   6.157  -0.072  0.00  0.00    +0.163 C 
BRANCH  27  28
ATOM     28  N   UNL     1      -3.703   7.601  -0.250  0.00  0.00    -0.300 N 
ATOM     29  C   UNL     1      -4.647   8.318  -0.891  0.00  0.00    +0.245 C 
ATOM     30  O   UNL     1      -5.642   7.766  -1.320  0.00  0.00    -0.270 OA
ATOM     31  H   UNL     1      -2.909   8.040   0.093  0.00  0.00    +0.150 HD
BRANCH  29  32
ATOM     32  C   UNL     1      -4.473   9.775  -1.071  0.00  0.00    +0.037 A 
ATOM     33  C   UNL     1      -3.336  10.412  -0.574  0.00  0.00    +0.013 A 
ATOM     34  C   UNL     1      -3.177  11.771  -0.750  0.00  0.00    +0.001 A 
ATOM     35  C   UNL     1      -4.149  12.504  -1.408  0.00  0.00    +0.000 A 
ATOM     36  C   UNL     1      -5.282  11.880  -1.898  0.00  0.00    +0.001 A 
ATOM     37  C   UNL     1      -5.450  10.520  -1.734  0.00  0.00    +0.013 A 
ENDBRANCH  29  32
ENDBRANCH  27  28
BRANCH  27  39
ATOM     38  C   UNL     1      -4.076   6.597   2.379  0.00  0.00    +0.009 C 
ATOM     39  C   UNL     1      -4.714   5.894   1.180  0.00  0.00    +0.012 C 
ATOM     40  C   UNL     1      -6.130   6.433   0.967  0.00  0.00    +0.009 C 
ENDBRANCH  27  39
ENDBRANCH  23  27
ENDBRANCH   1  25
TORSDOF 10
