REMARK  Name = ZINC41077707
REMARK  4 active torsions:
REMARK  status: ('A' for Active; 'I' for Inactive)
REMARK    1  A    between atoms: C_1  and  C_2
REMARK    2  A    between atoms: C_5  and  C_7
REMARK    3  A    between atoms: C_17  and  S_19
REMARK    4  A    between atoms: S_19  and  C_22
REMARK                            x       y       z     vdW  Elec       q    Type
REMARK                         _______ _______ _______ _____ _____    ______ ____
ROOT
ATOM      1  C   UNL     1       1.627  -3.168  -0.023  0.00  0.00    +0.062 C 
ATOM      2  C   UNL     1       2.992  -2.963  -0.133  0.00  0.00    +0.084 C 
ATOM      3  C   UNL     1       3.946  -4.097  -0.263  0.00  0.00    +0.153 C 
ATOM      4  N   UNL     1       3.657  -5.212  -0.884  0.00  0.00    -0.283 NA
ATOM      5  N   UNL     1       5.195  -3.852   0.347  0.00  0.00    -0.150 N 
ATOM      6  C   UNL     1       5.569  -2.538   0.526  0.00  0.00    +0.182 C 
ATOM      7  N   UNL     1       4.857  -1.466   0.281  0.00  0.00    -0.152 NA
ATOM      8  C   UNL     1       3.579  -1.603  -0.132  0.00  0.00    +0.273 C 
ATOM      9  O   UNL     1       2.925  -0.637  -0.490  0.00  0.00    -0.268 OA
ATOM     10  S   UNL     1       7.209  -2.703   1.177  0.00  0.00    -0.015 S 
ATOM     11  C   UNL     1       7.249  -4.488   1.262  0.00  0.00    +0.235 C 
ATOM     12  N   UNL     1       6.086  -4.813   0.774  0.00  0.00    -0.145 NA
ATOM     13  H   UNL     1       4.316  -5.921  -0.940  0.00  0.00    +0.188 HD
ENDROOT
BRANCH   1  18
ATOM     14  C   UNL     1       0.117   1.317   1.437  0.00  0.00    +0.086 C 
ATOM     15  C   UNL     1       0.094  -0.117   0.975  0.00  0.00    +0.103 A 
ATOM     16  C   UNL     1      -1.020  -0.851   0.748  0.00  0.00    +0.045 A 
ATOM     17  C   UNL     1      -0.604  -2.122   0.334  0.00  0.00    +0.049 A 
ATOM     18  C   UNL     1       0.781  -2.100   0.329  0.00  0.00    +0.129 A 
ATOM     19  O   UNL     1       1.173  -0.868   0.717  0.00  0.00    -0.461 OA
ENDBRANCH   1  18
BRANCH  11  20
ATOM     20  S   UNL     1       8.533  -5.539   1.855  0.00  0.00    +0.019 S 
ATOM     21  O   UNL     1       9.175  -4.786   2.875  0.00  0.00    -0.168 OA
ATOM     22  O   UNL     1       7.885  -6.766   2.160  0.00  0.00    -0.168 OA
ATOM     23  C   UNL     1       9.649  -5.755   0.442  0.00  0.00    +0.202 C 
ENDBRANCH  11  20
TORSDOF 2
