REMARK  Name = ZINC63187834
REMARK  5 active torsions:
REMARK  status: ('A' for Active; 'I' for Inactive)
REMARK    1  A    between atoms: C_1  and  C_2
REMARK    2  A    between atoms: C_14  and  C_16
REMARK    3  A    between atoms: C_16  and  N_17
REMARK    4  A    between atoms: C_20  and  C_25
REMARK    5  A    between atoms: C_25  and  C_26
REMARK                            x       y       z     vdW  Elec       q    Type
REMARK                         _______ _______ _______ _____ _____    ______ ____
ROOT
ATOM      1  N   UNL     1      -2.268  -4.204   4.046  0.00  0.00    -0.216 N 
ATOM      2  C   UNL     1      -2.520  -3.389   5.090  0.00  0.00    +0.244 C 
ATOM      3  O   UNL     1      -1.952  -2.354   5.364  0.00  0.00    -0.273 OA
ATOM      4  C   UNL     1      -3.662  -4.036   5.848  0.00  0.00    +0.165 C 
ATOM      5  N   UNL     1      -3.948  -5.254   5.071  0.00  0.00    -0.287 N 
ATOM      6  C   UNL     1      -3.087  -5.262   4.037  0.00  0.00    +0.310 C 
ATOM      7  O   UNL     1      -3.054  -6.134   3.192  0.00  0.00    -0.252 OA
ATOM      8  H   UNL     1      -4.627  -5.920   5.265  0.00  0.00    +0.151 HD
ENDROOT
BRANCH   1   9
ATOM      9  C   UNL     1      -1.229  -3.958   3.042  0.00  0.00    +0.214 C 
BRANCH   9  22
ATOM     10  C   UNL     1      -0.019   1.526   0.010  0.00  0.00    +0.019 C 
ATOM     11  C   UNL     1       0.002  -0.004   0.002  0.00  0.00    +0.050 C 
ATOM     12  C   UNL     1      -1.426  -0.528   0.007  0.00  0.00    +0.033 C 
ATOM     13  C   UNL     1      -1.573  -2.005  -0.245  0.00  0.00    +0.115 C 
ATOM     14  N   UNL     1      -1.028  -2.798   0.868  0.00  0.00    -0.269 N 
ATOM     15  C   UNL     1       0.319  -3.182   0.816  0.00  0.00    +0.050 A 
ATOM     16  C   UNL     1       0.648  -4.508   0.560  0.00  0.00    +0.024 A 
ATOM     17  C   UNL     1       1.977  -4.878   0.462  0.00  0.00    +0.002 A 
ATOM     18  C   UNL     1       2.984  -3.941   0.612  0.00  0.00    +0.001 A 
ATOM     19  C   UNL     1       2.666  -2.621   0.886  0.00  0.00    +0.016 A 
ATOM     20  C   UNL     1       1.338  -2.259   1.007  0.00  0.00    +0.030 A 
ATOM     21  S   UNL     1       0.888  -0.603   1.472  0.00  0.00    -0.120 S 
ATOM     22  C   UNL     1      -1.806  -3.146   1.912  0.00  0.00    +0.238 C 
ATOM     23  O   UNL     1      -2.970  -2.806   1.941  0.00  0.00    -0.274 OA
ENDBRANCH   9  22
ENDBRANCH   1   9
BRANCH   4  24
ATOM     24  C   UNL     1      -3.230  -4.391   7.272  0.00  0.00    +0.065 C 
BRANCH  24  25
ATOM     25  C   UNL     1      -4.415  -4.917   8.040  0.00  0.00    -0.039 C 
ATOM     26  C   UNL     1      -4.761  -6.213   8.214  0.00  0.00    -0.001 A 
ATOM     27  C   UNL     1      -4.160  -7.473   7.757  0.00  0.00    +0.010 A 
ATOM     28  C   UNL     1      -4.749  -8.642   8.098  0.00  0.00    +0.001 A 
ATOM     29  C   UNL     1      -5.915  -8.681   8.874  0.00  0.00    +0.002 A 
ATOM     30  C   UNL     1      -6.525  -7.567   9.331  0.00  0.00    +0.026 A 
ATOM     31  C   UNL     1      -5.992  -6.282   9.033  0.00  0.00    +0.043 A 
ATOM     32  N   UNL     1      -6.392  -5.075   9.353  0.00  0.00    -0.380 N 
ATOM     33  C   UNL     1      -5.455  -4.104   8.778  0.00  0.00    +0.144 C 
ATOM     34  H   UNL     1      -7.174  -4.861   9.885  0.00  0.00    +0.160 HD
ENDBRANCH  24  25
ENDBRANCH   4  24
TORSDOF 4
