REMARK  Name = ZINC23543822
REMARK  5 active torsions:
REMARK  status: ('A' for Active; 'I' for Inactive)
REMARK    1  A    between atoms: C_1  and  C_2
REMARK    2  A    between atoms: C_2  and  C_4
REMARK    3  A    between atoms: C_2  and  N_11
REMARK    4  A    between atoms: C_12  and  C_14
REMARK    5  A    between atoms: C_14  and  N_15
REMARK                            x       y       z     vdW  Elec       q    Type
REMARK                         _______ _______ _______ _____ _____    ______ ____
ROOT
ATOM      1  C   UNL     1       5.661   2.851  -1.787  0.00  0.00    +0.213 C 
ENDROOT
BRANCH   1   2
ATOM      2  N   UNL     1       6.704   3.719  -2.340  0.00  0.00    -0.215 N 
ATOM      3  C   UNL     1       7.780   4.145  -1.648  0.00  0.00    +0.247 C 
ATOM      4  O   UNL     1       8.059   3.893  -0.495  0.00  0.00    -0.273 OA
ATOM      5  C   UNL     1       8.567   5.003  -2.613  0.00  0.00    +0.113 C 
ATOM      6  C   UNL     1       9.953   4.411  -2.842  0.00  0.00    +0.035 C 
ATOM      7  C   UNL     1      10.722   5.277  -3.843  0.00  0.00    +0.003 C 
ATOM      8  C   UNL     1      10.841   6.701  -3.296  0.00  0.00    +0.000 C 
ATOM      9  C   UNL     1       9.444   7.290  -3.094  0.00  0.00    +0.003 C 
ATOM     10  C   UNL     1       8.669   6.432  -2.091  0.00  0.00    +0.035 C 
ATOM     11  N   UNL     1       7.777   4.962  -3.850  0.00  0.00    -0.285 N 
ATOM     12  C   UNL     1       6.710   4.182  -3.596  0.00  0.00    +0.310 C 
ATOM     13  O   UNL     1       5.846   3.930  -4.413  0.00  0.00    -0.252 OA
ATOM     14  H   UNL     1       8.118   5.514  -4.739  0.00  0.00    +0.151 HD
ENDBRANCH   1   2
BRANCH   1  16
ATOM     15  N   UNL     1       3.507   3.112  -0.599  0.00  0.00    -0.307 N 
ATOM     16  C   UNL     1       4.576   3.698  -1.172  0.00  0.00    +0.231 C 
ATOM     17  O   UNL     1       4.666   4.907  -1.193  0.00  0.00    -0.274 OA
ATOM     18  H   UNL     1       3.426   2.015  -0.579  0.00  0.00    +0.149 HD
BRANCH  15  20
ATOM     19  C   UNL     1       2.841   4.296   1.435  0.00  0.00    +0.033 C 
ATOM     20  C   UNL     1       2.453   3.935  -0.001  0.00  0.00    +0.103 C 
BRANCH  20  21
ATOM     21  C   UNL     1       1.158   3.165   0.007  0.00  0.00    +0.008 A 
ATOM     22  C   UNL     1       1.175   1.783   0.000  0.00  0.00    +0.008 A 
ATOM     23  C   UNL     1      -0.013   1.076   0.008  0.00  0.00    +0.000 A 
ATOM     24  C   UNL     1      -1.220   1.750   0.017  0.00  0.00    +0.003 A 
ATOM     25  C   UNL     1      -1.240   3.132   0.031  0.00  0.00    +0.039 A 
ATOM     26  C   UNL     1      -0.050   3.841   0.023  0.00  0.00    +0.128 A 
ATOM     27  F   UNL     1      -0.068   5.192   0.029  0.00  0.00    -0.205 F 
ENDBRANCH  20  21
ENDBRANCH  15  20
ENDBRANCH   1  16
TORSDOF 4
