REMARK  Name = ZINC40174953
REMARK  10 active torsions:
REMARK  status: ('A' for Active; 'I' for Inactive)
REMARK    1  A    between atoms: C_1  and  C_2
REMARK    2  A    between atoms: C_2  and  C_3
REMARK    3  A    between atoms: C_3  and  C_5
REMARK    4  A    between atoms: C_3  and  N_21
REMARK    5  A    between atoms: N_7  and  C_8
REMARK    6  A    between atoms: C_9  and  C_19
REMARK    7  A    between atoms: N_12  and  C_13
REMARK    8  A    between atoms: C_25  and  C_38
REMARK    9  A    between atoms: N_28  and  C_32
REMARK   10  A    between atoms: C_30  and  C_31
REMARK                            x       y       z     vdW  Elec       q    Type
REMARK                         _______ _______ _______ _____ _____    ______ ____
ROOT
ATOM      1  C   UNL     1      -0.769  -0.596   0.833  0.00  0.00    +0.178 C 
ENDROOT
BRANCH   1   2
ATOM      2  N   UNL     1      -1.401  -0.897   2.119  0.00  0.00    -0.281 N 
ATOM      3  C   UNL     1      -0.751  -1.658   3.020  0.00  0.00    +0.254 A 
ATOM      4  O   UNL     1       0.359  -2.088   2.756  0.00  0.00    -0.268 OA
ATOM      5  C   UNL     1      -1.336  -1.962   4.263  0.00  0.00    +0.074 A 
ATOM      6  C   UNL     1      -2.573  -1.487   4.566  0.00  0.00    -0.033 A 
ATOM      7  C   UNL     1      -3.255  -0.688   3.620  0.00  0.00    +0.043 A 
ATOM      8  C   UNL     1      -2.645  -0.399   2.397  0.00  0.00    +0.148 A 
ATOM      9  N   UNL     1      -3.512   0.381   1.699  0.00  0.00    -0.215 N 
ATOM     10  N   UNL     1      -4.654   0.581   2.484  0.00  0.00    -0.169 NA
ATOM     11  C   UNL     1      -4.518  -0.051   3.616  0.00  0.00    +0.070 A 
ATOM     12  C   UNL     1      -5.526  -0.084   4.735  0.00  0.00    +0.068 C 
ATOM     13  C   UNL     1      -3.209  -1.807   5.894  0.00  0.00    +0.045 C 
BRANCH   9  14
ATOM     14  C   UNL     1      -3.300   0.896   0.413  0.00  0.00    +0.068 A 
ATOM     15  C   UNL     1      -3.049   0.036  -0.648  0.00  0.00    +0.028 A 
ATOM     16  C   UNL     1      -2.841   0.547  -1.914  0.00  0.00    +0.002 A 
ATOM     17  C   UNL     1      -2.881   1.913  -2.126  0.00  0.00    +0.000 A 
ATOM     18  C   UNL     1      -3.131   2.772  -1.071  0.00  0.00    +0.002 A 
ATOM     19  C   UNL     1      -3.346   2.267   0.197  0.00  0.00    +0.028 A 
ENDBRANCH   9  14
ENDBRANCH   1   2
BRANCH   1  20
ATOM     20  C   UNL     1      -0.651  -1.861   0.022  0.00  0.00    +0.241 C 
ATOM     21  O   UNL     1      -1.077  -2.906   0.464  0.00  0.00    -0.273 OA
ATOM     22  N   UNL     1      -0.072  -1.830  -1.195  0.00  0.00    -0.268 N 
ATOM     23  H   UNL     1       0.346  -1.014  -1.512  0.00  0.00    +0.156 HD
BRANCH  22  24
ATOM     24  C   UNL     1      -0.073  -2.964  -1.992  0.00  0.00    +0.146 A 
ATOM     25  C   UNL     1      -1.038  -3.966  -2.002  0.00  0.00    +0.111 A 
ATOM     26  C   UNL     1      -0.634  -4.920  -2.964  0.00  0.00    +0.155 A 
ATOM     27  N   UNL     1       0.489  -4.519  -3.491  0.00  0.00    -0.172 NA
ATOM     28  N   UNL     1       0.860  -3.301  -2.910  0.00  0.00    -0.217 N 
BRANCH  28  29
ATOM     29  C   UNL     1       2.006  -2.559  -3.225  0.00  0.00    +0.067 A 
ATOM     30  C   UNL     1       1.923  -1.181  -3.375  0.00  0.00    +0.028 A 
ATOM     31  C   UNL     1       3.055  -0.452  -3.684  0.00  0.00    +0.002 A 
ATOM     32  C   UNL     1       4.269  -1.093  -3.845  0.00  0.00    +0.000 A 
ATOM     33  C   UNL     1       4.356  -2.465  -3.695  0.00  0.00    +0.002 A 
ATOM     34  C   UNL     1       3.228  -3.199  -3.381  0.00  0.00    +0.028 A 
ENDBRANCH  28  29
BRANCH  25  35
ATOM     35  C   UNL     1      -2.216  -4.021  -1.190  0.00  0.00    +0.104 C 
ATOM     36  N   UNL     1      -3.151  -4.065  -0.546  0.00  0.00    -0.191 NA
ENDBRANCH  25  35
ENDBRANCH  22  24
ENDBRANCH   1  20
BRANCH   1  38
ATOM     37  C   UNL     1       0.502   1.303   1.845  0.00  0.00    +0.006 C 
ATOM     38  C   UNL     1       0.625  -0.013   1.074  0.00  0.00    +0.031 C 
ENDBRANCH   1  38
TORSDOF 7
