REMARK  Name = ZINC12715089
REMARK  8 active torsions:
REMARK  status: ('A' for Active; 'I' for Inactive)
REMARK    1  A    between atoms: C_1  and  C_2
REMARK    2  A    between atoms: C_5  and  C_7
REMARK    3  A    between atoms: C_7  and  N_53
REMARK    4  A    between atoms: C_13  and  C_15
REMARK    5  A    between atoms: C_15  and  C_16
REMARK    6  A    between atoms: N_18  and  C_19
REMARK    7  A    between atoms: N_18  and  C_20
REMARK    8  A    between atoms: C_20  and  C_21
REMARK                            x       y       z     vdW  Elec       q    Type
REMARK                         _______ _______ _______ _____ _____    ______ ____
ROOT
ATOM      1  C   UNL     1       7.705   3.307  -4.009  0.00  0.00    -0.058 C 
ATOM      2  C   UNL     1       7.813   4.125  -5.297  0.00  0.00    +0.085 C 
ATOM      3  N   UNL     1       6.561   4.050  -6.044  0.00  0.00    -0.318 N 
ATOM      4  C   UNL     1       5.406   3.667  -5.490  0.00  0.00    +0.200 C 
ATOM      5  O   UNL     1       4.406   3.662  -6.176  0.00  0.00    -0.278 OA
ATOM      6  C   UNL     1       5.295   3.244  -4.053  0.00  0.00    +0.029 C 
ATOM      7  H   UNL     1       6.567   4.287  -6.985  0.00  0.00    +0.149 HD
ATOM      8  N   UNL     1       6.474   3.721  -3.307  0.00  0.00    +0.393 N 
ATOM      9  H   UNL     1       6.446   4.746  -3.254  0.00  0.00    -0.080 HD
ENDROOT
BRANCH   8  10
ATOM     10  C   UNL     1       6.462   3.168  -1.933  0.00  0.00    -0.002 C 
BRANCH  10  15
ATOM     11  C   UNL     1      11.207   3.076  -0.225  0.00  0.00    +0.086 C 
ATOM     12  C   UNL     1       9.794   3.532  -0.485  0.00  0.00    +0.102 A 
ATOM     13  C   UNL     1       9.239   4.671  -0.032  0.00  0.00    +0.044 A 
ATOM     14  C   UNL     1       7.911   4.699  -0.515  0.00  0.00    +0.043 A 
ATOM     15  C   UNL     1       7.731   3.572  -1.228  0.00  0.00    +0.089 A 
ATOM     16  O   UNL     1       8.876   2.871  -1.208  0.00  0.00    -0.467 OA
ENDBRANCH  10  15
ENDBRANCH   8  10
BRANCH   6  17
ATOM     17  C   UNL     1       4.035   3.857  -3.438  0.00  0.00    +0.090 C 
BRANCH  17  18
ATOM     18  C   UNL     1       4.143   5.360  -3.466  0.00  0.00    +0.215 C 
ATOM     19  O   UNL     1       5.171   5.887  -3.836  0.00  0.00    -0.276 OA
ATOM     20  N   UNL     1       3.098   6.118  -3.079  0.00  0.00    -0.298 N 
ATOM     21  C   UNL     1       1.857   5.481  -2.632  0.00  0.00    +0.132 C 
BRANCH  20  22
ATOM     22  C   UNL     1       3.204   7.579  -3.107  0.00  0.00    +0.170 C 
BRANCH  22  23
ATOM     23  C   UNL     1       3.726   8.070  -1.781  0.00  0.00    +0.097 A 
ATOM     24  N   UNL     1       4.964   8.257  -1.419  0.00  0.00    -0.242 NA
ATOM     25  C   UNL     1       5.301   8.704  -0.191  0.00  0.00    +0.079 A 
ATOM     26  C   UNL     1       6.583   8.955   0.344  0.00  0.00    +0.029 A 
ATOM     27  C   UNL     1       6.727   9.408   1.619  0.00  0.00    +0.002 A 
ATOM     28  C   UNL     1       5.630   9.641   2.437  0.00  0.00    +0.001 A 
ATOM     29  C   UNL     1       4.358   9.408   1.950  0.00  0.00    +0.017 A 
ATOM     30  C   UNL     1       4.202   8.950   0.664  0.00  0.00    +0.039 A 
ATOM     31  S   UNL     1       2.824   8.521  -0.368  0.00  0.00    -0.071 S 
ENDBRANCH  22  23
ENDBRANCH  20  22
ENDBRANCH  17  18
ENDBRANCH   6  17
TORSDOF 6
