REMARK  Name = ZINC43528792
REMARK  12 active torsions:
REMARK  status: ('A' for Active; 'I' for Inactive)
REMARK    1  A    between atoms: C_1  and  C_2
REMARK    2  A    between atoms: C_2  and  C_4
REMARK    3  A    between atoms: C_2  and  N_7
REMARK    4  A    between atoms: C_4  and  C_5
REMARK    5  A    between atoms: C_4  and  C_6
REMARK    6  A    between atoms: N_10  and  C_11
REMARK    7  A    between atoms: C_14  and  S_17
REMARK    8  A    between atoms: S_17  and  N_20
REMARK    9  A    between atoms: N_20  and  C_21
REMARK   10  A    between atoms: N_20  and  C_22
REMARK   11  A    between atoms: C_22  and  C_23
REMARK   12  A    between atoms: C_22  and  C_24
REMARK                            x       y       z     vdW  Elec       q    Type
REMARK                         _______ _______ _______ _____ _____    ______ ____
ROOT
ATOM      1  C   UNL     1      -3.960  -1.168   2.420  0.00  0.00    +0.035 A 
ATOM      2  C   UNL     1      -3.324  -0.727   3.573  0.00  0.00    +0.025 A 
ATOM      3  C   UNL     1      -3.985  -0.774   4.785  0.00  0.00    +0.030 A 
ATOM      4  C   UNL     1      -5.279  -1.258   4.851  0.00  0.00    +0.106 A 
ATOM      5  C   UNL     1      -5.914  -1.698   3.704  0.00  0.00    +0.030 A 
ATOM      6  C   UNL     1      -5.261  -1.649   2.488  0.00  0.00    +0.025 A 
ENDROOT
BRANCH   1  10
ATOM      7  N   UNL     1      -3.321  -0.707  -1.107  0.00  0.00    -0.296 N 
ATOM      8  C   UNL     1      -3.977  -0.844   0.063  0.00  0.00    +0.304 C 
ATOM      9  O   UNL     1      -5.186  -0.716   0.101  0.00  0.00    -0.253 OA
ATOM     10  N   UNL     1      -3.293  -1.122   1.190  0.00  0.00    -0.269 N 
ATOM     11  H   UNL     1      -2.357  -0.809  -1.137  0.00  0.00    +0.151 HD
ATOM     12  H   UNL     1      -2.339  -1.290   1.150  0.00  0.00    +0.156 HD
BRANCH   7  14
ATOM     13  C   UNL     1      -4.588  -1.706  -2.946  0.00  0.00    +0.028 C 
ATOM     14  C   UNL     1      -4.065  -0.405  -2.333  0.00  0.00    +0.074 C 
BRANCH  14  15
ATOM     15  C   UNL     1      -3.140   0.294  -3.331  0.00  0.00    +0.003 C 
ATOM     16  C   UNL     1      -3.917   0.609  -4.611  0.00  0.00    +0.009 C 
ATOM     17  C   UNL     1      -2.617   1.594  -2.718  0.00  0.00    +0.009 C 
ENDBRANCH  14  15
ENDBRANCH   7  14
ENDBRANCH   1  10
BRANCH   4  18
ATOM     18  S   UNL     1      -6.118  -1.316   6.399  0.00  0.00    +0.061 S 
ATOM     19  O   UNL     1      -7.119  -2.317   6.280  0.00  0.00    -0.153 OA
ATOM     20  O   UNL     1      -5.115  -1.357   7.404  0.00  0.00    -0.153 OA
BRANCH  18  21
ATOM     21  N   UNL     1      -6.911   0.127   6.580  0.00  0.00    -0.177 NA
ATOM     22  C   UNL     1      -8.283   0.276   6.087  0.00  0.00    +0.132 C 
BRANCH  21  23
ATOM     23  C   UNL     1      -6.240   1.254   7.232  0.00  0.00    +0.073 C 
ATOM     24  C   UNL     1      -6.158   2.431   6.258  0.00  0.00    +0.025 C 
ATOM     25  C   UNL     1      -7.034   1.672   8.471  0.00  0.00    +0.025 C 
ENDBRANCH  21  23
ENDBRANCH  18  21
ENDBRANCH   4  18
TORSDOF 6
