REMARK  Name = ZINC39544455
REMARK  8 active torsions:
REMARK  status: ('A' for Active; 'I' for Inactive)
REMARK    1  A    between atoms: C_1  and  C_2
REMARK    2  A    between atoms: C_2  and  C_3
REMARK    3  A    between atoms: C_3  and  N_4
REMARK    4  A    between atoms: N_4  and  O_31
REMARK    5  A    between atoms: C_5  and  C_7
REMARK    6  A    between atoms: C_10  and  S_21
REMARK    7  A    between atoms: S_21  and  O_24
REMARK    8  A    between atoms: O_24  and  C_25
REMARK                            x       y       z     vdW  Elec       q    Type
REMARK                         _______ _______ _______ _____ _____    ______ ____
ROOT
ATOM      1  C   UNL     1       1.400  -4.472   0.497  0.00  0.00    +0.152 C 
ATOM      2  C   UNL     1       2.025  -5.073   1.771  0.00  0.00    +0.092 C 
ATOM      3  C   UNL     1       3.399  -5.523   1.331  0.00  0.00    +0.142 C 
ATOM      4  C   UNL     1       3.558  -5.256   0.059  0.00  0.00    +0.100 C 
ATOM      5  N   UNL     1       4.720  -5.495  -0.697  0.00  0.00    -0.302 N 
ATOM      6  C   UNL     1       5.007  -4.516  -1.664  0.00  0.00    +0.037 A 
ATOM      7  C   UNL     1       6.188  -4.588  -2.389  0.00  0.00    +0.023 A 
ATOM      8  C   UNL     1       6.465  -3.632  -3.346  0.00  0.00    +0.002 A 
ATOM      9  C   UNL     1       5.565  -2.608  -3.577  0.00  0.00    +0.000 A 
ATOM     10  C   UNL     1       4.391  -2.534  -2.852  0.00  0.00    +0.007 A 
ATOM     11  C   UNL     1       4.106  -3.485  -1.887  0.00  0.00    -0.010 A 
ATOM     12  C   UNL     1       2.830  -3.363  -1.095  0.00  0.00    +0.124 C 
ATOM     13  N   UNL     1       2.433  -4.659  -0.534  0.00  0.00    -0.368 NA
ATOM     14  H   UNL     1       5.279  -6.276  -0.562  0.00  0.00    +0.153 HD
ATOM     15  H   UNL     1       2.078  -5.254  -1.267  0.00  0.00    +0.129 HD
ENDROOT
BRANCH   1  17
ATOM     16  N   UNL     1       0.181  -2.396  -0.070  0.00  0.00    -0.182 N 
ATOM     17  C   UNL     1       1.108  -3.007   0.693  0.00  0.00    +0.257 C 
ATOM     18  O   UNL     1       1.709  -2.376   1.538  0.00  0.00    -0.272 OA
BRANCH  16  19
ATOM     19  O   UNL     1      -0.520  -3.132  -1.057  0.00  0.00    -0.292 OA
ATOM     20  H   UNL     1      -0.265  -4.063  -1.108  0.00  0.00    +0.242 HD
ENDBRANCH  16  19
BRANCH  16  21
ATOM     21  C   UNL     1      -0.103  -0.972   0.120  0.00  0.00    +0.139 C 
BRANCH  21  23
ATOM     22  C   UNL     1       0.739   1.347  -0.279  0.00  0.00    +0.005 C 
ATOM     23  C   UNL     1       1.035  -0.141  -0.478  0.00  0.00    +0.018 C 
ENDBRANCH  21  23
ENDBRANCH  16  21
ENDBRANCH   1  17
BRANCH   3  24
ATOM     24  S   UNL     1       4.601  -6.287   2.368  0.00  0.00    +0.150 S 
ATOM     25  O   UNL     1       3.892  -7.158   3.238  0.00  0.00    -0.132 OA
ATOM     26  O   UNL     1       5.642  -6.745   1.515  0.00  0.00    -0.132 OA
BRANCH  24  27
ATOM     27  O   UNL     1       5.202  -5.195   3.241  0.00  0.00    -0.342 OA
BRANCH  27  28
ATOM     28  C   UNL     1       6.067  -4.377   2.585  0.00  0.00    +0.157 A 
ATOM     29  C   UNL     1       7.425  -4.661   2.580  0.00  0.00    +0.048 A 
ATOM     30  C   UNL     1       8.301  -3.827   1.912  0.00  0.00    +0.004 A 
ATOM     31  C   UNL     1       7.826  -2.711   1.249  0.00  0.00    +0.000 A 
ATOM     32  C   UNL     1       6.473  -2.425   1.253  0.00  0.00    +0.004 A 
ATOM     33  C   UNL     1       5.592  -3.259   1.914  0.00  0.00    +0.048 A 
ENDBRANCH  27  28
ENDBRANCH  24  27
ENDBRANCH   3  24
TORSDOF 7
