REMARK  Name = ZINC36348309
REMARK  5 active torsions:
REMARK  status: ('A' for Active; 'I' for Inactive)
REMARK    1  A    between atoms: C_1  and  C_2
REMARK    2  A    between atoms: C_6  and  C_8
REMARK    3  A    between atoms: C_8  and  N_9
REMARK    4  A    between atoms: C_18  and  C_20
REMARK    5  A    between atoms: C_25  and  C_26
REMARK                            x       y       z     vdW  Elec       q    Type
REMARK                         _______ _______ _______ _____ _____    ______ ____
ROOT
ATOM      1  N   UNL     1       1.100  -2.981   2.582  0.00  0.00    +0.391 N 
ATOM      2  C   UNL     1       1.609  -1.607   2.584  0.00  0.00    -0.075 C 
ATOM      3  C   UNL     1       3.092  -1.573   2.932  0.00  0.00    +0.003 C 
ATOM      4  C   UNL     1       3.783  -2.823   2.377  0.00  0.00    +0.119 C 
ATOM      5  N   UNL     1       3.698  -3.896   3.373  0.00  0.00    -0.352 N 
ATOM      6  C   UNL     1       4.713  -4.713   3.771  0.00  0.00    +0.086 A 
ATOM      7  C   UNL     1       4.225  -5.576   4.686  0.00  0.00    +0.019 A 
ATOM      8  C   UNL     1       2.860  -5.277   4.863  0.00  0.00    +0.021 A 
ATOM      9  C   UNL     1       2.565  -4.241   4.054  0.00  0.00    +0.009 A 
ATOM     10  C   UNL     1       1.222  -3.565   3.925  0.00  0.00    +0.011 C 
ATOM     11  H   UNL     1       1.633  -3.533   1.927  0.00  0.00    -0.080 HD
ENDROOT
BRANCH  10  12
ATOM     12  C   UNL     1       0.126  -4.578   4.134  0.00  0.00    -0.052 A 
ATOM     13  C   UNL     1      -0.031  -5.621   3.240  0.00  0.00    +0.002 A 
ATOM     14  C   UNL     1      -1.035  -6.551   3.432  0.00  0.00    +0.000 A 
ATOM     15  C   UNL     1      -1.884  -6.438   4.517  0.00  0.00    +0.000 A 
ATOM     16  C   UNL     1      -1.726  -5.396   5.412  0.00  0.00    +0.003 A 
ATOM     17  C   UNL     1      -0.719  -4.468   5.222  0.00  0.00    -0.048 A 
ATOM     18  C   UNL     1      -0.544  -3.335   6.200  0.00  0.00    +0.044 C 
ENDBRANCH  10  12
BRANCH   1  19
ATOM     19  C   UNL     1      -0.312  -2.976   2.179  0.00  0.00    -0.042 C 
BRANCH  19  25
ATOM     20  C   UNL     1      -0.893   0.829  -1.019  0.00  0.00    +0.044 C 
ATOM     21  C   UNL     1      -0.708  -0.644  -0.764  0.00  0.00    -0.050 A 
ATOM     22  C   UNL     1      -0.647  -1.527  -1.826  0.00  0.00    +0.003 A 
ATOM     23  C   UNL     1      -0.477  -2.879  -1.592  0.00  0.00    +0.000 A 
ATOM     24  C   UNL     1      -0.369  -3.348  -0.296  0.00  0.00    +0.002 A 
ATOM     25  C   UNL     1      -0.430  -2.465   0.766  0.00  0.00    -0.064 A 
ATOM     26  C   UNL     1      -0.595  -1.113   0.532  0.00  0.00    +0.005 A 
ENDBRANCH  19  25
ENDBRANCH   1  19
TORSDOF 3
