REMARK  Name = ZINC16322825
REMARK  7 active torsions:
REMARK  status: ('A' for Active; 'I' for Inactive)
REMARK    1  A    between atoms: C_1  and  C_2
REMARK    2  A    between atoms: C_2  and  C_4
REMARK    3  A    between atoms: C_2  and  N_14
REMARK    4  A    between atoms: C_15  and  C_17
REMARK    5  A    between atoms: C_17  and  S_18
REMARK    6  A    between atoms: S_18  and  C_19
REMARK    7  A    between atoms: N_32  and  C_33
REMARK                            x       y       z     vdW  Elec       q    Type
REMARK                         _______ _______ _______ _____ _____    ______ ____
ROOT
ATOM      1  C   UNL     1      -6.626  -0.191   2.399  0.00  0.00    +0.173 C 
ENDROOT
BRANCH   1   3
ATOM      2  N   UNL     1      -4.647  -0.149   0.915  0.00  0.00    -0.308 N 
ATOM      3  C   UNL     1      -5.643  -0.864   1.476  0.00  0.00    +0.224 C 
ATOM      4  O   UNL     1      -5.749  -2.048   1.237  0.00  0.00    -0.275 OA
ATOM      5  H   UNL     1      -4.563   0.798   1.107  0.00  0.00    +0.149 HD
BRANCH   2   7
ATOM      6  C   UNL     1      -4.266  -0.838  -1.400  0.00  0.00    +0.033 C 
ATOM      7  C   UNL     1      -3.692  -0.803   0.018  0.00  0.00    +0.100 C 
BRANCH   7   8
ATOM      8  C   UNL     1      -2.397  -0.033   0.016  0.00  0.00    -0.024 A 
ATOM      9  C   UNL     1      -2.415   1.349   0.026  0.00  0.00    +0.009 A 
ATOM     10  C   UNL     1      -1.229   2.059   0.019  0.00  0.00    +0.050 A 
ATOM     11  C   UNL     1      -0.017   1.385   0.010  0.00  0.00    +0.162 A 
ATOM     12  C   UNL     1       0.002  -0.004   0.002  0.00  0.00    +0.162 A 
ATOM     13  C   UNL     1      -1.192  -0.710   0.004  0.00  0.00    +0.055 A 
ATOM     14  O   UNL     1       1.181  -0.685  -0.007  0.00  0.00    -0.485 OA
ATOM     15  C   UNL     1       2.347   0.053  -0.387  0.00  0.00    +0.270 C 
ATOM     16  C   UNL     1       2.334   1.392   0.364  0.00  0.00    +0.270 C 
ATOM     17  O   UNL     1       1.143   2.098   0.002  0.00  0.00    -0.485 OA
ENDBRANCH   7   8
ENDBRANCH   2   7
ENDBRANCH   1   3
BRANCH   1  18
ATOM     18  S   UNL     1      -7.836  -1.409   2.986  0.00  0.00    -0.076 S 
BRANCH  18  19
ATOM     19  C   UNL     1      -8.899  -0.480   4.039  0.00  0.00    +0.198 A 
ATOM     20  N   UNL     1      -8.796   0.799   4.305  0.00  0.00    -0.120 NA
ATOM     21  N   UNL     1      -9.831   1.146   5.181  0.00  0.00    -0.109 NA
ATOM     22  C   UNL     1     -10.539   0.066   5.426  0.00  0.00    +0.240 A 
ATOM     23  N   UNL     1      -9.983  -0.967   4.720  0.00  0.00    -0.256 N 
ATOM     24  C   UNL     1     -10.534  -2.245   4.783  0.00  0.00    +0.064 A 
ATOM     25  C   UNL     1      -9.976  -3.298   4.075  0.00  0.00    +0.027 A 
ATOM     26  C   UNL     1     -10.542  -4.555   4.154  0.00  0.00    +0.002 A 
ATOM     27  C   UNL     1     -11.664  -4.775   4.937  0.00  0.00    +0.001 A 
ATOM     28  C   UNL     1     -12.232  -3.739   5.648  0.00  0.00    +0.015 A 
ATOM     29  C   UNL     1     -11.670  -2.466   5.576  0.00  0.00    +0.064 A 
ATOM     30  C   UNL     1     -12.247  -1.331   6.320  0.00  0.00    +0.263 A 
ATOM     31  O   UNL     1     -13.232  -1.485   7.018  0.00  0.00    -0.267 OA
ATOM     32  N   UNL     1     -11.658  -0.122   6.222  0.00  0.00    -0.280 N 
ATOM     33  C   UNL     1     -12.221   1.016   6.954  0.00  0.00    +0.155 C 
ENDBRANCH  18  19
ENDBRANCH   1  18
TORSDOF 5
