REMARK  Name = ZINC20696253
REMARK  5 active torsions:
REMARK  status: ('A' for Active; 'I' for Inactive)
REMARK    1  A    between atoms: C_2  and  C_3
REMARK    2  A    between atoms: C_3  and  O_4
REMARK    3  A    between atoms: O_4  and  C_5
REMARK    4  A    between atoms: C_18  and  C_21
REMARK    5  A    between atoms: C_26  and  O_27
REMARK                            x       y       z     vdW  Elec       q    Type
REMARK                         _______ _______ _______ _____ _____    ______ ____
ROOT
ATOM      1  C   UNL     1       3.971   0.412   2.980  0.00  0.00    +0.121 A 
ATOM      2  C   UNL     1       3.635   1.378   2.042  0.00  0.00    +0.047 A 
ATOM      3  C   UNL     1       4.583   2.295   1.638  0.00  0.00    +0.027 A 
ATOM      4  C   UNL     1       5.867   2.250   2.166  0.00  0.00    +0.032 A 
ATOM      5  C   UNL     1       6.209   1.290   3.106  0.00  0.00    -0.016 A 
ATOM      6  C   UNL     1       5.248   0.374   3.512  0.00  0.00    +0.051 A 
ATOM      7  C   UNL     1       7.577   1.208   3.706  0.00  0.00    +0.049 C 
ATOM      8  C   UNL     1       8.360   0.049   3.137  0.00  0.00    -0.023 C 
ATOM      9  C   UNL     1       9.624   0.372   3.013  0.00  0.00    -0.030 C 
ATOM     10  C   UNL     1       9.858   1.793   3.489  0.00  0.00    +0.033 C 
ATOM     11  C   UNL     1       8.445   2.442   3.395  0.00  0.00    +0.029 C 
ATOM     12  C   UNL     1       8.238   2.875   1.941  0.00  0.00    +0.108 C 
ATOM     13  N   UNL     1       6.819   3.185   1.737  0.00  0.00    -0.336 N 
ATOM     14  H   UNL     1       6.526   4.130   1.257  0.00  0.00    +0.147 HD
ENDROOT
BRANCH  12  15
ATOM     15  C   UNL     1       8.649   1.758   1.018  0.00  0.00    +0.015 A 
ATOM     16  C   UNL     1       7.754   0.751   0.709  0.00  0.00    +0.024 A 
ATOM     17  C   UNL     1       8.131  -0.275  -0.138  0.00  0.00    +0.018 A 
ATOM     18  C   UNL     1       9.405  -0.296  -0.678  0.00  0.00    +0.019 A 
ATOM     19  C   UNL     1      10.302   0.708  -0.373  0.00  0.00    +0.047 A 
ATOM     20  C   UNL     1       9.924   1.742   0.472  0.00  0.00    +0.122 A 
ATOM     21 BR   UNL     1       6.904  -1.652  -0.557  0.00  0.00    -0.050 Br
BRANCH  20  22
ATOM     22  O   UNL     1      10.804   2.734   0.770  0.00  0.00    -0.506 OA
ATOM     23  H   UNL     1      11.815   2.720   0.337  0.00  0.00    +0.292 HD
ENDBRANCH  20  22
ENDBRANCH  12  15
BRANCH   1  24
ATOM     24  O   UNL     1       3.041  -0.495   3.382  0.00  0.00    -0.488 OA
BRANCH  24  25
ATOM     25  C   UNL     1       1.741  -0.395   2.797  0.00  0.00    +0.256 C 
BRANCH  25  27
ATOM     26  C   UNL     1      -0.369  -1.188   3.735  0.00  0.00    +0.007 C 
ATOM     27  C   UNL     1       0.853  -1.475   3.359  0.00  0.00    +0.006 C 
ENDBRANCH  25  27
ENDBRANCH  24  25
ENDBRANCH   1  24
TORSDOF 5
