REMARK  Name = ZINC20559118
REMARK  9 active torsions:
REMARK  status: ('A' for Active; 'I' for Inactive)
REMARK    1  A    between atoms: C_1  and  C_2
REMARK    2  A    between atoms: C_2  and  O_3
REMARK    3  A    between atoms: O_3  and  C_4
REMARK    4  A    between atoms: C_4  and  C_6
REMARK    5  A    between atoms: C_7  and  C_19
REMARK    6  A    between atoms: C_12  and  C_14
REMARK    7  A    between atoms: C_19  and  N_20
REMARK    8  A    between atoms: N_23  and  C_26
REMARK    9  A    between atoms: C_26  and  C_27
REMARK                            x       y       z     vdW  Elec       q    Type
REMARK                         _______ _______ _______ _____ _____    ______ ____
ROOT
ATOM      1  C   UNL     1       4.572   2.972   0.696  0.00  0.00    +0.080 C 
ATOM      2  C   UNL     1       4.184   2.132   1.680  0.00  0.00    +0.038 C 
ATOM      3  N   UNL     1       3.306   1.116   1.434  0.00  0.00    -0.271 N 
ATOM      4  C   UNL     1       2.769   0.873   0.232  0.00  0.00    +0.304 C 
ATOM      5  O   UNL     1       1.996  -0.056   0.110  0.00  0.00    -0.252 OA
ATOM      6  N   UNL     1       3.060   1.625  -0.848  0.00  0.00    -0.288 N 
ATOM      7  C   UNL     1       3.999   2.748  -0.689  0.00  0.00    +0.150 C 
ATOM      8  H   UNL     1       3.003   0.442   2.248  0.00  0.00    +0.156 HD
ATOM      9  H   UNL     1       2.614   1.417  -1.832  0.00  0.00    +0.151 HD
ENDROOT
BRANCH   7  10
ATOM     10  C   UNL     1       5.149   2.531  -1.638  0.00  0.00    +0.015 A 
ATOM     11  C   UNL     1       5.768   3.425  -2.447  0.00  0.00    +0.013 A 
ATOM     12  C   UNL     1       6.810   2.995  -3.247  0.00  0.00    +0.008 A 
ATOM     13  C   UNL     1       7.190   1.695  -3.190  0.00  0.00    +0.045 A 
ATOM     14  S   UNL     1       6.049   1.030  -1.988  0.00  0.00    -0.099 S 
ENDBRANCH   7  10
BRANCH   1  15
ATOM     15  C   UNL     1       5.483   4.024   0.950  0.00  0.00    +0.339 C 
ATOM     16  O   UNL     1       6.022   4.112   2.037  0.00  0.00    -0.245 OA
BRANCH  15  17
ATOM     17  O   UNL     1       5.754   4.929  -0.013  0.00  0.00    -0.462 OA
BRANCH  17  19
ATOM     18  C   UNL     1       6.862   6.887  -0.895  0.00  0.00    +0.048 C 
ATOM     19  C   UNL     1       6.683   5.964   0.312  0.00  0.00    +0.229 C 
ENDBRANCH  17  19
ENDBRANCH  15  17
ENDBRANCH   1  15
BRANCH   2  20
ATOM     20  C   UNL     1       4.730   2.320   3.072  0.00  0.00    +0.135 C 
BRANCH  20  21
ATOM     21  N   UNL     1       6.024   1.633   3.187  0.00  0.00    -0.300 NA
ATOM     22  C   UNL     1       5.860   0.178   3.072  0.00  0.00    +0.066 C 
ATOM     23  C   UNL     1       7.235  -0.493   3.117  0.00  0.00    -0.063 C 
ATOM     24  N   UNL     1       7.909  -0.139   4.375  0.00  0.00    +0.384 N 
ATOM     25  C   UNL     1       8.073   1.317   4.489  0.00  0.00    -0.063 C 
ATOM     26  C   UNL     1       6.698   1.987   4.445  0.00  0.00    +0.066 C 
ATOM     27  H   UNL     1       7.274  -0.477   5.207  0.00  0.00    -0.081 HD
BRANCH  24  28
ATOM     28  C   UNL     1       9.203  -0.826   4.489  0.00  0.00    -0.043 C 
BRANCH  28  29
ATOM     29  C   UNL     1       8.975  -2.310   4.614  0.00  0.00    -0.060 A 
ATOM     30  C   UNL     1       8.919  -3.097   3.478  0.00  0.00    +0.005 A 
ATOM     31  C   UNL     1       8.711  -4.459   3.587  0.00  0.00    +0.050 A 
ATOM     32  C   UNL     1       8.556  -5.039   4.836  0.00  0.00    +0.166 A 
ATOM     33  C   UNL     1       8.612  -4.247   5.980  0.00  0.00    +0.166 A 
ATOM     34  C   UNL     1       8.827  -2.883   5.863  0.00  0.00    +0.051 A 
ATOM     35  O   UNL     1       8.434  -5.045   7.073  0.00  0.00    -0.453 OA
ATOM     36  C   UNL     1       8.677  -6.387   6.612  0.00  0.00    +0.466 C 
ATOM     37  O   UNL     1       8.344  -6.334   5.212  0.00  0.00    -0.453 OA
ENDBRANCH  28  29
ENDBRANCH  24  28
ENDBRANCH  20  21
ENDBRANCH   2  20
TORSDOF 8
