REMARK  Name = ZINC65055483
REMARK  9 active torsions:
REMARK  status: ('A' for Active; 'I' for Inactive)
REMARK    1  A    between atoms: C_1  and  C_2
REMARK    2  A    between atoms: C_5  and  N_9
REMARK    3  A    between atoms: C_7  and  C_8
REMARK    4  A    between atoms: C_10  and  C_12
REMARK    5  A    between atoms: C_16  and  S_18
REMARK    6  A    between atoms: S_18  and  N_21
REMARK    7  A    between atoms: N_21  and  C_22
REMARK    8  A    between atoms: C_24  and  C_29
REMARK    9  A    between atoms: C_26  and  C_28
REMARK                            x       y       z     vdW  Elec       q    Type
REMARK                         _______ _______ _______ _____ _____    ______ ____
ROOT
ATOM      1  C   UNL     1      -0.132  -6.304  -1.187  0.00  0.00    +0.083 C 
ATOM      2  C   UNL     1      -0.229  -7.134  -2.250  0.00  0.00    +0.147 C 
ATOM      3  N   UNL     1      -0.291  -8.421  -1.840  0.00  0.00    -0.160 NA
ATOM      4  N   UNL     1      -0.247  -8.573  -0.617  0.00  0.00    -0.154 NA
ATOM      5  C   UNL     1      -0.132  -7.244   0.006  0.00  0.00    +0.327 C 
ENDROOT
BRANCH   1   7
ATOM      6  N   UNL     1       0.058  -4.168  -0.021  0.00  0.00    -0.282 N 
ATOM      7  C   UNL     1      -0.041  -4.837  -1.187  0.00  0.00    +0.250 C 
ATOM      8  O   UNL     1      -0.054  -4.227  -2.239  0.00  0.00    -0.270 OA
ATOM      9  H   UNL     1       0.131  -4.657   0.814  0.00  0.00    +0.155 HD
BRANCH   6  14
ATOM     10  C   UNL     1       0.046   1.503   0.004  0.00  0.00    +0.044 C 
ATOM     11  C   UNL     1       0.050  -0.004  -0.003  0.00  0.00    -0.047 A 
ATOM     12  C   UNL     1       0.654  -0.688  -1.042  0.00  0.00    +0.005 A 
ATOM     13  C   UNL     1       0.659  -2.069  -1.051  0.00  0.00    +0.023 A 
ATOM     14  C   UNL     1       0.056  -2.771  -0.015  0.00  0.00    +0.034 A 
ATOM     15  C   UNL     1      -0.550  -2.080   1.027  0.00  0.00    +0.027 A 
ATOM     16  C   UNL     1      -0.547  -0.699   1.033  0.00  0.00    -0.046 A 
ATOM     17  C   UNL     1      -1.198   0.051   2.166  0.00  0.00    +0.044 C 
ENDBRANCH   6  14
ENDBRANCH   1   7
BRANCH   5  18
ATOM     18  S   UNL     1       1.419  -7.100   0.935  0.00  0.00    +0.092 S 
ATOM     19  O   UNL     1       2.516  -7.491   0.120  0.00  0.00    -0.151 OA
ATOM     20  O   UNL     1       1.450  -5.873   1.651  0.00  0.00    -0.151 OA
BRANCH  18  21
ATOM     21  N   UNL     1       1.325  -8.269   2.105  0.00  0.00    -0.100 NA
BRANCH  21  22
ATOM     22  C   UNL     1       2.373  -8.436   3.012  0.00  0.00    +0.074 A 
ATOM     23  C   UNL     1       3.494  -7.619   2.938  0.00  0.00    +0.030 A 
ATOM     24  C   UNL     1       4.529  -7.786   3.837  0.00  0.00    -0.048 A 
ATOM     25  C   UNL     1       4.451  -8.766   4.809  0.00  0.00    +0.006 A 
ATOM     26  C   UNL     1       3.337  -9.582   4.886  0.00  0.00    -0.048 A 
ATOM     27  C   UNL     1       2.295  -9.416   3.993  0.00  0.00    +0.030 A 
ATOM     28  C   UNL     1       3.256 -10.649   5.947  0.00  0.00    +0.044 C 
ATOM     29  C   UNL     1       5.745  -6.900   3.758  0.00  0.00    +0.044 C 
ENDBRANCH  21  22
ENDBRANCH  18  21
ENDBRANCH   5  18
TORSDOF 5
