REMARK  Name = ZINC50901186
REMARK  10 active torsions:
REMARK  status: ('A' for Active; 'I' for Inactive)
REMARK    1  A    between atoms: C_1  and  C_2
REMARK    2  A    between atoms: C_2  and  C_3
REMARK    3  A    between atoms: C_3  and  C_4
REMARK    4  A    between atoms: C_4  and  C_6
REMARK    5  A    between atoms: C_4  and  N_7
REMARK    6  A    between atoms: C_8  and  C_10
REMARK    7  A    between atoms: N_15  and  C_17
REMARK    8  A    between atoms: C_17  and  N_18
REMARK    9  A    between atoms: C_21  and  C_25
REMARK   10  A    between atoms: C_21  and  C_26
REMARK                            x       y       z     vdW  Elec       q    Type
REMARK                         _______ _______ _______ _____ _____    ______ ____
ROOT
ATOM      1  C   UNL     1      -2.325  -4.294   1.028  0.00  0.00    +0.058 C 
ATOM      2  C   UNL     1      -3.289  -3.360   0.292  0.00  0.00    +0.009 C 
ATOM      3  C   UNL     1      -4.705  -3.941   0.368  0.00  0.00    -0.018 C 
ATOM      4  C   UNL     1      -4.703  -5.353  -0.221  0.00  0.00    -0.077 C 
ATOM      5  N   UNL     1      -3.782  -6.204   0.542  0.00  0.00    +0.391 N 
ATOM      6  C   UNL     1      -2.411  -5.694   0.416  0.00  0.00    -0.064 C 
ATOM      7  H   UNL     1      -4.051  -6.202   1.515  0.00  0.00    -0.079 HD
ENDROOT
BRANCH   1   9
ATOM      8  N   UNL     1      -0.605  -2.548   1.364  0.00  0.00    -0.313 N 
ATOM      9  C   UNL     1      -0.918  -3.772   0.893  0.00  0.00    +0.215 C 
ATOM     10  O   UNL     1      -0.066  -4.453   0.362  0.00  0.00    -0.276 OA
ATOM     11  H   UNL     1      -1.286  -2.004   1.789  0.00  0.00    +0.149 HD
BRANCH   8  12
ATOM     12  C   UNL     1       0.763  -2.041   1.233  0.00  0.00    +0.070 C 
ATOM     13  C   UNL     1       1.608  -2.546   2.404  0.00  0.00    +0.028 C 
BRANCH  12  14
ATOM     14  C   UNL     1       0.742  -0.511   1.242  0.00  0.00    +0.022 C 
BRANCH  14  16
ATOM     15  C   UNL     1      -0.019   1.526   0.010  0.00  0.00    +0.004 C 
ATOM     16  C   UNL     1       0.002  -0.004   0.002  0.00  0.00    -0.002 C 
ENDBRANCH  14  16
ENDBRANCH  12  14
ENDBRANCH   8  12
ENDBRANCH   1   9
BRANCH   5  17
ATOM     17  C   UNL     1      -3.842  -7.577   0.024  0.00  0.00    +0.043 C 
BRANCH  17  18
ATOM     18  N   UNL     1      -5.175  -8.133   0.266  0.00  0.00    -0.241 N 
ATOM     19  C   UNL     1      -5.524  -8.804   1.382  0.00  0.00    +0.245 C 
ATOM     20  O   UNL     1      -4.820  -9.052   2.337  0.00  0.00    -0.273 OA
ATOM     21  C   UNL     1      -6.979  -9.183   1.194  0.00  0.00    +0.112 C 
ATOM     22  N   UNL     1      -7.313  -8.630  -0.130  0.00  0.00    -0.285 N 
ATOM     23  C   UNL     1      -6.199  -8.032  -0.589  0.00  0.00    +0.308 C 
ATOM     24  O   UNL     1      -6.129  -7.467  -1.663  0.00  0.00    -0.252 OA
ATOM     25  C   UNL     1      -7.144 -10.704   1.199  0.00  0.00    +0.042 C 
ATOM     26  H   UNL     1      -8.170  -8.683  -0.581  0.00  0.00    +0.151 HD
BRANCH  21  27
ATOM     27  C   UNL     1      -7.847  -8.543   2.279  0.00  0.00    +0.021 C 
ATOM     28  C   UNL     1      -8.819  -7.443   1.849  0.00  0.00    +0.006 C 
ATOM     29  C   UNL     1      -9.351  -8.823   2.239  0.00  0.00    +0.006 C 
ENDBRANCH  21  27
ENDBRANCH  17  18
ENDBRANCH   5  17
TORSDOF 7
