REMARK  Name = ZINC67216438
REMARK  8 active torsions:
REMARK  status: ('A' for Active; 'I' for Inactive)
REMARK    1  A    between atoms: C_1  and  N_2
REMARK    2  A    between atoms: C_4  and  C_11
REMARK    3  A    between atoms: N_7  and  C_10
REMARK    4  A    between atoms: C_11  and  N_12
REMARK    5  A    between atoms: N_12  and  C_13
REMARK    6  A    between atoms: C_13  and  C_15
REMARK    7  A    between atoms: C_13  and  C_23
REMARK    8  A    between atoms: C_15  and  C_16
REMARK                            x       y       z     vdW  Elec       q    Type
REMARK                         _______ _______ _______ _____ _____    ______ ____
ROOT
ATOM      1  C   UNL     1      -4.065  -3.942  -1.418  0.00  0.00    +0.088 C 
ENDROOT
BRANCH   1   2
ATOM      2  C   UNL     1      -3.770  -5.403  -1.195  0.00  0.00    -0.030 A 
ATOM      3  C   UNL     1      -2.655  -5.980  -1.774  0.00  0.00    +0.005 A 
ATOM      4  C   UNL     1      -2.385  -7.320  -1.569  0.00  0.00    +0.000 A 
ATOM      5  C   UNL     1      -3.229  -8.083  -0.785  0.00  0.00    +0.000 A 
ATOM      6  C   UNL     1      -4.343  -7.506  -0.205  0.00  0.00    +0.000 A 
ATOM      7  C   UNL     1      -4.612  -6.165  -0.406  0.00  0.00    +0.005 A 
ENDBRANCH   1   2
BRANCH   1   8
ATOM      8  N   UNL     1      -2.811  -3.178  -1.381  0.00  0.00    -0.305 NA
ATOM      9  H   UNL     1      -2.873  -2.353  -1.959  0.00  0.00    +0.123 HD
BRANCH   8  10
ATOM     10  C   UNL     1      -2.448  -2.829  -0.002  0.00  0.00    +0.123 C 
BRANCH  10  14
ATOM     11  C   UNL     1      -0.018   1.461   0.010  0.00  0.00    +0.153 C 
ATOM     12  N   UNL     1       0.002  -0.004   0.002  0.00  0.00    -0.303 N 
ATOM     13  C   UNL     1      -1.177  -0.698   0.004  0.00  0.00    +0.100 A 
ATOM     14  C   UNL     1      -1.159  -2.048  -0.004  0.00  0.00    +0.047 A 
ATOM     15  C   UNL     1       0.087  -2.720  -0.014  0.00  0.00    +0.261 A 
ATOM     16  O   UNL     1       0.129  -3.937  -0.022  0.00  0.00    -0.267 OA
ATOM     17  N   UNL     1       1.227  -2.000  -0.016  0.00  0.00    -0.264 N 
ATOM     18  C   UNL     1       1.180  -0.654  -0.013  0.00  0.00    +0.331 A 
ATOM     19  O   UNL     1       2.216  -0.018  -0.019  0.00  0.00    -0.246 OA
ATOM     20  C   UNL     1       2.522  -2.684  -0.026  0.00  0.00    +0.157 C 
ENDBRANCH  10  14
ENDBRANCH   8  10
ENDBRANCH   1   8
BRANCH   1  21
ATOM     21  C   UNL     1      -4.734  -3.760  -2.782  0.00  0.00    +0.058 C 
BRANCH  21  22
ATOM     22  C   UNL     1      -5.140  -2.319  -2.954  0.00  0.00    -0.045 A 
ATOM     23  C   UNL     1      -6.389  -1.898  -2.538  0.00  0.00    +0.005 A 
ATOM     24  C   UNL     1      -6.762  -0.577  -2.695  0.00  0.00    +0.020 A 
ATOM     25  C   UNL     1      -5.884   0.326  -3.269  0.00  0.00    +0.041 A 
ATOM     26  C   UNL     1      -4.634  -0.096  -3.685  0.00  0.00    +0.020 A 
ATOM     27  C   UNL     1      -4.260  -1.416  -3.522  0.00  0.00    +0.005 A 
ATOM     28 CL   UNL     1      -6.352   1.986  -3.467  0.00  0.00    -0.084 Cl
ENDBRANCH  21  22
ENDBRANCH   1  21
TORSDOF 6
