REMARK  Name = ZINC27569568
REMARK  15 active torsions:
REMARK  status: ('A' for Active; 'I' for Inactive)
REMARK    1  A    between atoms: C_1  and  C_2
REMARK    2  A    between atoms: C_2  and  C_3
REMARK    3  A    between atoms: C_2  and  C_4
REMARK    4  A    between atoms: C_4  and  C_6
REMARK    5  A    between atoms: C_4  and  N_23
REMARK    6  A    between atoms: N_8  and  C_9
REMARK    7  A    between atoms: C_9  and  C_10
REMARK    8  A    between atoms: C_10  and  C_12
REMARK    9  A    between atoms: C_10  and  N_20
REMARK   10  A    between atoms: C_17  and  O_18
REMARK   11  A    between atoms: O_18  and  C_19
REMARK   12  A    between atoms: N_20  and  C_21
REMARK   13  A    between atoms: N_20  and  C_22
REMARK   14  A    between atoms: N_23  and  S_24
REMARK   15  A    between atoms: S_24  and  C_27
REMARK                            x       y       z     vdW  Elec       q    Type
REMARK                         _______ _______ _______ _____ _____    ______ ____
ROOT
ATOM      1  C   UNL     1      -0.321   1.685   0.128  0.00  0.00    +0.165 C 
ENDROOT
BRANCH   1   2
ATOM      2  C   UNL     1      -0.912   2.267  -1.131  0.00  0.00    +0.232 C 
ATOM      3  O   UNL     1      -1.689   3.196  -1.063  0.00  0.00    -0.274 OA
ATOM      4  N   UNL     1      -0.576   1.755  -2.331  0.00  0.00    -0.315 N 
ATOM      5  H   UNL     1       0.193   0.972  -2.400  0.00  0.00    +0.149 HD
BRANCH   4   6
ATOM      6  C   UNL     1      -1.236   2.243  -3.545  0.00  0.00    +0.093 C 
BRANCH   6   7
ATOM      7  C   UNL     1      -0.774   1.412  -4.745  0.00  0.00    -0.017 C 
BRANCH   7   8
ATOM      8  C   UNL     1      -1.250  -0.009  -4.585  0.00  0.00    -0.018 A 
ATOM      9  C   UNL     1      -0.415  -0.960  -4.031  0.00  0.00    +0.005 A 
ATOM     10  C   UNL     1      -0.853  -2.262  -3.880  0.00  0.00    +0.000 A 
ATOM     11  C   UNL     1      -2.124  -2.619  -4.291  0.00  0.00    +0.004 A 
ATOM     12  C   UNL     1      -2.961  -1.673  -4.850  0.00  0.00    +0.046 A 
ATOM     13  C   UNL     1      -2.526  -0.364  -4.998  0.00  0.00    +0.122 A 
BRANCH  13  14
ATOM     14  O   UNL     1      -3.348   0.568  -5.548  0.00  0.00    -0.495 OA
ATOM     15  C   UNL     1      -4.647   0.131  -5.951  0.00  0.00    +0.277 C 
ENDBRANCH  13  14
ENDBRANCH   7   8
BRANCH   7  16
ATOM     16  N   UNL     1       0.693   1.431  -4.819  0.00  0.00    +0.382 N 
ATOM     17  C   UNL     1       1.167   0.777  -6.045  0.00  0.00    -0.096 C 
ATOM     18  C   UNL     1       1.206   2.804  -4.722  0.00  0.00    -0.096 C 
ATOM     19  H   UNL     1       1.082   0.864  -3.961  0.00  0.00    -0.082 HD
ENDBRANCH   7  16
ENDBRANCH   6   7
ENDBRANCH   4   6
ENDBRANCH   1   2
BRANCH   1  21
ATOM     20  C   UNL     1       1.998   1.743  -0.798  0.00  0.00    +0.009 C 
ATOM     21  C   UNL     1       1.092   2.237   0.331  0.00  0.00    +0.010 C 
ATOM     22  C   UNL     1       1.049   3.766   0.319  0.00  0.00    +0.009 C 
ENDBRANCH   1  21
BRANCH   1  23
ATOM     23  N   UNL     1      -1.157   2.052   1.274  0.00  0.00    -0.178 NA
ATOM     24  H   UNL     1      -1.522   3.084   1.381  0.00  0.00    +0.149 HD
BRANCH  23  25
ATOM     25  S   UNL     1      -1.350   0.991   2.531  0.00  0.00    +0.059 S 
ATOM     26  O   UNL     1      -2.181   1.637   3.485  0.00  0.00    -0.153 OA
ATOM     27  O   UNL     1      -1.685  -0.265   1.955  0.00  0.00    -0.153 OA
BRANCH  25  28
ATOM     28  C   UNL     1       0.227   0.791   3.291  0.00  0.00    +0.106 A 
ATOM     29  C   UNL     1       1.081  -0.217   2.845  0.00  0.00    +0.029 A 
ATOM     30  C   UNL     1       2.308  -0.395   3.407  0.00  0.00    +0.010 A 
ATOM     31  C   UNL     1       2.719   0.441   4.459  0.00  0.00    -0.018 A 
ATOM     32  C   UNL     1       3.975   0.283   5.068  0.00  0.00    +0.008 A 
ATOM     33  C   UNL     1       4.340   1.112   6.085  0.00  0.00    +0.001 A 
ATOM     34  C   UNL     1       3.484   2.116   6.534  0.00  0.00    +0.001 A 
ATOM     35  C   UNL     1       2.259   2.298   5.968  0.00  0.00    +0.008 A 
ATOM     36  C   UNL     1       1.849   1.462   4.916  0.00  0.00    -0.016 A 
ATOM     37  C   UNL     1       0.591   1.619   4.307  0.00  0.00    +0.037 A 
ENDBRANCH  25  28
ENDBRANCH  23  25
ENDBRANCH   1  23
TORSDOF 10
