REMARK  Name = ZINC39505054
REMARK  1 active torsions:
REMARK  status: ('A' for Active; 'I' for Inactive)
REMARK    1  A    between atoms: N_12  and  O_13
REMARK                            x       y       z     vdW  Elec       q    Type
REMARK                         _______ _______ _______ _____ _____    ______ ____
ROOT
ATOM      1  C   UNL     1      -0.019   1.545   0.011  0.00  0.00    +0.039 C 
ATOM      2  C   UNL     1       1.473   1.944  -0.002  0.00  0.00    +0.027 C 
ATOM      3  C   UNL     1       2.234   0.757  -0.603  0.00  0.00    +0.051 C 
ATOM      4  C   UNL     1       1.195  -0.327  -0.934  0.00  0.00    +0.061 C 
ATOM      5  C   UNL     1       0.002  -0.004   0.002  0.00  0.00    +0.168 C 
ATOM      6  F   UNL     1      -1.191  -0.513  -0.522  0.00  0.00    -0.245 F 
ATOM      7  C   UNL     1       2.973   1.188  -1.880  0.00  0.00    +0.045 C 
ATOM      8  C   UNL     1       4.425   1.416  -1.378  0.00  0.00    +0.099 C 
ATOM      9  C   UNL     1       4.563   0.311  -0.301  0.00  0.00    +0.134 C 
ATOM     10  N   UNL     1       3.232   0.243   0.344  0.00  0.00    -0.183 NA
ATOM     11 CL   UNL     1       5.614   1.171  -2.711  0.00  0.00    -0.120 Cl
ENDROOT
BRANCH  10  12
ATOM     12  O   UNL     1       2.915  -1.126   0.749  0.00  0.00    -0.312 OA
ATOM     13  H   UNL     1       3.546  -1.508   1.374  0.00  0.00    +0.237 HD
ENDBRANCH  10  12
TORSDOF 1
