REMARK  Name = ZINC13756738
REMARK  6 active torsions:
REMARK  status: ('A' for Active; 'I' for Inactive)
REMARK    1  A    between atoms: C_1  and  C_2
REMARK    2  A    between atoms: C_2  and  N_3
REMARK    3  A    between atoms: C_11  and  N_12
REMARK    4  A    between atoms: C_13  and  C_14
REMARK    5  A    between atoms: N_22  and  C_23
REMARK    6  A    between atoms: C_23  and  C_24
REMARK                            x       y       z     vdW  Elec       q    Type
REMARK                         _______ _______ _______ _____ _____    ______ ____
ROOT
ATOM      1  N   UNL     1       2.952  -0.579  -0.346  0.00  0.00    -0.217 NA
ATOM      2  C   UNL     1       4.209  -0.850  -0.581  0.00  0.00    +0.161 C 
ENDROOT
BRANCH   1  11
ATOM      3  N   UNL     1       0.688  -0.476  -1.203  0.00  0.00    -0.309 N 
ATOM      4  C   UNL     1       0.106  -0.746  -2.427  0.00  0.00    +0.070 A 
ATOM      5  C   UNL     1      -1.193  -0.678  -2.911  0.00  0.00    +0.028 A 
ATOM      6  C   UNL     1      -1.454  -1.026  -4.220  0.00  0.00    +0.002 A 
ATOM      7  C   UNL     1      -0.427  -1.443  -5.056  0.00  0.00    +0.002 A 
ATOM      8  C   UNL     1       0.857  -1.517  -4.598  0.00  0.00    +0.030 A 
ATOM      9  C   UNL     1       1.147  -1.169  -3.273  0.00  0.00    +0.091 A 
ATOM     10  N   UNL     1       2.287  -1.141  -2.553  0.00  0.00    -0.211 NA
ATOM     11  C   UNL     1       2.030  -0.729  -1.332  0.00  0.00    +0.232 A 
BRANCH   3  13
ATOM     12  C   UNL     1      -0.019   1.526   0.010  0.00  0.00    +0.027 C 
ATOM     13  C   UNL     1       0.002  -0.004   0.002  0.00  0.00    +0.122 C 
ENDBRANCH   3  13
ENDBRANCH   1  11
BRANCH   2  14
ATOM     14  C   UNL     1       5.206  -0.688   0.484  0.00  0.00    +0.153 A 
ATOM     15  N   UNL     1       4.948  -0.285   1.707  0.00  0.00    -0.227 NA
ATOM     16  C   UNL     1       6.086  -0.249   2.424  0.00  0.00    +0.090 A 
ATOM     17  C   UNL     1       6.376   0.099   3.750  0.00  0.00    +0.030 A 
ATOM     18  C   UNL     1       7.662   0.034   4.203  0.00  0.00    +0.002 A 
ATOM     19  C   UNL     1       8.691  -0.375   3.365  0.00  0.00    +0.002 A 
ATOM     20  C   UNL     1       8.431  -0.723   2.057  0.00  0.00    +0.028 A 
ATOM     21  C   UNL     1       7.130  -0.664   1.574  0.00  0.00    +0.069 A 
ATOM     22  N   UNL     1       6.549  -0.941   0.356  0.00  0.00    -0.323 N 
BRANCH  22  23
ATOM     23  C   UNL     1       7.235  -1.413  -0.850  0.00  0.00    +0.120 C 
ATOM     24  C   UNL     1       7.692  -0.212  -1.680  0.00  0.00    +0.027 C 
ENDBRANCH  22  23
ENDBRANCH   2  14
TORSDOF 4
