REMARK  Name = ZINC05543178
REMARK  9 active torsions:
REMARK  status: ('A' for Active; 'I' for Inactive)
REMARK    1  A    between atoms: C_1  and  C_2
REMARK    2  A    between atoms: C_5  and  C_8
REMARK    3  A    between atoms: N_9  and  N_10
REMARK    4  A    between atoms: C_11  and  C_13
REMARK    5  A    between atoms: N_15  and  C_16
REMARK    6  A    between atoms: C_16  and  C_18
REMARK    7  A    between atoms: C_16  and  C_19
REMARK    8  A    between atoms: C_22  and  O_25
REMARK    9  A    between atoms: O_25  and  C_26
REMARK                            x       y       z     vdW  Elec       q    Type
REMARK                         _______ _______ _______ _____ _____    ______ ____
ROOT
ATOM      1  C   UNL     1      -0.430   3.198   1.711  0.00  0.00    +0.301 C 
ATOM      2  O   UNL     1       0.385   3.908   1.159  0.00  0.00    -0.265 OA
ATOM      3  N   UNL     1      -0.704   1.975   1.216  0.00  0.00    -0.301 N 
ATOM      4  H   UNL     1      -1.355   1.408   1.657  0.00  0.00    +0.150 HD
ENDROOT
BRANCH   1   6
ATOM      5  N   UNL     1      -0.855   4.903   3.434  0.00  0.00    -0.199 N 
ATOM      6  C   UNL     1      -1.129   3.679   2.939  0.00  0.00    +0.318 C 
ATOM      7  O   UNL     1      -1.944   2.969   3.491  0.00  0.00    -0.263 OA
ATOM      8  H   UNL     1      -0.203   5.470   2.993  0.00  0.00    +0.178 HD
BRANCH   5  10
ATOM      9  C   UNL     1      -1.246   6.533   5.064  0.00  0.00    +0.138 C 
ATOM     10  N   UNL     1      -1.510   5.354   4.587  0.00  0.00    -0.187 NA
BRANCH   9  15
ATOM     11  C   UNL     1      -3.940   8.389   9.795  0.00  0.00    +0.044 C 
ATOM     12  C   UNL     1      -3.233   7.902   8.555  0.00  0.00    -0.050 A 
ATOM     13  C   UNL     1      -2.305   8.714   7.929  0.00  0.00    +0.004 A 
ATOM     14  C   UNL     1      -1.655   8.276   6.794  0.00  0.00    +0.010 A 
ATOM     15  C   UNL     1      -1.936   7.008   6.277  0.00  0.00    -0.005 A 
ATOM     16  C   UNL     1      -2.879   6.196   6.912  0.00  0.00    +0.010 A 
ATOM     17  C   UNL     1      -3.517   6.646   8.050  0.00  0.00    +0.004 A 
ENDBRANCH   9  15
ENDBRANCH   5  10
ENDBRANCH   1   6
BRANCH   3  18
ATOM     18  C   UNL     1      -0.018   1.503   0.010  0.00  0.00    +0.101 C 
ATOM     19  C   UNL     1      -0.758   2.010  -1.229  0.00  0.00    +0.033 C 
BRANCH  18  20
ATOM     20  C   UNL     1       0.002  -0.004   0.002  0.00  0.00    -0.027 A 
ATOM     21  C   UNL     1      -1.108  -0.712   0.424  0.00  0.00    +0.009 A 
ATOM     22  C   UNL     1      -1.094  -2.093   0.412  0.00  0.00    +0.046 A 
ATOM     23  C   UNL     1       0.040  -2.770  -0.013  0.00  0.00    +0.120 A 
ATOM     24  C   UNL     1       1.155  -2.058  -0.430  0.00  0.00    +0.046 A 
ATOM     25  C   UNL     1       1.133  -0.677  -0.422  0.00  0.00    +0.009 A 
BRANCH  23  26
ATOM     26  O   UNL     1       0.059  -4.129  -0.019  0.00  0.00    -0.495 OA
ATOM     27  C   UNL     1      -1.125  -4.796   0.424  0.00  0.00    +0.277 C 
ENDBRANCH  23  26
ENDBRANCH  18  20
ENDBRANCH   3  18
TORSDOF 6
