REMARK  Name = ZINC37256301
REMARK  2 active torsions:
REMARK  status: ('A' for Active; 'I' for Inactive)
REMARK    1  A    between atoms: C_1  and  C_2
REMARK    2  A    between atoms: C_7  and  N_10
REMARK                            x       y       z     vdW  Elec       q    Type
REMARK                         _______ _______ _______ _____ _____    ______ ____
ROOT
ATOM      1  C   UNL     1      -0.047   1.609   0.311  0.00  0.00    +0.007 C 
ATOM      2  C   UNL     1      -0.029   0.084   0.184  0.00  0.00    -0.012 C 
ATOM      3  C   UNL     1       0.650  -0.311  -1.129  0.00  0.00    +0.003 C 
ATOM      4  C   UNL     1       0.668  -1.835  -1.255  0.00  0.00    +0.002 C 
ATOM      5  C   UNL     1       1.442  -2.436  -0.080  0.00  0.00    +0.025 C 
ATOM      6  C   UNL     1       0.763  -2.041   1.233  0.00  0.00    +0.089 C 
ATOM      7  C   UNL     1       0.745  -0.516   1.360  0.00  0.00    +0.028 C 
ENDROOT
BRANCH   6   8
ATOM      8  N   UNL     1      -0.612  -2.548   1.244  0.00  0.00    -0.323 N 
ATOM      9  C   UNL     1      -1.606  -2.226   0.332  0.00  0.00    +0.106 A 
ATOM     10  C   UNL     1      -2.707  -2.885   0.678  0.00  0.00    +0.102 A 
ATOM     11  N   UNL     1      -2.419  -3.630   1.811  0.00  0.00    -0.340 N 
ATOM     12  C   UNL     1      -1.129  -3.413   2.137  0.00  0.00    +0.158 A 
ATOM     13  S   UNL     1      -0.295  -4.113   3.459  0.00  0.00    -0.013 S 
ATOM     14  H   UNL     1      -3.037  -4.209   2.285  0.00  0.00    +0.167 HD
ENDBRANCH   6   8
TORSDOF 1
