REMARK  Name = ZINC66967835
REMARK  9 active torsions:
REMARK  status: ('A' for Active; 'I' for Inactive)
REMARK    1  A    between atoms: C_1  and  C_2
REMARK    2  A    between atoms: C_2  and  C_3
REMARK    3  A    between atoms: C_3  and  N_4
REMARK    4  A    between atoms: C_10  and  N_13
REMARK    5  A    between atoms: N_13  and  C_14
REMARK    6  A    between atoms: C_14  and  C_16
REMARK    7  A    between atoms: C_14  and  C_17
REMARK    8  A    between atoms: N_22  and  C_23
REMARK    9  A    between atoms: C_26  and  C_29
REMARK                            x       y       z     vdW  Elec       q    Type
REMARK                         _______ _______ _______ _____ _____    ______ ____
ROOT
ATOM      1  C   UNL     1      -6.997  -3.073   1.570  0.00  0.00    +0.154 C 
ATOM      2  C   UNL     1      -7.535  -1.717   2.032  0.00  0.00    +0.038 C 
ENDROOT
BRANCH   1   3
ATOM      3  C   UNL     1      -7.913  -3.645   0.519  0.00  0.00    +0.240 C 
ATOM      4  O   UNL     1      -7.488  -3.884  -0.591  0.00  0.00    -0.273 OA
ATOM      5  N   UNL     1      -9.206  -3.890   0.812  0.00  0.00    -0.238 N 
ATOM      6  C   UNL     1     -10.025  -4.401  -0.128  0.00  0.00    +0.310 C 
ATOM      7  O   UNL     1      -9.599  -4.641  -1.240  0.00  0.00    -0.252 OA
ATOM      8  N   UNL     1     -11.318  -4.646   0.166  0.00  0.00    -0.269 N 
ATOM      9  H   UNL     1      -9.546  -3.698   1.700  0.00  0.00    +0.159 HD
ATOM     10  H   UNL     1     -11.642  -4.518   1.071  0.00  0.00    +0.156 HD
BRANCH   8  11
ATOM     11  C   UNL     1     -12.191  -5.086  -0.835  0.00  0.00    +0.035 A 
ATOM     12  C   UNL     1     -13.517  -4.672  -0.832  0.00  0.00    +0.023 A 
ATOM     13  C   UNL     1     -14.377  -5.107  -1.821  0.00  0.00    +0.005 A 
ATOM     14  C   UNL     1     -13.919  -5.954  -2.814  0.00  0.00    -0.050 A 
ATOM     15  C   UNL     1     -12.600  -6.368  -2.819  0.00  0.00    +0.005 A 
ATOM     16  C   UNL     1     -11.733  -5.931  -1.836  0.00  0.00    +0.023 A 
ATOM     17  C   UNL     1     -14.860  -6.427  -3.892  0.00  0.00    +0.044 C 
ENDBRANCH   8  11
ENDBRANCH   1   3
BRANCH   1  18
ATOM     18  N   UNL     1      -5.656  -2.900   1.007  0.00  0.00    -0.333 N 
ATOM     19  H   UNL     1      -5.542  -2.789   0.050  0.00  0.00    +0.147 HD
BRANCH  18  26
ATOM     20  N   UNL     1      -1.413  -2.005   0.007  0.00  0.00    +0.385 N 
ATOM     21  C   UNL     1      -0.930  -2.534   1.303  0.00  0.00    -0.042 C 
ATOM     22  C   UNL     1      -2.167  -2.728   2.151  0.00  0.00    -0.061 A 
ATOM     23  C   UNL     1      -2.332  -2.887   3.514  0.00  0.00    +0.002 A 
ATOM     24  C   UNL     1      -3.597  -3.050   4.047  0.00  0.00    +0.002 A 
ATOM     25  C   UNL     1      -4.702  -3.054   3.218  0.00  0.00    +0.023 A 
ATOM     26  C   UNL     1      -4.541  -2.896   1.848  0.00  0.00    +0.029 A 
ATOM     27  C   UNL     1      -3.269  -2.732   1.316  0.00  0.00    -0.042 A 
ATOM     28  C   UNL     1      -2.788  -2.541  -0.105  0.00  0.00    -0.040 C 
ATOM     29  H   UNL     1      -0.839  -2.341  -0.751  0.00  0.00    -0.081 HD
BRANCH  20  30
ATOM     30  C   UNL     1      -1.432  -0.536   0.026  0.00  0.00    -0.078 C 
BRANCH  30  32
ATOM     31  C   UNL     1      -0.017   1.523   0.036  0.00  0.00    +0.002 C 
ATOM     32  C   UNL     1       0.003  -0.006   0.017  0.00  0.00    -0.022 C 
ENDBRANCH  30  32
ENDBRANCH  20  30
ENDBRANCH  18  26
ENDBRANCH   1  18
TORSDOF 6
