REMARK  Name = ZINC63803344
REMARK  9 active torsions:
REMARK  status: ('A' for Active; 'I' for Inactive)
REMARK    1  A    between atoms: C_1  and  C_2
REMARK    2  A    between atoms: C_4  and  C_15
REMARK    3  A    between atoms: C_6  and  S_9
REMARK    4  A    between atoms: C_7  and  C_8
REMARK    5  A    between atoms: S_9  and  N_12
REMARK    6  A    between atoms: N_12  and  C_13
REMARK    7  A    between atoms: N_12  and  C_14
REMARK    8  A    between atoms: N_17  and  C_18
REMARK    9  A    between atoms: C_23  and  O_24
REMARK                            x       y       z     vdW  Elec       q    Type
REMARK                         _______ _______ _______ _____ _____    ______ ____
ROOT
ATOM      1  C   UNL     1      -0.551   0.425  -0.462  0.00  0.00    +0.044 C 
ATOM      2  C   UNL     1      -0.427  -1.053  -0.199  0.00  0.00    -0.045 A 
ATOM      3  C   UNL     1      -0.173  -1.919  -1.243  0.00  0.00    +0.016 A 
ATOM      4  C   UNL     1      -0.058  -3.288  -0.998  0.00  0.00    +0.039 A 
ATOM      5  C   UNL     1      -0.201  -3.772   0.304  0.00  0.00    +0.042 A 
ATOM      6  C   UNL     1      -0.454  -2.896   1.339  0.00  0.00    +0.109 A 
ATOM      7  C   UNL     1      -0.562  -1.539   1.089  0.00  0.00    -0.021 A 
ATOM      8  C   UNL     1      -0.834  -0.587   2.226  0.00  0.00    +0.046 C 
ENDROOT
BRANCH   4   9
ATOM      9  C   UNL     1       0.214  -4.222  -2.111  0.00  0.00    +0.248 C 
ATOM     10  O   UNL     1       0.314  -5.414  -1.895  0.00  0.00    -0.270 OA
ATOM     11  N   UNL     1       0.351  -3.751  -3.366  0.00  0.00    -0.279 N 
ATOM     12  H   UNL     1       0.349  -2.795  -3.529  0.00  0.00    +0.155 HD
BRANCH  11  13
ATOM     13  C   UNL     1       0.496  -4.643  -4.437  0.00  0.00    +0.077 A 
ATOM     14  C   UNL     1       0.002  -5.936  -4.336  0.00  0.00    +0.047 A 
ATOM     15  C   UNL     1       0.147  -6.814  -5.394  0.00  0.00    +0.043 A 
ATOM     16  C   UNL     1       0.782  -6.407  -6.554  0.00  0.00    +0.023 A 
ATOM     17  C   UNL     1       1.277  -5.120  -6.660  0.00  0.00    +0.049 A 
ATOM     18  C   UNL     1       1.130  -4.232  -5.607  0.00  0.00    +0.138 A 
ATOM     19 CL   UNL     1      -0.471  -8.431  -5.268  0.00  0.00    -0.083 Cl
BRANCH  18  20
ATOM     20  O   UNL     1       1.611  -2.964  -5.713  0.00  0.00    -0.505 OA
ATOM     21  H   UNL     1       2.525  -2.864  -5.416  0.00  0.00    +0.292 HD
ENDBRANCH  18  20
ENDBRANCH  11  13
ENDBRANCH   4   9
BRANCH   6  22
ATOM     22  S   UNL     1      -0.635  -3.505   2.982  0.00  0.00    +0.061 S 
ATOM     23  O   UNL     1      -0.531  -4.920   2.905  0.00  0.00    -0.153 OA
ATOM     24  O   UNL     1       0.221  -2.722   3.802  0.00  0.00    -0.153 OA
BRANCH  22  25
ATOM     25  N   UNL     1      -2.185  -3.171   3.461  0.00  0.00    -0.183 NA
ATOM     26  C   UNL     1      -3.282  -4.054   3.059  0.00  0.00    +0.131 C 
ATOM     27  C   UNL     1      -2.458  -1.991   4.285  0.00  0.00    +0.131 C 
ENDBRANCH  22  25
ENDBRANCH   6  22
TORSDOF 5
