REMARK  Name = ZINC46009357
REMARK  9 active torsions:
REMARK  status: ('A' for Active; 'I' for Inactive)
REMARK    1  A    between atoms: C_1  and  C_2
REMARK    2  A    between atoms: C_5  and  C_8
REMARK    3  A    between atoms: C_9  and  C_22
REMARK    4  A    between atoms: N_14  and  C_21
REMARK    5  A    between atoms: N_17  and  C_20
REMARK    6  A    between atoms: C_24  and  C_28
REMARK    7  A    between atoms: C_25  and  C_27
REMARK    8  A    between atoms: C_28  and  O_30
REMARK    9  A    between atoms: O_30  and  C_31
REMARK                            x       y       z     vdW  Elec       q    Type
REMARK                         _______ _______ _______ _____ _____    ______ ____
ROOT
ATOM      1  C   UNL     1       0.038  -4.248  -0.040  0.00  0.00    +0.057 A 
ATOM      2  C   UNL     1      -0.650  -5.070   0.835  0.00  0.00    +0.032 A 
ATOM      3  C   UNL     1      -0.289  -6.443   0.466  0.00  0.00    +0.090 A 
ATOM      4  C   UNL     1       0.594  -6.351  -0.607  0.00  0.00    +0.128 A 
ATOM      5  N   UNL     1       0.774  -5.040  -0.899  0.00  0.00    -0.340 N 
ATOM      6  H   UNL     1       1.341  -4.704  -1.611  0.00  0.00    +0.167 HD
ATOM      7  N   UNL     1       1.092  -7.516  -1.152  0.00  0.00    -0.282 N 
ATOM      8  C   UNL     1       0.736  -8.715  -0.661  0.00  0.00    +0.333 A 
ATOM      9  O   UNL     1       1.200  -9.716  -1.172  0.00  0.00    -0.246 OA
ATOM     10  N   UNL     1      -0.112  -8.850   0.372  0.00  0.00    -0.263 N 
ATOM     11  C   UNL     1      -0.651  -7.765   0.970  0.00  0.00    +0.266 A 
ATOM     12  O   UNL     1      -1.420  -7.886   1.906  0.00  0.00    -0.267 OA
ATOM     13  C   UNL     1      -0.456 -10.190   0.856  0.00  0.00    +0.157 C 
ATOM     14  C   UNL     1       2.022  -7.445  -2.281  0.00  0.00    +0.155 C 
ENDROOT
BRANCH   1  19
ATOM     15  C   UNL     1      -0.150   1.500  -0.099  0.00  0.00    +0.044 C 
ATOM     16  C   UNL     1      -0.101  -0.007  -0.084  0.00  0.00    -0.050 A 
ATOM     17  C   UNL     1      -0.242  -0.712  -1.266  0.00  0.00    +0.004 A 
ATOM     18  C   UNL     1      -0.197  -2.091  -1.259  0.00  0.00    +0.010 A 
ATOM     19  C   UNL     1      -0.010  -2.775  -0.055  0.00  0.00    -0.001 A 
ATOM     20  C   UNL     1       0.132  -2.055   1.135  0.00  0.00    +0.010 A 
ATOM     21  C   UNL     1       0.091  -0.677   1.112  0.00  0.00    +0.004 A 
ENDBRANCH   1  19
BRANCH   2  22
ATOM     22  C   UNL     1      -1.561  -4.652   1.916  0.00  0.00    +0.070 A 
ATOM     23  C   UNL     1      -2.592  -3.755   1.861  0.00  0.00    +0.208 A 
ATOM     24  C   UNL     1      -3.305  -3.558   3.099  0.00  0.00    +0.116 A 
ATOM     25  C   UNL     1      -2.875  -4.284   4.191  0.00  0.00    +0.005 A 
ATOM     26  S   UNL     1      -1.591  -5.195   3.611  0.00  0.00    -0.089 S 
ATOM     27  C   UNL     1      -3.436  -4.268   5.590  0.00  0.00    +0.052 C 
ATOM     28  O   UNL     1      -2.923  -3.096   0.718  0.00  0.00    -0.286 OA
BRANCH  24  29
ATOM     29  C   UNL     1      -4.437  -2.625   3.194  0.00  0.00    +0.343 C 
ATOM     30  O   UNL     1      -5.567  -3.017   2.977  0.00  0.00    -0.245 OA
BRANCH  29  31
ATOM     31  O   UNL     1      -4.222  -1.336   3.522  0.00  0.00    -0.464 OA
ATOM     32  C   UNL     1      -5.368  -0.485   3.596  0.00  0.00    +0.280 C 
ENDBRANCH  29  31
ENDBRANCH  24  29
ENDBRANCH   2  22
TORSDOF 4
