REMARK  Name = ZINC28829500
REMARK  6 active torsions:
REMARK  status: ('A' for Active; 'I' for Inactive)
REMARK    1  A    between atoms: C_3  and  O_25
REMARK    2  A    between atoms: C_6  and  N_7
REMARK    3  A    between atoms: C_8  and  S_12
REMARK    4  A    between atoms: S_12  and  C_13
REMARK    5  A    between atoms: C_13  and  C_14
REMARK    6  A    between atoms: N_16  and  C_17
REMARK                            x       y       z     vdW  Elec       q    Type
REMARK                         _______ _______ _______ _____ _____    ______ ____
ROOT
ATOM      1  S   UNL     1       1.672   3.458   0.004  0.00  0.00    -0.075 S 
ENDROOT
BRANCH   1   3
ATOM      2  N   UNL     1       2.052   0.694  -0.014  0.00  0.00    -0.187 N 
ATOM      3  C   UNL     1       1.211   1.758  -0.000  0.00  0.00    +0.214 A 
ATOM      4  N   UNL     1      -0.015   1.280   0.009  0.00  0.00    -0.101 NA
ATOM      5  N   UNL     1       0.002  -0.004   0.002  0.00  0.00    -0.022 NA
ATOM      6  N   UNL     1       1.216  -0.437  -0.012  0.00  0.00    -0.038 NA
BRANCH   2  12
ATOM      7  C   UNL     1       4.127   1.712  -0.723  0.00  0.00    +0.031 A 
ATOM      8  C   UNL     1       5.507   1.738  -0.730  0.00  0.00    +0.047 A 
ATOM      9  C   UNL     1       6.223   0.761  -0.053  0.00  0.00    +0.117 A 
ATOM     10  C   UNL     1       5.552  -0.238   0.637  0.00  0.00    +0.047 A 
ATOM     11  C   UNL     1       4.172  -0.261   0.651  0.00  0.00    +0.031 A 
ATOM     12  C   UNL     1       3.455   0.716  -0.027  0.00  0.00    +0.070 A 
BRANCH   9  13
ATOM     13  O   UNL     1       7.582   0.783  -0.066  0.00  0.00    -0.507 OA
ATOM     14  H   UNL     1       8.150   0.009   0.472  0.00  0.00    +0.292 HD
ENDBRANCH   9  13
ENDBRANCH   2  12
ENDBRANCH   1   3
BRANCH   1  15
ATOM     15  C   UNL     1       0.035   4.228   0.024  0.00  0.00    +0.173 C 
BRANCH  15  16
ATOM     16  C   UNL     1       0.185   5.728   0.029  0.00  0.00    +0.224 C 
ATOM     17  O   UNL     1       1.290   6.227   0.021  0.00  0.00    -0.275 OA
ATOM     18  N   UNL     1      -0.909   6.515   0.044  0.00  0.00    -0.312 N 
ATOM     19  H   UNL     1      -1.912   6.062   0.051  0.00  0.00    +0.149 HD
BRANCH  18  20
ATOM     20  C   UNL     1      -0.763   7.972   0.050  0.00  0.00    +0.073 C 
ATOM     21  C   UNL     1      -0.574   8.460   1.487  0.00  0.00    +0.022 C 
ATOM     22  C   UNL     1      -0.032   9.891   1.473  0.00  0.00    +0.002 C 
ATOM     23  C   UNL     1       1.079  10.006   0.427  0.00  0.00    +0.000 C 
ATOM     24  C   UNL     1       0.617  10.918  -0.710  0.00  0.00    +0.000 C 
ATOM     25  C   UNL     1      -0.366  10.159  -1.604  0.00  0.00    +0.000 C 
ATOM     26  C   UNL     1      -1.726  10.070  -0.907  0.00  0.00    +0.002 C 
ATOM     27  C   UNL     1      -2.019   8.613  -0.545  0.00  0.00    +0.022 C 
ENDBRANCH  18  20
ENDBRANCH  15  16
ENDBRANCH   1  15
TORSDOF 6
