REMARK  Name = ZINC66569683
REMARK  7 active torsions:
REMARK  status: ('A' for Active; 'I' for Inactive)
REMARK    1  A    between atoms: C_1  and  C_2
REMARK    2  A    between atoms: C_6  and  C_8
REMARK    3  A    between atoms: N_10  and  N_11
REMARK    4  A    between atoms: C_12  and  C_14
REMARK    5  A    between atoms: C_14  and  C_15
REMARK    6  A    between atoms: C_15  and  N_16
REMARK    7  A    between atoms: C_24  and  C_28
REMARK                            x       y       z     vdW  Elec       q    Type
REMARK                         _______ _______ _______ _____ _____    ______ ____
ROOT
ATOM      1  N   UNL     1       0.083  -4.905   3.652  0.00  0.00    -0.234 N 
ATOM      2  C   UNL     1       0.100  -6.252   3.639  0.00  0.00    +0.231 C 
ATOM      3  O   UNL     1       0.103  -6.849   2.583  0.00  0.00    -0.274 OA
ATOM      4  H   UNL     1       0.080  -4.428   4.496  0.00  0.00    +0.173 HD
ENDROOT
BRANCH   1   7
ATOM      5  C   UNL     1       0.051  -2.845   2.458  0.00  0.00    +0.260 C 
ATOM      6  O   UNL     1       0.048  -2.248   3.516  0.00  0.00    -0.269 OA
ATOM      7  N   UNL     1       0.068  -4.193   2.445  0.00  0.00    -0.230 N 
ATOM      8  H   UNL     1       0.071  -4.670   1.601  0.00  0.00    +0.173 HD
BRANCH   5  14
ATOM      9  C   UNL     1      -0.018   1.503   0.010  0.00  0.00    +0.044 C 
ATOM     10  C   UNL     1       0.002  -0.004   0.002  0.00  0.00    -0.050 A 
ATOM     11  C   UNL     1       0.006  -0.688  -1.201  0.00  0.00    +0.003 A 
ATOM     12  C   UNL     1       0.024  -2.071  -1.218  0.00  0.00    +0.001 A 
ATOM     13  C   UNL     1       0.039  -2.778  -0.033  0.00  0.00    +0.013 A 
ATOM     14  C   UNL     1       0.036  -2.095   1.184  0.00  0.00    +0.038 A 
ATOM     15  C   UNL     1       0.023  -0.699   1.194  0.00  0.00    +0.016 A 
ENDBRANCH   5  14
ENDBRANCH   1   7
BRANCH   2  16
ATOM     16  C   UNL     1       0.115  -7.018   4.937  0.00  0.00    +0.116 C 
BRANCH  16  17
ATOM     17  C   UNL     1       0.134  -8.519   4.644  0.00  0.00    +0.123 C 
BRANCH  17  18
ATOM     18  N   UNL     1       0.149  -9.263   5.905  0.00  0.00    -0.265 N 
ATOM     19  C   UNL     1       1.364  -9.604   6.516  0.00  0.00    +0.078 A 
ATOM     20  C   UNL     1       2.545  -8.990   6.134  0.00  0.00    +0.027 A 
ATOM     21  C   UNL     1       3.733  -9.342   6.748  0.00  0.00    +0.002 A 
ATOM     22  C   UNL     1       3.744 -10.303   7.742  0.00  0.00    +0.004 A 
ATOM     23  C   UNL     1       2.568 -10.919   8.129  0.00  0.00    +0.047 A 
ATOM     24  C   UNL     1       1.375 -10.572   7.519  0.00  0.00    +0.143 A 
ATOM     25  O   UNL     1       0.208 -11.166   7.889  0.00  0.00    -0.478 OA
ATOM     26  C   UNL     1      -0.973 -10.363   7.816  0.00  0.00    +0.256 C 
ATOM     27  C   UNL     1      -1.008  -9.627   6.501  0.00  0.00    +0.260 C 
ATOM     28  O   UNL     1      -2.071  -9.366   5.978  0.00  0.00    -0.271 OA
ATOM     29  C   UNL     1      -0.970  -9.348   8.961  0.00  0.00    +0.062 C 
ENDBRANCH  17  18
ENDBRANCH  16  17
ENDBRANCH   2  16
TORSDOF 5
