REMARK  Name = ZINC34830632
REMARK  7 active torsions:
REMARK  status: ('A' for Active; 'I' for Inactive)
REMARK    1  A    between atoms: C_1  and  C_2
REMARK    2  A    between atoms: N_8  and  S_9
REMARK    3  A    between atoms: S_9  and  C_12
REMARK    4  A    between atoms: C_18  and  C_20
REMARK    5  A    between atoms: C_20  and  C_21
REMARK    6  A    between atoms: C_21  and  N_22
REMARK    7  A    between atoms: C_30  and  C_32
REMARK                            x       y       z     vdW  Elec       q    Type
REMARK                         _______ _______ _______ _____ _____    ______ ____
ROOT
ATOM      1  C   UNL     1      -0.378   1.469   0.268  0.00  0.00    +0.027 C 
ATOM      2  C   UNL     1      -0.178  -0.042   0.141  0.00  0.00    +0.094 C 
ATOM      3  C   UNL     1       0.326  -0.378  -1.268  0.00  0.00    +0.128 C 
ATOM      4  N   UNL     1       0.757  -1.783  -1.290  0.00  0.00    -0.299 N 
ATOM      5  C   UNL     1       1.758  -2.233  -0.313  0.00  0.00    +0.125 C 
ATOM      6  C   UNL     1       1.254  -1.897   1.096  0.00  0.00    +0.129 C 
ATOM      7  N   UNL     1       0.820  -0.492   1.121  0.00  0.00    -0.171 NA
ATOM      8  C   UNL     1       0.242  -2.644  -2.191  0.00  0.00    +0.217 C 
ATOM      9  O   UNL     1      -0.583  -2.261  -2.992  0.00  0.00    -0.276 OA
ENDROOT
BRANCH   7  10
ATOM     10  S   UNL     1       1.450   0.565   2.229  0.00  0.00    +0.061 S 
ATOM     11  O   UNL     1       2.648  -0.023   2.716  0.00  0.00    -0.153 OA
ATOM     12  O   UNL     1       1.423   1.851   1.625  0.00  0.00    -0.153 OA
BRANCH  10  13
ATOM     13  C   UNL     1       0.330   0.624   3.588  0.00  0.00    +0.105 A 
ATOM     14  C   UNL     1      -0.702   1.544   3.594  0.00  0.00    +0.028 A 
ATOM     15  C   UNL     1      -1.581   1.590   4.660  0.00  0.00    +0.002 A 
ATOM     16  C   UNL     1      -1.428   0.716   5.720  0.00  0.00    +0.000 A 
ATOM     17  C   UNL     1      -0.397  -0.204   5.714  0.00  0.00    +0.002 A 
ATOM     18  C   UNL     1       0.479  -0.254   4.646  0.00  0.00    +0.028 A 
ENDBRANCH  10  13
ENDBRANCH   7  10
BRANCH   8  19
ATOM     19  C   UNL     1       0.693  -4.082  -2.201  0.00  0.00    +0.111 C 
BRANCH  19  20
ATOM     20  C   UNL     1      -0.039  -4.838  -3.312  0.00  0.00    +0.094 C 
BRANCH  20  21
ATOM     21  N   UNL     1       0.401  -6.239  -3.322  0.00  0.00    -0.291 NA
ATOM     22  C   UNL     1       0.012  -6.923  -2.080  0.00  0.00    +0.090 C 
ATOM     23  C   UNL     1       0.828  -8.221  -1.952  0.00  0.00    +0.058 C 
ATOM     24  C   UNL     1       0.780  -8.919  -3.272  0.00  0.00    -0.004 A 
ATOM     25  C   UNL     1       0.370  -8.390  -4.459  0.00  0.00    -0.016 A 
ATOM     26  C   UNL     1       0.410  -9.236  -5.564  0.00  0.00    +0.013 A 
ATOM     27  C   UNL     1       0.843 -10.511  -5.426  0.00  0.00    +0.046 A 
ATOM     28  S   UNL     1       1.225 -10.583  -3.682  0.00  0.00    -0.101 S 
ATOM     29  C   UNL     1      -0.096  -6.938  -4.515  0.00  0.00    +0.118 C 
BRANCH  29  30
ATOM     30  C   UNL     1       0.453  -6.278  -5.753  0.00  0.00    -0.023 A 
ATOM     31  C   UNL     1       1.766  -5.842  -5.780  0.00  0.00    +0.006 A 
ATOM     32  C   UNL     1       2.271  -5.237  -6.915  0.00  0.00    +0.003 A 
ATOM     33  C   UNL     1       1.464  -5.065  -8.024  0.00  0.00    +0.038 A 
ATOM     34  C   UNL     1       0.150  -5.500  -7.998  0.00  0.00    +0.124 A 
ATOM     35  C   UNL     1      -0.353  -6.112  -6.863  0.00  0.00    +0.043 A 
ATOM     36  F   UNL     1      -0.639  -5.332  -9.082  0.00  0.00    -0.205 F 
ENDBRANCH  29  30
ENDBRANCH  20  21
ENDBRANCH  19  20
ENDBRANCH   8  19
TORSDOF 6
