REMARK  Name = ZINC34779517
REMARK  9 active torsions:
REMARK  status: ('A' for Active; 'I' for Inactive)
REMARK    1  A    between atoms: C_1  and  C_2
REMARK    2  A    between atoms: C_2  and  C_3
REMARK    3  A    between atoms: C_3  and  N_4
REMARK    4  A    between atoms: C_8  and  C_23
REMARK    5  A    between atoms: C_9  and  C_19
REMARK    6  A    between atoms: N_12  and  C_15
REMARK    7  A    between atoms: C_15  and  C_16
REMARK    8  A    between atoms: C_16  and  C_18
REMARK    9  A    between atoms: N_21  and  N_22
REMARK                            x       y       z     vdW  Elec       q    Type
REMARK                         _______ _______ _______ _____ _____    ______ ____
ROOT
ATOM      1  N   UNL     1       0.738  -1.962  -1.265  0.00  0.00    -0.260 N 
ATOM      2  C   UNL     1       1.767  -2.605  -0.686  0.00  0.00    +0.265 A 
ATOM      3  O   UNL     1       2.669  -1.978  -0.162  0.00  0.00    -0.267 OA
ATOM      4  C   UNL     1       1.789  -4.089  -0.693  0.00  0.00    +0.074 A 
ATOM      5  C   UNL     1       2.752  -4.951  -0.154  0.00  0.00    -0.017 A 
ATOM      6  C   UNL     1       2.535  -6.292  -0.294  0.00  0.00    +0.081 A 
ATOM      7  S   UNL     1       0.989  -6.348  -1.177  0.00  0.00    -0.065 S 
ATOM      8  C   UNL     1       0.700  -4.708  -1.322  0.00  0.00    +0.098 A 
ATOM      9  N   UNL     1      -0.303  -3.971  -1.885  0.00  0.00    -0.283 N 
ATOM     10  C   UNL     1      -0.275  -2.626  -1.845  0.00  0.00    +0.333 A 
ATOM     11  O   UNL     1      -1.184  -1.997  -2.351  0.00  0.00    -0.246 OA
ATOM     12  C   UNL     1       3.975  -4.423   0.551  0.00  0.00    +0.046 C 
ENDROOT
BRANCH   6  13
ATOM     13  C   UNL     1       3.366  -7.406   0.166  0.00  0.00    +0.264 C 
ATOM     14  O   UNL     1       4.405  -7.185   0.761  0.00  0.00    -0.268 OA
ATOM     15  N   UNL     1       2.982  -8.676  -0.069  0.00  0.00    -0.249 N 
ATOM     16  H   UNL     1       2.154  -8.852  -0.543  0.00  0.00    +0.169 HD
BRANCH  15  17
ATOM     17  N   UNL     1       3.757  -9.715   0.360  0.00  0.00    -0.254 NA
ATOM     18  H   UNL     1       3.343 -10.602   0.113  0.00  0.00    +0.140 HD
ATOM     19  H   UNL     1       4.696  -9.641  -0.003  0.00  0.00    +0.140 HD
ENDBRANCH  15  17
ENDBRANCH   6  13
BRANCH   1  20
ATOM     20  C   UNL     1       0.718  -0.497  -1.257  0.00  0.00    +0.130 C 
BRANCH  20  22
ATOM     21  C   UNL     1      -0.019   1.526   0.010  0.00  0.00    +0.005 C 
ATOM     22  C   UNL     1       0.002  -0.004   0.002  0.00  0.00    +0.018 C 
ENDBRANCH  20  22
ENDBRANCH   1  20
BRANCH   9  23
ATOM     23  C   UNL     1      -1.425  -4.652  -2.535  0.00  0.00    +0.157 C 
BRANCH  23  24
ATOM     24  C   UNL     1      -2.515  -4.902  -1.523  0.00  0.00    -0.060 C 
ATOM     25  C   UNL     1      -3.505  -4.052  -1.405  0.00  0.00    +0.009 C 
ATOM     26  C   UNL     1      -2.465  -6.127  -0.648  0.00  0.00    +0.040 C 
ENDBRANCH  23  24
ENDBRANCH   9  23
TORSDOF 6
