REMARK  Name = ZINC32940837
REMARK  5 active torsions:
REMARK  status: ('A' for Active; 'I' for Inactive)
REMARK    1  A    between atoms: C_4  and  N_7
REMARK    2  A    between atoms: C_12  and  C_14
REMARK    3  A    between atoms: N_16  and  C_17
REMARK    4  A    between atoms: C_22  and  O_23
REMARK    5  A    between atoms: O_23  and  C_24
REMARK                            x       y       z     vdW  Elec       q    Type
REMARK                         _______ _______ _______ _____ _____    ______ ____
ROOT
ATOM      1  N   UNL     1       3.659  -1.075   0.271  0.00  0.00    -0.158 N 
ATOM      2  C   UNL     1       4.835  -0.435   0.111  0.00  0.00    +0.256 C 
ATOM      3  O   UNL     1       5.851  -1.064  -0.093  0.00  0.00    -0.272 OA
ATOM      4  C   UNL     1       4.875   1.073   0.187  0.00  0.00    +0.201 C 
ATOM      5  N   UNL     1       3.555   1.585  -0.223  0.00  0.00    -0.315 N 
ATOM      6  C   UNL     1       2.418   0.922   0.250  0.00  0.00    +0.200 C 
ATOM      7  N   UNL     1       2.477  -0.359   0.487  0.00  0.00    -0.152 NA
ATOM      8  H   UNL     1       3.486   2.463  -0.882  0.00  0.00    +0.148 HD
ENDROOT
BRANCH   1  12
ATOM      9  C   UNL     1       3.546  -5.237   0.121  0.00  0.00    +0.000 A 
ATOM     10  C   UNL     1       4.475  -4.601   0.924  0.00  0.00    +0.002 A 
ATOM     11  C   UNL     1       4.515  -3.222   0.976  0.00  0.00    +0.025 A 
ATOM     12  C   UNL     1       3.621  -2.473   0.221  0.00  0.00    +0.060 A 
ATOM     13  C   UNL     1       2.685  -3.116  -0.580  0.00  0.00    +0.025 A 
ATOM     14  C   UNL     1       2.654  -4.495  -0.632  0.00  0.00    +0.002 A 
ENDBRANCH   1  12
BRANCH   6  15
ATOM     15  C   UNL     1       1.164   1.663   0.472  0.00  0.00    +0.283 C 
ATOM     16  O   UNL     1       1.115   2.857   0.249  0.00  0.00    -0.267 OA
ATOM     17  N   UNL     1       0.071   1.016   0.923  0.00  0.00    -0.276 N 
ATOM     18  H   UNL     1       0.101  -0.072   1.081  0.00  0.00    +0.155 HD
BRANCH  17  19
ATOM     19  C   UNL     1      -1.104   1.730   1.190  0.00  0.00    +0.076 A 
ATOM     20  C   UNL     1      -1.374   2.906   0.505  0.00  0.00    +0.027 A 
ATOM     21  C   UNL     1      -2.536   3.607   0.768  0.00  0.00    +0.002 A 
ATOM     22  C   UNL     1      -3.427   3.143   1.719  0.00  0.00    +0.004 A 
ATOM     23  C   UNL     1      -3.162   1.975   2.409  0.00  0.00    +0.048 A 
ATOM     24  C   UNL     1      -2.001   1.264   2.149  0.00  0.00    +0.148 A 
BRANCH  24  25
ATOM     25  O   UNL     1      -1.739   0.115   2.827  0.00  0.00    -0.432 OA
BRANCH  25  26
ATOM     26  C   UNL     1      -2.704  -0.301   3.795  0.00  0.00    +0.541 C 
ATOM     27  F   UNL     1      -2.841   0.689   4.773  0.00  0.00    -0.166 F 
ATOM     28  F   UNL     1      -3.936  -0.510   3.166  0.00  0.00    -0.166 F 
ENDBRANCH  25  26
ENDBRANCH  24  25
ENDBRANCH  17  19
ENDBRANCH   6  15
TORSDOF 5
