REMARK  Name = ZINC63920253
REMARK  8 active torsions:
REMARK  status: ('A' for Active; 'I' for Inactive)
REMARK    1  A    between atoms: C_1  and  C_2
REMARK    2  A    between atoms: C_5  and  S_22
REMARK    3  A    between atoms: C_7  and  C_8
REMARK    4  A    between atoms: N_10  and  C_11
REMARK    5  A    between atoms: C_11  and  C_12
REMARK    6  A    between atoms: C_12  and  C_13
REMARK    7  A    between atoms: S_22  and  N_25
REMARK    8  A    between atoms: N_25  and  C_26
REMARK                            x       y       z     vdW  Elec       q    Type
REMARK                         _______ _______ _______ _____ _____    ______ ____
ROOT
ATOM      1  C   UNL     1      -0.705   1.328  -0.731  0.00  0.00    +0.044 C 
ATOM      2  C   UNL     1      -0.353  -0.112  -0.460  0.00  0.00    -0.038 A 
ATOM      3  C   UNL     1      -0.201  -0.995  -1.509  0.00  0.00    +0.006 A 
ATOM      4  C   UNL     1       0.123  -2.317  -1.262  0.00  0.00    +0.029 A 
ATOM      5  C   UNL     1       0.295  -2.763   0.036  0.00  0.00    +0.109 A 
ATOM      6  C   UNL     1       0.146  -1.890   1.094  0.00  0.00    +0.042 A 
ATOM      7  C   UNL     1      -0.175  -0.553   0.852  0.00  0.00    +0.041 A 
ENDROOT
BRANCH   7   8
ATOM      8  C   UNL     1      -0.330   0.389   1.980  0.00  0.00    +0.244 C 
ATOM      9  O   UNL     1      -0.499   1.574   1.764  0.00  0.00    -0.270 OA
ATOM     10  N   UNL     1      -0.285  -0.064   3.248  0.00  0.00    -0.311 N 
ATOM     11  H   UNL     1      -0.151  -1.009   3.421  0.00  0.00    +0.149 HD
BRANCH  10  12
ATOM     12  C   UNL     1      -0.440   0.870   4.366  0.00  0.00    +0.109 C 
BRANCH  12  13
ATOM     13  C   UNL     1      -0.350   0.103   5.687  0.00  0.00    +0.052 C 
BRANCH  13  14
ATOM     14  C   UNL     1      -0.509   1.064   6.837  0.00  0.00    -0.040 C 
ATOM     15  C   UNL     1      -1.649   1.352   7.505  0.00  0.00    -0.001 A 
ATOM     16  C   UNL     1      -3.031   0.876   7.364  0.00  0.00    +0.010 A 
ATOM     17  C   UNL     1      -3.979   1.360   8.198  0.00  0.00    +0.001 A 
ATOM     18  C   UNL     1      -3.676   2.302   9.191  0.00  0.00    +0.002 A 
ATOM     19  C   UNL     1      -2.431   2.787   9.382  0.00  0.00    +0.026 A 
ATOM     20  C   UNL     1      -1.356   2.347   8.561  0.00  0.00    +0.043 A 
ATOM     21  N   UNL     1      -0.083   2.661   8.547  0.00  0.00    -0.380 N 
ATOM     22  C   UNL     1       0.576   1.896   7.483  0.00  0.00    +0.144 C 
ATOM     23  H   UNL     1       0.351   3.291   9.144  0.00  0.00    +0.160 HD
ENDBRANCH  13  14
ENDBRANCH  12  13
ENDBRANCH  10  12
ENDBRANCH   7   8
BRANCH   5  24
ATOM     24  S   UNL     1       0.706  -4.449   0.340  0.00  0.00    +0.072 S 
ATOM     25  O   UNL     1       0.162  -4.777   1.611  0.00  0.00    -0.150 OA
ATOM     26  O   UNL     1       0.372  -5.167  -0.840  0.00  0.00    -0.150 OA
BRANCH  24  27
ATOM     27  N   UNL     1       2.353  -4.532   0.494  0.00  0.00    -0.216 N 
ATOM     28  H   UNL     1       2.747  -4.840   1.326  0.00  0.00    +0.174 HD
BRANCH  27  29
ATOM     29  C   UNL     1       3.175  -4.159  -0.573  0.00  0.00    +0.048 A 
ATOM     30  C   UNL     1       2.878  -4.584  -1.861  0.00  0.00    +0.027 A 
ATOM     31  C   UNL     1       3.691  -4.214  -2.915  0.00  0.00    +0.040 A 
ATOM     32  C   UNL     1       4.801  -3.419  -2.687  0.00  0.00    +0.124 A 
ATOM     33  C   UNL     1       5.099  -2.993  -1.403  0.00  0.00    +0.040 A 
ATOM     34  C   UNL     1       4.286  -3.357  -0.348  0.00  0.00    +0.027 A 
ATOM     35  F   UNL     1       5.596  -3.058  -3.718  0.00  0.00    -0.205 F 
ENDBRANCH  27  29
ENDBRANCH  24  27
ENDBRANCH   5  24
TORSDOF 7
