REMARK  Name = ZINC42415153
REMARK  3 active torsions:
REMARK  status: ('A' for Active; 'I' for Inactive)
REMARK    1  A    between atoms: C_1  and  C_2
REMARK    2  A    between atoms: C_2  and  C_3
REMARK    3  A    between atoms: C_2  and  C_4
REMARK                            x       y       z     vdW  Elec       q    Type
REMARK                         _______ _______ _______ _____ _____    ______ ____
ROOT
ATOM      1  C   UNL     1       0.731  -0.503   1.223  0.00  0.00    +0.053 A 
ATOM      2  C   UNL     1       0.218  -1.302   2.188  0.00  0.00    +0.058 A 
ATOM      3  C   UNL     1       1.220  -1.528   3.137  0.00  0.00    +0.149 A 
ATOM      4  N   UNL     1       2.297  -0.889   2.756  0.00  0.00    -0.181 NA
ATOM      5  N   UNL     1       2.015  -0.239   1.547  0.00  0.00    -0.280 N 
ATOM      6  H   UNL     1       2.632   0.306   1.035  0.00  0.00    +0.189 HD
ATOM      7 BR   UNL     1      -1.543  -1.988   2.244  0.00  0.00    -0.047 Br
ENDROOT
BRANCH   1   9
ATOM      8  C   UNL     1      -0.019   1.526   0.010  0.00  0.00    +0.014 C 
ATOM      9  C   UNL     1       0.002  -0.004   0.002  0.00  0.00    +0.032 C 
ATOM     10  C   UNL     1       0.718  -0.497  -1.257  0.00  0.00    +0.014 C 
ENDBRANCH   1   9
TORSDOF 1
