REMARK  Name = ZINC28683401
REMARK  10 active torsions:
REMARK  status: ('A' for Active; 'I' for Inactive)
REMARK    1  A    between atoms: C_1  and  C_2
REMARK    2  A    between atoms: C_2  and  O_3
REMARK    3  A    between atoms: O_3  and  C_4
REMARK    4  A    between atoms: C_11  and  C_18
REMARK    5  A    between atoms: C_13  and  O_14
REMARK    6  A    between atoms: C_18  and  O_19
REMARK    7  A    between atoms: O_19  and  C_20
REMARK    8  A    between atoms: C_20  and  C_22
REMARK    9  A    between atoms: C_26  and  N_27
REMARK   10  A    between atoms: C_28  and  C_30
REMARK                            x       y       z     vdW  Elec       q    Type
REMARK                         _______ _______ _______ _____ _____    ______ ____
ROOT
ATOM      1  C   UNL     1      -5.015  11.746   4.663  0.00  0.00    +0.405 C 
ATOM      2  O   UNL     1      -4.356  11.108   5.460  0.00  0.00    -0.226 OA
ATOM      3  N   UNL     1      -5.418  11.175   3.511  0.00  0.00    -0.251 N 
ATOM      4  C   UNL     1      -5.175   9.820   3.282  0.00  0.00    +0.040 A 
ATOM      5  C   UNL     1      -4.913   9.374   1.986  0.00  0.00    +0.024 A 
ATOM      6  C   UNL     1      -4.674   8.052   1.746  0.00  0.00    +0.014 A 
ATOM      7  C   UNL     1      -4.685   7.139   2.808  0.00  0.00    +0.024 A 
ATOM      8  C   UNL     1      -4.439   5.714   2.578  0.00  0.00    +0.007 A 
ATOM      9  C   UNL     1      -4.469   4.877   3.648  0.00  0.00    +0.095 A 
ATOM     10  C   UNL     1      -4.738   5.391   4.933  0.00  0.00    +0.285 A 
ATOM     11  O   UNL     1      -4.969   6.697   5.136  0.00  0.00    -0.425 OA
ATOM     12  C   UNL     1      -4.954   7.582   4.116  0.00  0.00    +0.141 A 
ATOM     13  C   UNL     1      -5.195   8.929   4.343  0.00  0.00    +0.070 A 
ATOM     14  H   UNL     1      -5.938  11.777   2.751  0.00  0.00    +0.158 HD
ENDROOT
BRANCH  10  15
ATOM     15  O   UNL     1      -4.762   4.629   5.883  0.00  0.00    -0.480 OA
ATOM     16  H   UNL     1      -4.970   5.015   6.892  0.00  0.00    +0.295 HD
ENDBRANCH  10  15
BRANCH   1  17
ATOM     17  O   UNL     1      -5.342  13.025   4.931  0.00  0.00    -0.450 OA
BRANCH  17  19
ATOM     18  C   UNL     1      -5.341  15.026   6.319  0.00  0.00    +0.048 C 
ATOM     19  C   UNL     1      -4.875  13.574   6.191  0.00  0.00    +0.230 C 
ENDBRANCH  17  19
ENDBRANCH   1  17
BRANCH   8  20
ATOM     20  C   UNL     1      -4.153   5.191   1.194  0.00  0.00    +0.269 C 
BRANCH  20  21
ATOM     21  O   UNL     1      -3.941   3.756   1.253  0.00  0.00    -0.456 OA
BRANCH  21  22
ATOM     22  C   UNL     1      -3.672   3.128   0.090  0.00  0.00    +0.342 C 
ATOM     23  O   UNL     1      -3.616   3.764  -0.946  0.00  0.00    -0.245 OA
BRANCH  22  24
ATOM     24  C   UNL     1      -3.447   1.681   0.073  0.00  0.00    +0.091 A 
ATOM     25  C   UNL     1      -4.546   0.750  -0.120  0.00  0.00    -0.021 A 
ATOM     26  C   UNL     1      -4.202  -0.556  -0.106  0.00  0.00    -0.004 A 
ATOM     27  S   UNL     1      -2.450  -0.560   0.150  0.00  0.00    -0.077 S 
ATOM     28  C   UNL     1      -2.175   1.148   0.238  0.00  0.00    +0.086 A 
ATOM     29  C   UNL     1      -5.114  -1.732  -0.272  0.00  0.00    +0.043 C 
ATOM     30  C   UNL     1      -6.561  -1.252  -0.088  0.00  0.00    +0.005 C 
ATOM     31  C   UNL     1      -6.772   0.010  -0.930  0.00  0.00    +0.005 C 
ATOM     32  C   UNL     1      -5.994   1.178  -0.321  0.00  0.00    +0.037 C 
BRANCH  28  33
ATOM     33  N   UNL     1      -0.978   1.819   0.432  0.00  0.00    -0.280 N 
ATOM     34  C   UNL     1       0.167   1.125   0.580  0.00  0.00    +0.214 C 
ATOM     35  O   UNL     1       0.151  -0.087   0.542  0.00  0.00    -0.276 OA
ATOM     36  C   UNL     1       1.470   1.855   0.784  0.00  0.00    +0.109 C 
ATOM     37  H   UNL     1      -0.963   2.919   0.466  0.00  0.00    +0.155 HD
ENDBRANCH  28  33
ENDBRANCH  22  24
ENDBRANCH  21  22
ENDBRANCH  20  21
ENDBRANCH   8  20
TORSDOF 8
