REMARK  Name = ZINC06533257
REMARK  8 active torsions:
REMARK  status: ('A' for Active; 'I' for Inactive)
REMARK    1  A    between atoms: C_1  and  C_2
REMARK    2  A    between atoms: C_4  and  C_15
REMARK    3  A    between atoms: C_5  and  C_14
REMARK    4  A    between atoms: N_6  and  C_7
REMARK    5  A    between atoms: C_15  and  C_17
REMARK    6  A    between atoms: C_17  and  S_18
REMARK    7  A    between atoms: S_18  and  C_19
REMARK    8  A    between atoms: C_23  and  N_25
REMARK                            x       y       z     vdW  Elec       q    Type
REMARK                         _______ _______ _______ _____ _____    ______ ____
ROOT
ATOM      1  C   UNL     1      -2.186   4.800   0.038  0.00  0.00    +0.175 C 
ATOM      2  O   UNL     1      -3.310   4.342   0.041  0.00  0.00    -0.291 OA
ENDROOT
BRANCH   1   6
ATOM      3  C   UNL     1       0.003   9.401   0.052  0.00  0.00    +0.064 C 
ATOM      4  C   UNL     1      -1.001   8.278   0.051  0.00  0.00    +0.022 A 
ATOM      5  C   UNL     1      -0.704   6.968   0.043  0.00  0.00    +0.034 A 
ATOM      6  C   UNL     1      -1.986   6.251   0.045  0.00  0.00    +0.039 A 
ATOM      7  C   UNL     1      -2.966   7.226   0.050  0.00  0.00    +0.031 A 
ATOM      8  N   UNL     1      -2.360   8.429   0.059  0.00  0.00    -0.317 N 
ATOM      9  C   UNL     1      -4.454   6.985   0.048  0.00  0.00    +0.064 C 
BRANCH   8  10
ATOM     10  C   UNL     1      -3.028   9.662   0.070  0.00  0.00    +0.047 A 
ATOM     11  C   UNL     1      -3.804  10.022   1.163  0.00  0.00    +0.027 A 
ATOM     12  C   UNL     1      -4.458  11.239   1.173  0.00  0.00    +0.022 A 
ATOM     13  C   UNL     1      -4.347  12.094   0.090  0.00  0.00    +0.041 A 
ATOM     14  C   UNL     1      -3.578  11.735  -1.002  0.00  0.00    +0.022 A 
ATOM     15  C   UNL     1      -2.918  10.521  -1.015  0.00  0.00    +0.027 A 
ATOM     16 CL   UNL     1      -5.176  13.619   0.103  0.00  0.00    -0.084 Cl
ENDBRANCH   8  10
ENDBRANCH   1   6
BRANCH   1  17
ATOM     17  C   UNL     1      -0.996   3.876   0.028  0.00  0.00    +0.157 C 
BRANCH  17  18
ATOM     18  S   UNL     1      -1.566   2.158   0.021  0.00  0.00    -0.078 S 
BRANCH  18  19
ATOM     19  C   UNL     1      -0.016   1.321   0.009  0.00  0.00    +0.192 A 
ATOM     20  N   UNL     1       1.102   2.033   0.003  0.00  0.00    -0.207 NA
ATOM     21  C   UNL     1       2.291   1.435  -0.012  0.00  0.00    +0.122 A 
ATOM     22  C   UNL     1       2.349   0.044  -0.020  0.00  0.00    +0.086 A 
ATOM     23  C   UNL     1       1.154  -0.670  -0.013  0.00  0.00    +0.122 A 
ATOM     24  N   UNL     1       0.002  -0.004   0.002  0.00  0.00    -0.207 NA
ATOM     25  N   UNL     1       3.455   2.187  -0.019  0.00  0.00    -0.343 N 
ATOM     26  H   UNL     1       4.318   1.744  -0.029  0.00  0.00    +0.144 HD
ATOM     27  H   UNL     1       3.407   3.155  -0.013  0.00  0.00    +0.144 HD
BRANCH  23  28
ATOM     28  N   UNL     1       1.164  -2.056  -0.020  0.00  0.00    -0.343 N 
ATOM     29  H   UNL     1       0.328  -2.547  -0.014  0.00  0.00    +0.144 HD
ATOM     30  H   UNL     1       2.008  -2.535  -0.030  0.00  0.00    +0.144 HD
ENDBRANCH  23  28
ENDBRANCH  18  19
ENDBRANCH  17  18
ENDBRANCH   1  17
TORSDOF 6
