REMARK  Name = ZINC30600354
REMARK  7 active torsions:
REMARK  status: ('A' for Active; 'I' for Inactive)
REMARK    1  A    between atoms: C_1  and  N_2
REMARK    2  A    between atoms: C_4  and  C_11
REMARK    3  A    between atoms: N_13  and  N_14
REMARK    4  A    between atoms: C_15  and  C_17
REMARK    5  A    between atoms: C_22  and  O_23
REMARK    6  A    between atoms: O_23  and  C_24
REMARK    7  A    between atoms: C_24  and  C_25
REMARK                            x       y       z     vdW  Elec       q    Type
REMARK                         _______ _______ _______ _____ _____    ______ ____
ROOT
ATOM      1  C   UNL     1      -6.026  -0.728   0.058  0.00  0.00    +0.262 C 
ATOM      2  O   UNL     1      -6.002  -1.945   0.050  0.00  0.00    -0.269 OA
ATOM      3  N   UNL     1      -4.872  -0.032   0.050  0.00  0.00    -0.230 N 
ATOM      4  H   UNL     1      -4.894   1.068   0.057  0.00  0.00    +0.173 HD
ENDROOT
BRANCH   1   8
ATOM      5  C   UNL     1      -9.395   2.961   0.113  0.00  0.00    +0.149 C 
ATOM      6  N   UNL     1      -8.825   1.611   0.099  0.00  0.00    -0.349 N 
ATOM      7  C   UNL     1      -7.499   1.332   0.084  0.00  0.00    +0.099 A 
ATOM      8  C   UNL     1      -7.312  -0.019   0.075  0.00  0.00    +0.063 A 
ATOM      9  C   UNL     1      -8.656  -0.627   0.078  0.00  0.00    +0.012 A 
ATOM     10  C   UNL     1      -9.563   0.445   0.099  0.00  0.00    +0.050 A 
ATOM     11  C   UNL     1     -10.928   0.182   0.111  0.00  0.00    +0.026 A 
ATOM     12  C   UNL     1     -11.378  -1.120   0.108  0.00  0.00    +0.002 A 
ATOM     13  C   UNL     1     -10.481  -2.178   0.093  0.00  0.00    +0.001 A 
ATOM     14  C   UNL     1      -9.124  -1.938   0.081  0.00  0.00    +0.011 A 
ENDBRANCH   1   8
BRANCH   3  15
ATOM     15  N   UNL     1      -3.646  -0.708   0.034  0.00  0.00    -0.230 N 
ATOM     16  C   UNL     1      -2.492  -0.012   0.027  0.00  0.00    +0.264 C 
ATOM     17  O   UNL     1      -2.515   1.204   0.034  0.00  0.00    -0.269 OA
ATOM     18  H   UNL     1      -3.624  -1.808   0.027  0.00  0.00    +0.173 HD
BRANCH  16  19
ATOM     19  C   UNL     1      -1.200  -0.724   0.010  0.00  0.00    +0.080 A 
ATOM     20  C   UNL     1      -1.168  -2.121   0.001  0.00  0.00    +0.017 A 
ATOM     21  C   UNL     1       0.042  -2.780  -0.014  0.00  0.00    +0.001 A 
ATOM     22  C   UNL     1       1.228  -2.065  -0.022  0.00  0.00    +0.004 A 
ATOM     23  C   UNL     1       1.211  -0.684  -0.019  0.00  0.00    +0.046 A 
ATOM     24  C   UNL     1       0.002  -0.004   0.002  0.00  0.00    +0.133 A 
BRANCH  24  25
ATOM     25  O   UNL     1      -0.016   1.352   0.009  0.00  0.00    -0.487 OA
BRANCH  25  26
ATOM     26  C   UNL     1       1.248   2.018   0.001  0.00  0.00    +0.256 C 
BRANCH  26  27
ATOM     27  C   UNL     1       1.030   3.510   0.011  0.00  0.00    +0.006 C 
ATOM     28  C   UNL     1       1.737   4.269   0.811  0.00  0.00    +0.007 C 
ENDBRANCH  26  27
ENDBRANCH  25  26
ENDBRANCH  24  25
ENDBRANCH  16  19
ENDBRANCH   3  15
TORSDOF 6
