REMARK  Name = ZINC41674315
REMARK  6 active torsions:
REMARK  status: ('A' for Active; 'I' for Inactive)
REMARK    1  A    between atoms: C_1  and  C_2
REMARK    2  A    between atoms: C_6  and  C_7
REMARK    3  A    between atoms: C_7  and  C_9
REMARK    4  A    between atoms: C_7  and  N_16
REMARK    5  A    between atoms: C_11  and  C_15
REMARK    6  A    between atoms: C_12  and  C_14
REMARK                            x       y       z     vdW  Elec       q    Type
REMARK                         _______ _______ _______ _____ _____    ______ ____
ROOT
ATOM      1  C   UNL     1       0.030  -0.179   2.581  0.00  0.00    +0.145 C 
ENDROOT
BRANCH   1   2
ATOM      2  C   UNL     1       1.410  -0.333   3.166  0.00  0.00    +0.100 A 
ATOM      3  N   UNL     1       2.001  -1.426   3.580  0.00  0.00    -0.247 NA
ATOM      4  C   UNL     1       3.223  -1.400   4.072  0.00  0.00    +0.049 A 
ATOM      5  C   UNL     1       3.839  -0.192   4.128  0.00  0.00    +0.009 A 
ATOM      6  S   UNL     1       2.569   0.857   3.437  0.00  0.00    -0.075 S 
ATOM      7  C   UNL     1       5.214   0.166   4.630  0.00  0.00    +0.053 C 
ATOM      8  C   UNL     1       3.906  -2.655   4.551  0.00  0.00    +0.066 C 
ENDBRANCH   1   2
BRANCH   1  14
ATOM      9  C   UNL     1      -0.018   1.503   0.010  0.00  0.00    +0.044 C 
ATOM     10  C   UNL     1       0.002  -0.004   0.002  0.00  0.00    -0.038 A 
ATOM     11  C   UNL     1       0.006  -0.699  -1.193  0.00  0.00    +0.011 A 
ATOM     12  C   UNL     1       0.024  -2.054  -1.165  0.00  0.00    +0.046 A 
ATOM     13  S   UNL     1       0.037  -2.387   0.589  0.00  0.00    -0.099 S 
ATOM     14  C   UNL     1       0.023  -0.698   1.166  0.00  0.00    +0.016 A 
ENDBRANCH   1  14
BRANCH   1  15
ATOM     15  N   UNL     1      -0.932  -0.942   3.388  0.00  0.00    -0.318 NA
ATOM     16  H   UNL     1      -1.874  -0.803   3.054  0.00  0.00    +0.119 HD
ATOM     17  H   UNL     1      -0.694  -1.922   3.402  0.00  0.00    +0.119 HD
ENDBRANCH   1  15
TORSDOF 3
