REMARK  Name = ZINC00832049
REMARK  12 active torsions:
REMARK  status: ('A' for Active; 'I' for Inactive)
REMARK    1  A    between atoms: C_1  and  C_2
REMARK    2  A    between atoms: C_5  and  S_8
REMARK    3  A    between atoms: S_8  and  N_11
REMARK    4  A    between atoms: N_11  and  C_12
REMARK    5  A    between atoms: N_11  and  C_30
REMARK    6  A    between atoms: C_12  and  C_13
REMARK    7  A    between atoms: N_15  and  C_16
REMARK    8  A    between atoms: C_17  and  C_29
REMARK    9  A    between atoms: N_18  and  C_28
REMARK   10  A    between atoms: N_19  and  C_22
REMARK   11  A    between atoms: C_33  and  O_36
REMARK   12  A    between atoms: O_36  and  C_37
REMARK                            x       y       z     vdW  Elec       q    Type
REMARK                         _______ _______ _______ _____ _____    ______ ____
ROOT
ATOM      1  N   UNL     1       2.151  -5.570  -0.894  0.00  0.00    -0.194 N 
ENDROOT
BRANCH   1   2
ATOM      2  C   UNL     1       2.904  -6.086  -1.956  0.00  0.00    +0.052 A 
ATOM      3  C   UNL     1       4.179  -5.598  -2.205  0.00  0.00    +0.028 A 
ATOM      4  C   UNL     1       4.921  -6.109  -3.252  0.00  0.00    +0.047 A 
ATOM      5  C   UNL     1       4.392  -7.109  -4.054  0.00  0.00    +0.120 A 
ATOM      6  C   UNL     1       3.118  -7.597  -3.806  0.00  0.00    +0.047 A 
ATOM      7  C   UNL     1       2.377  -7.091  -2.756  0.00  0.00    +0.028 A 
BRANCH   5   8
ATOM      8  O   UNL     1       5.123  -7.611  -5.085  0.00  0.00    -0.495 OA
ATOM      9  C   UNL     1       4.516  -8.639  -5.870  0.00  0.00    +0.277 C 
ENDBRANCH   5   8
ENDBRANCH   1   2
BRANCH   1  10
ATOM     10  S   UNL     1       0.735  -4.767  -1.197  0.00  0.00    +0.075 S 
ATOM     11  O   UNL     1      -0.101  -4.979  -0.068  0.00  0.00    -0.150 OA
ATOM     12  O   UNL     1       0.340  -5.123  -2.515  0.00  0.00    -0.150 OA
BRANCH  10  17
ATOM     13  C   UNL     1       2.010   1.129  -1.314  0.00  0.00    +0.044 C 
ATOM     14  C   UNL     1       1.692  -0.344  -1.284  0.00  0.00    -0.050 A 
ATOM     15  C   UNL     1       1.759  -1.089  -2.447  0.00  0.00    +0.005 A 
ATOM     16  C   UNL     1       1.467  -2.439  -2.421  0.00  0.00    +0.029 A 
ATOM     17  C   UNL     1       1.108  -3.046  -1.231  0.00  0.00    +0.109 A 
ATOM     18  C   UNL     1       1.042  -2.301  -0.068  0.00  0.00    +0.029 A 
ATOM     19  C   UNL     1       1.338  -0.951  -0.094  0.00  0.00    +0.005 A 
ENDBRANCH  10  17
ENDBRANCH   1  10
BRANCH   1  20
ATOM     20  C   UNL     1       2.617  -5.739   0.484  0.00  0.00    +0.227 C 
BRANCH  20  21
ATOM     21  C   UNL     1       2.166  -7.078   1.006  0.00  0.00    +0.237 C 
ATOM     22  O   UNL     1       1.519  -7.819   0.296  0.00  0.00    -0.274 OA
ATOM     23  N   UNL     1       2.481  -7.453   2.262  0.00  0.00    -0.278 N 
ATOM     24  H   UNL     1       2.932  -6.832   2.855  0.00  0.00    +0.155 HD
BRANCH  23  25
ATOM     25  C   UNL     1       2.156  -8.748   2.713  0.00  0.00    +0.121 A 
ATOM     26  C   UNL     1       3.014  -9.655   3.233  0.00  0.00    +0.059 A 
ATOM     27  N   UNL     1       2.313 -10.788   3.549  0.00  0.00    -0.282 N 
ATOM     28  N   UNL     1       0.965 -10.601   3.222  0.00  0.00    -0.216 N 
ATOM     29  C   UNL     1       0.827  -9.360   2.712  0.00  0.00    +0.293 A 
ATOM     30  O   UNL     1      -0.207  -8.847   2.322  0.00  0.00    -0.264 OA
ATOM     31  C   UNL     1       2.883 -12.003   4.137  0.00  0.00    +0.171 C 
ATOM     32  C   UNL     1       4.494  -9.453   3.431  0.00  0.00    +0.067 C 
BRANCH  28  33
ATOM     33  C   UNL     1      -0.060 -11.535   3.398  0.00  0.00    +0.067 A 
ATOM     34  C   UNL     1      -0.928 -11.821   2.352  0.00  0.00    +0.028 A 
ATOM     35  C   UNL     1      -1.940 -12.745   2.529  0.00  0.00    +0.002 A 
ATOM     36  C   UNL     1      -2.090 -13.384   3.746  0.00  0.00    +0.000 A 
ATOM     37  C   UNL     1      -1.228 -13.101   4.790  0.00  0.00    +0.002 A 
ATOM     38  C   UNL     1      -0.210 -12.183   4.617  0.00  0.00    +0.028 A 
ENDBRANCH  28  33
ENDBRANCH  23  25
ENDBRANCH  20  21
ENDBRANCH   1  20
TORSDOF 8
