REMARK  Name = ZINC29591145
REMARK  6 active torsions:
REMARK  status: ('A' for Active; 'I' for Inactive)
REMARK    1  A    between atoms: C_1  and  C_2
REMARK    2  A    between atoms: C_2  and  C_4
REMARK    3  A    between atoms: C_2  and  S_20
REMARK    4  A    between atoms: C_10  and  C_15
REMARK    5  A    between atoms: S_20  and  C_21
REMARK    6  A    between atoms: C_24  and  C_26
REMARK                            x       y       z     vdW  Elec       q    Type
REMARK                         _______ _______ _______ _____ _____    ______ ____
ROOT
ATOM      1  C   UNL     1      -0.019   1.526   0.010  0.00  0.00    +0.027 C 
ATOM      2  C   UNL     1       0.002  -0.004   0.002  0.00  0.00    +0.119 C 
ENDROOT
BRANCH   2   3
ATOM      3  C   UNL     1       0.731  -0.503   1.223  0.00  0.00    +0.124 A 
ATOM      4  N   UNL     1       2.053  -0.799   1.136  0.00  0.00    -0.309 N 
ATOM      5  H   UNL     1       2.511  -0.685   0.289  0.00  0.00    +0.170 HD
ATOM      6  C   UNL     1       2.741  -1.247   2.203  0.00  0.00    +0.260 A 
ATOM      7  O   UNL     1       3.928  -1.508   2.109  0.00  0.00    -0.267 OA
ATOM      8  C   UNL     1       2.057  -1.413   3.449  0.00  0.00    +0.083 A 
ATOM      9  C   UNL     1       2.576  -1.876   4.732  0.00  0.00    +0.039 A 
ATOM     10  C   UNL     1       1.727  -1.951   5.788  0.00  0.00    +0.059 A 
ATOM     11  S   UNL     1       0.174  -1.398   5.111  0.00  0.00    -0.076 S 
ATOM     12  C   UNL     1       0.693  -1.082   3.443  0.00  0.00    +0.116 A 
ATOM     13  N   UNL     1       0.081  -0.639   2.348  0.00  0.00    -0.225 NA
BRANCH   9  14
ATOM     14  C   UNL     1       3.995  -2.257   4.877  0.00  0.00    +0.136 A 
ATOM     15  C   UNL     1       4.842  -1.826   5.851  0.00  0.00    +0.050 A 
ATOM     16  C   UNL     1       6.089  -2.438   5.605  0.00  0.00    +0.042 A 
ATOM     17  C   UNL     1       5.943  -3.203   4.506  0.00  0.00    +0.196 A 
ATOM     18  O   UNL     1       4.675  -3.096   4.072  0.00  0.00    -0.463 OA
ENDBRANCH   9  14
ENDBRANCH   2   3
BRANCH   2  19
ATOM     19  S   UNL     1      -1.700  -0.632   0.015  0.00  0.00    -0.055 S 
BRANCH  19  20
ATOM     20  C   UNL     1      -2.365  -0.093  -1.525  0.00  0.00    +0.278 A 
ATOM     21  N   UNL     1      -1.735   0.597  -2.446  0.00  0.00    -0.101 NA
ATOM     22  N   UNL     1      -2.529   0.811  -3.435  0.00  0.00    -0.108 NA
ATOM     23  C   UNL     1      -3.687   0.272  -3.189  0.00  0.00    +0.262 A 
ATOM     24  O   UNL     1      -3.612  -0.319  -1.979  0.00  0.00    -0.412 OA
BRANCH  23  25
ATOM     25  C   UNL     1      -4.891   0.297  -4.094  0.00  0.00    +0.297 C 
ATOM     26  C   UNL     1      -4.680  -0.673  -5.264  0.00  0.00    +0.283 C 
ATOM     27  O   UNL     1      -5.834  -0.614  -6.109  0.00  0.00    -0.484 OA
ATOM     28  C   UNL     1      -6.297   0.626  -6.425  0.00  0.00    +0.162 A 
ATOM     29  C   UNL     1      -7.159   0.777  -7.502  0.00  0.00    +0.049 A 
ATOM     30  C   UNL     1      -7.640   2.030  -7.833  0.00  0.00    +0.004 A 
ATOM     31  C   UNL     1      -7.264   3.135  -7.093  0.00  0.00    +0.004 A 
ATOM     32  C   UNL     1      -6.405   2.992  -6.020  0.00  0.00    +0.049 A 
ATOM     33  C   UNL     1      -5.917   1.738  -5.683  0.00  0.00    +0.163 A 
ATOM     34  O   UNL     1      -5.066   1.614  -4.628  0.00  0.00    -0.472 OA
ENDBRANCH  23  25
ENDBRANCH  19  20
ENDBRANCH   2  19
TORSDOF 5
