REMARK  Name = ZINC27102258
REMARK  14 active torsions:
REMARK  status: ('A' for Active; 'I' for Inactive)
REMARK    1  A    between atoms: C_1  and  C_2
REMARK    2  A    between atoms: C_2  and  N_3
REMARK    3  A    between atoms: N_3  and  C_4
REMARK    4  A    between atoms: N_3  and  C_6
REMARK    5  A    between atoms: C_4  and  C_5
REMARK    6  A    between atoms: C_6  and  C_7
REMARK    7  A    between atoms: C_7  and  C_8
REMARK    8  A    between atoms: C_8  and  C_9
REMARK    9  A    between atoms: C_9  and  C_11
REMARK   10  A    between atoms: C_9  and  N_12
REMARK   11  A    between atoms: C_13  and  C_15
REMARK   12  A    between atoms: C_15  and  O_16
REMARK   13  A    between atoms: O_16  and  C_17
REMARK   14  A    between atoms: C_25  and  C_28
REMARK                            x       y       z     vdW  Elec       q    Type
REMARK                         _______ _______ _______ _____ _____    ______ ____
ROOT
ATOM      1  C   UNL     1       0.088   1.306   0.046  0.00  0.00    +0.125 A 
ATOM      2  C   UNL     1      -1.120   2.000   0.061  0.00  0.00    +0.046 A 
ATOM      3  C   UNL     1      -1.130   3.366   0.083  0.00  0.00    +0.019 A 
ATOM      4  C   UNL     1       0.076   4.067   0.078  0.00  0.00    +0.065 A 
ATOM      5  C   UNL     1       1.300   3.377   0.057  0.00  0.00    +0.142 A 
ATOM      6  C   UNL     1       1.293   1.988   0.041  0.00  0.00    +0.092 A 
ATOM      7  O   UNL     1       2.464   4.056   0.052  0.00  0.00    -0.462 OA
ATOM      8  C   UNL     1       2.535   5.389   0.067  0.00  0.00    +0.208 A 
ATOM      9  C   UNL     1       1.431   6.179   0.088  0.00  0.00    +0.064 A 
ATOM     10  C   UNL     1       0.104   5.541   0.095  0.00  0.00    +0.200 A 
ATOM     11  O   UNL     1      -0.922   6.199   0.114  0.00  0.00    -0.286 OA
ENDROOT
BRANCH   9  12
ATOM     12  C   UNL     1       1.559   7.657   0.104  0.00  0.00    -0.011 A 
ATOM     13  C   UNL     1       0.842   8.431  -0.807  0.00  0.00    +0.010 A 
ATOM     14  C   UNL     1       0.961   9.805  -0.786  0.00  0.00    +0.020 A 
ATOM     15  C   UNL     1       1.800  10.415   0.131  0.00  0.00    +0.041 A 
ATOM     16  C   UNL     1       2.518   9.651   1.035  0.00  0.00    +0.020 A 
ATOM     17  C   UNL     1       2.402   8.276   1.025  0.00  0.00    +0.010 A 
ATOM     18 CL   UNL     1       1.951  12.145   0.149  0.00  0.00    -0.084 Cl
ENDBRANCH   9  12
BRANCH   1  19
ATOM     19  O   UNL     1       0.083  -0.051   0.030  0.00  0.00    -0.483 OA
BRANCH  19  20
ATOM     20  C   UNL     1      -1.192  -0.696   0.036  0.00  0.00    +0.324 C 
BRANCH  20  22
ATOM     21  N   UNL     1      -2.071  -3.008   0.019  0.00  0.00    -0.310 N 
ATOM     22  C   UNL     1      -1.000  -2.190   0.017  0.00  0.00    +0.251 C 
ATOM     23  O   UNL     1       0.119  -2.658  -0.001  0.00  0.00    -0.272 OA
ATOM     24  H   UNL     1      -3.087  -2.584   0.035  0.00  0.00    +0.149 HD
BRANCH  21  25
ATOM     25  C   UNL     1      -1.885  -4.461  -0.000  0.00  0.00    +0.070 C 
ATOM     26  C   UNL     1      -1.710  -4.934  -1.445  0.00  0.00    +0.028 C 
BRANCH  25  27
ATOM     27  C   UNL     1      -3.109  -5.141   0.615  0.00  0.00    +0.020 C 
BRANCH  27  28
ATOM     28  C   UNL     1      -3.212  -4.765   2.095  0.00  0.00    -0.017 C 
BRANCH  28  29
ATOM     29  C   UNL     1      -4.437  -5.445   2.710  0.00  0.00    -0.079 C 
BRANCH  29  30
ATOM     30  N   UNL     1      -4.467  -5.185   4.155  0.00  0.00    +0.379 N 
ATOM     31  H   UNL     1      -3.442  -5.294   4.540  0.00  0.00    -0.082 HD
BRANCH  30  33
ATOM     32  C   UNL     1      -4.693  -3.498   5.915  0.00  0.00    -0.017 C 
ATOM     33  C   UNL     1      -4.910  -3.813   4.434  0.00  0.00    -0.082 C 
ENDBRANCH  30  33
BRANCH  30  34
ATOM     34  C   UNL     1      -5.315  -6.163   4.848  0.00  0.00    -0.082 C 
ATOM     35  C   UNL     1      -4.575  -7.499   4.950  0.00  0.00    -0.017 C 
ENDBRANCH  30  34
ENDBRANCH  29  30
ENDBRANCH  28  29
ENDBRANCH  27  28
ENDBRANCH  25  27
ENDBRANCH  21  25
ENDBRANCH  20  22
ENDBRANCH  19  20
ENDBRANCH   1  19
TORSDOF 11
