REMARK  Name = ZINC65404123
REMARK  5 active torsions:
REMARK  status: ('A' for Active; 'I' for Inactive)
REMARK    1  A    between atoms: C_1  and  N_2
REMARK    2  A    between atoms: N_2  and  C_3
REMARK    3  A    between atoms: C_3  and  C_4
REMARK    4  A    between atoms: C_7  and  C_9
REMARK    5  A    between atoms: C_14  and  C_16
REMARK                            x       y       z     vdW  Elec       q    Type
REMARK                         _______ _______ _______ _____ _____    ______ ____
ROOT
ATOM      1  C   UNL     1      -0.018   1.461   0.010  0.00  0.00    +0.132 C 
ATOM      2  N   UNL     1       0.002  -0.004   0.002  0.00  0.00    -0.297 N 
ATOM      3  C   UNL     1       0.000  -0.672  -1.169  0.00  0.00    +0.238 C 
ATOM      4  O   UNL     1       0.017  -1.884  -1.175  0.00  0.00    -0.273 OA
ENDROOT
BRANCH   3   5
ATOM      5  C   UNL     1      -0.023   0.089  -2.470  0.00  0.00    +0.183 C 
ATOM      6  C   UNL     1       1.236   0.920  -2.624  0.00  0.00    +0.020 C 
ATOM      7  C   UNL     1       1.969   0.336  -3.539  0.00  0.00    +0.003 C 
ATOM      8  C   UNL     1       3.284   0.792  -4.114  0.00  0.00    -0.030 C 
ATOM      9  N   UNL     1       4.383  -0.063  -3.730  0.00  0.00    +0.383 N 
ATOM     10  C   UNL     1       4.474  -1.337  -4.428  0.00  0.00    -0.081 C 
ATOM     11  C   UNL     1       3.321  -2.248  -3.998  0.00  0.00    +0.001 C 
ATOM     12  C   UNL     1       2.061  -1.844  -4.782  0.00  0.00    +0.122 C 
ATOM     13  N   UNL     1       1.342  -0.842  -4.009  0.00  0.00    -0.272 N 
ATOM     14  N   UNL     1       0.032  -0.843  -3.620  0.00  0.00    -0.225 NA
ATOM     15  H   UNL     1       5.243   0.442  -3.883  0.00  0.00    -0.085 HD
ATOM     16  H   UNL     1      -0.569  -0.530  -4.368  0.00  0.00    +0.146 HD
ATOM     17  H   UNL     1       4.305  -0.251  -2.741  0.00  0.00    -0.085 HD
ENDBRANCH   3   5
BRANCH   2  18
ATOM     18  C   UNL     1       0.024  -0.743   1.267  0.00  0.00    +0.160 C 
BRANCH  18  19
ATOM     19  C   UNL     1      -1.389  -1.016   1.714  0.00  0.00    +0.064 C 
ATOM     20  N   UNL     1      -2.477  -0.674   1.103  0.00  0.00    -0.156 NA
ATOM     21  N   UNL     1      -3.620  -1.079   1.783  0.00  0.00    -0.153 NA
ATOM     22  C   UNL     1      -3.335  -1.717   2.890  0.00  0.00    +0.083 C 
ATOM     23  C   UNL     1      -1.821  -1.752   2.966  0.00  0.00    +0.112 C 
BRANCH  22  24
ATOM     24  C   UNL     1      -4.250  -2.265   3.822  0.00  0.00    +0.036 A 
ATOM     25  C   UNL     1      -5.639  -2.267   3.788  0.00  0.00    +0.017 A 
ATOM     26  C   UNL     1      -6.260  -2.885   4.848  0.00  0.00    +0.008 A 
ATOM     27  C   UNL     1      -5.501  -3.435   5.827  0.00  0.00    +0.046 A 
ATOM     28  S   UNL     1      -3.921  -3.140   5.340  0.00  0.00    -0.095 S 
ENDBRANCH  22  24
ENDBRANCH  18  19
ENDBRANCH   2  18
TORSDOF 4
