REMARK  Name = ZINC40447707
REMARK  12 active torsions:
REMARK  status: ('A' for Active; 'I' for Inactive)
REMARK    1  A    between atoms: C_1  and  C_2
REMARK    2  A    between atoms: C_2  and  C_3
REMARK    3  A    between atoms: C_7  and  C_9
REMARK    4  A    between atoms: N_11  and  C_12
REMARK    5  A    between atoms: C_12  and  C_14
REMARK    6  A    between atoms: C_12  and  C_30
REMARK    7  A    between atoms: C_16  and  O_29
REMARK    8  A    between atoms: C_18  and  O_28
REMARK    9  A    between atoms: C_20  and  O_27
REMARK   10  A    between atoms: C_22  and  S_25
REMARK   11  A    between atoms: S_25  and  C_26
REMARK   12  A    between atoms: C_30  and  C_32
REMARK                            x       y       z     vdW  Elec       q    Type
REMARK                         _______ _______ _______ _____ _____    ______ ____
ROOT
ATOM      1  C   UNL     1       5.919   1.380   2.130  0.00  0.00    +0.122 C 
ENDROOT
BRANCH   1   2
ATOM      2  C   UNL     1       6.087   2.739   1.447  0.00  0.00    +0.172 C 
ATOM      3  C   UNL     1       5.075   3.730   2.027  0.00  0.00    +0.176 C 
ATOM      4  C   UNL     1       5.358   3.922   3.520  0.00  0.00    +0.177 C 
ATOM      5  C   UNL     1       6.804   4.396   3.697  0.00  0.00    +0.184 C 
ATOM      6  C   UNL     1       7.749   3.379   3.053  0.00  0.00    +0.207 C 
ATOM      7  O   UNL     1       7.412   3.224   1.673  0.00  0.00    -0.356 OA
BRANCH   6   8
ATOM      8  S   UNL     1       9.459   3.966   3.196  0.00  0.00    -0.131 S 
ATOM      9  C   UNL     1      10.450   2.599   2.534  0.00  0.00    +0.087 C 
ENDBRANCH   6   8
BRANCH   5  10
ATOM     10  O   UNL     1       6.970   5.669   3.069  0.00  0.00    -0.386 OA
ATOM     11  H   UNL     1       7.864   6.030   3.142  0.00  0.00    +0.210 HD
ENDBRANCH   5  10
BRANCH   4  12
ATOM     12  O   UNL     1       4.464   4.901   4.054  0.00  0.00    -0.386 OA
ATOM     13  H   UNL     1       4.587   5.073   4.997  0.00  0.00    +0.210 HD
ENDBRANCH   4  12
BRANCH   3  14
ATOM     14  O   UNL     1       5.195   4.984   1.351  0.00  0.00    -0.387 OA
ATOM     15  H   UNL     1       4.582   5.662   1.669  0.00  0.00    +0.210 HD
ENDBRANCH   3  14
ENDBRANCH   1   2
BRANCH   1  18
ATOM     16  C   UNL     1       4.006   0.009   2.763  0.00  0.00    +0.263 C 
ATOM     17  O   UNL     1       4.633  -0.364   3.735  0.00  0.00    -0.269 OA
ATOM     18  N   UNL     1       4.560   0.882   1.899  0.00  0.00    -0.303 N 
ATOM     19  H   UNL     1       4.060   1.181   1.123  0.00  0.00    +0.149 HD
BRANCH  16  24
ATOM     20  C   UNL     1       0.731  -0.503   1.223  0.00  0.00    +0.042 A 
ATOM     21  C   UNL     1       0.105  -1.401   2.073  0.00  0.00    +0.023 A 
ATOM     22  C   UNL     1       0.779  -1.857   3.195  0.00  0.00    +0.004 A 
ATOM     23  C   UNL     1       2.065  -1.395   3.427  0.00  0.00    +0.033 A 
ATOM     24  C   UNL     1       2.632  -0.494   2.530  0.00  0.00    +0.126 A 
ATOM     25  N   UNL     1       1.954  -0.086   1.464  0.00  0.00    -0.247 NA
BRANCH  20  27
ATOM     26  C   UNL     1      -0.019   1.526   0.010  0.00  0.00    +0.010 C 
ATOM     27  C   UNL     1       0.002  -0.004   0.002  0.00  0.00    +0.052 C 
ENDBRANCH  20  27
ENDBRANCH  16  24
ENDBRANCH   1  18
BRANCH   1  28
ATOM     28  C   UNL     1       6.930   0.389   1.551  0.00  0.00    +0.100 C 
ATOM     29  C   UNL     1       6.681  -1.000   2.143  0.00  0.00    +0.026 C 
ATOM     30 CL   UNL     1       6.746   0.320  -0.242  0.00  0.00    -0.120 Cl
ENDBRANCH   1  28
TORSDOF 9
