REMARK  Name = ZINC09259660
REMARK  9 active torsions:
REMARK  status: ('A' for Active; 'I' for Inactive)
REMARK    1  A    between atoms: C_1  and  C_2
REMARK    2  A    between atoms: C_2  and  C_3
REMARK    3  A    between atoms: C_3  and  C_5
REMARK    4  A    between atoms: C_3  and  O_6
REMARK    5  A    between atoms: O_6  and  C_7
REMARK    6  A    between atoms: C_8  and  O_30
REMARK    7  A    between atoms: C_10  and  C_14
REMARK    8  A    between atoms: N_21  and  C_24
REMARK    9  A    between atoms: O_30  and  C_31
REMARK                            x       y       z     vdW  Elec       q    Type
REMARK                         _______ _______ _______ _____ _____    ______ ____
ROOT
ATOM      1  C   UNL     1       6.208   5.415  -3.532  0.00  0.00    +0.026 C 
ATOM      2  C   UNL     1       5.761   5.150  -2.252  0.00  0.00    +0.100 C 
ATOM      3  C   UNL     1       6.703   4.931  -1.136  0.00  0.00    +0.257 C 
ATOM      4  O   UNL     1       7.905   4.977  -1.315  0.00  0.00    -0.270 OA
ATOM      5  N   UNL     1       6.193   4.678   0.087  0.00  0.00    -0.236 N 
ATOM      6  C   UNL     1       4.871   4.629   0.299  0.00  0.00    +0.316 C 
ATOM      7  O   UNL     1       4.477   4.402   1.426  0.00  0.00    -0.252 OA
ATOM      8  N   UNL     1       3.958   4.813  -0.666  0.00  0.00    -0.218 N 
ATOM      9  C   UNL     1       4.321   5.075  -1.938  0.00  0.00    +0.259 C 
ATOM     10  O   UNL     1       3.483   5.243  -2.804  0.00  0.00    -0.269 OA
ATOM     11  H   UNL     1       6.798   4.532   0.831  0.00  0.00    +0.159 HD
ENDROOT
BRANCH   1  15
ATOM     12  C   UNL     1       3.476   5.401  -6.772  0.00  0.00    +0.175 A 
ATOM     13  C   UNL     1       4.412   6.431  -6.658  0.00  0.00    +0.163 A 
ATOM     14  C   UNL     1       5.303   6.440  -5.606  0.00  0.00    +0.057 A 
ATOM     15  C   UNL     1       5.266   5.411  -4.651  0.00  0.00    -0.019 A 
ATOM     16  C   UNL     1       4.326   4.378  -4.777  0.00  0.00    +0.026 A 
ATOM     17  C   UNL     1       3.437   4.382  -5.828  0.00  0.00    +0.059 A 
ATOM     18  I   UNL     1       2.027   2.843  -6.010  0.00  0.00    -0.040 I 
BRANCH  13  19
ATOM     19  O   UNL     1       4.445   7.425  -7.585  0.00  0.00    -0.491 OA
ATOM     20  C   UNL     1       5.428   8.446  -7.406  0.00  0.00    +0.277 C 
ENDBRANCH  13  19
BRANCH  12  21
ATOM     21  O   UNL     1       2.600   5.396  -7.809  0.00  0.00    -0.484 OA
BRANCH  21  22
ATOM     22  C   UNL     1       2.995   4.690  -8.988  0.00  0.00    +0.170 C 
ATOM     23  C   UNL     1       3.912   5.578  -9.831  0.00  0.00    +0.052 C 
BRANCH  22  25
ATOM     24  C   UNL     1       0.902   3.325  -9.011  0.00  0.00    +0.007 C 
ATOM     25  C   UNL     1       1.753   4.322  -9.802  0.00  0.00    +0.041 C 
ENDBRANCH  22  25
ENDBRANCH  21  22
ENDBRANCH  12  21
ENDBRANCH   1  15
BRANCH   8  26
ATOM     26  C   UNL     1       2.535   4.733  -0.329  0.00  0.00    +0.086 C 
ATOM     27  C   UNL     1       2.200   5.791   0.725  0.00  0.00    +0.023 C 
ATOM     28  C   UNL     1       0.714   5.708   1.077  0.00  0.00    +0.002 C 
ATOM     29  C   UNL     1       0.398   4.318   1.632  0.00  0.00    +0.000 C 
ATOM     30  C   UNL     1       0.733   3.260   0.579  0.00  0.00    +0.002 C 
ATOM     31  C   UNL     1       2.219   3.343   0.227  0.00  0.00    +0.023 C 
ENDBRANCH   8  26
TORSDOF 6
