REMARK  Name = ZINC65170508
REMARK  7 active torsions:
REMARK  status: ('A' for Active; 'I' for Inactive)
REMARK    1  A    between atoms: C_1  and  C_2
REMARK    2  A    between atoms: N_4  and  C_9
REMARK    3  A    between atoms: C_6  and  C_8
REMARK    4  A    between atoms: C_9  and  C_10
REMARK    5  A    between atoms: C_10  and  C_11
REMARK    6  A    between atoms: C_10  and  O_26
REMARK    7  A    between atoms: C_11  and  N_12
REMARK                            x       y       z     vdW  Elec       q    Type
REMARK                         _______ _______ _______ _____ _____    ______ ____
ROOT
ATOM      1  N   UNL     1       1.916  -6.014  -3.725  0.00  0.00    -0.222 N 
ATOM      2  C   UNL     1       2.716  -6.899  -3.091  0.00  0.00    +0.247 C 
ATOM      3  O   UNL     1       3.447  -6.708  -2.151  0.00  0.00    -0.273 OA
ATOM      4  C   UNL     1       2.523  -8.195  -3.861  0.00  0.00    +0.113 C 
ATOM      5  C   UNL     1       3.430  -8.167  -5.089  0.00  0.00    +0.035 C 
ATOM      6  C   UNL     1       3.604  -9.559  -5.694  0.00  0.00    +0.003 C 
ATOM      7  C   UNL     1       2.444  -9.950  -6.627  0.00  0.00    +0.000 C 
ATOM      8  C   UNL     1       1.234 -10.343  -5.761  0.00  0.00    +0.000 C 
ATOM      9  C   UNL     1       1.701 -11.200  -4.582  0.00  0.00    +0.000 C 
ATOM     10  C   UNL     1       1.581 -10.446  -3.263  0.00  0.00    +0.003 C 
ATOM     11  C   UNL     1       2.709  -9.443  -3.030  0.00  0.00    +0.035 C 
ATOM     12  N   UNL     1       1.104  -8.010  -4.233  0.00  0.00    -0.285 N 
ATOM     13  C   UNL     1       0.945  -6.671  -4.370  0.00  0.00    +0.309 C 
ATOM     14  O   UNL     1       0.046  -6.149  -4.988  0.00  0.00    -0.252 OA
ATOM     15  H   UNL     1       0.389  -8.644  -4.263  0.00  0.00    +0.151 HD
ENDROOT
BRANCH   1  16
ATOM     16  C   UNL     1       2.061  -4.562  -3.683  0.00  0.00    +0.150 C 
BRANCH  16  17
ATOM     17  C   UNL     1       1.293  -4.008  -2.482  0.00  0.00    +0.146 C 
BRANCH  17  18
ATOM     18  O   UNL     1      -0.091  -4.345  -2.604  0.00  0.00    -0.389 OA
ATOM     19  H   UNL     1      -0.512  -3.993  -3.400  0.00  0.00    +0.210 HD
ENDBRANCH  17  18
BRANCH  17  20
ATOM     20  C   UNL     1       1.444  -2.486  -2.437  0.00  0.00    +0.117 C 
BRANCH  20  24
ATOM     21  C   UNL     1      -0.019   1.526   0.010  0.00  0.00    +0.039 C 
ATOM     22  C   UNL     1       0.002  -0.004   0.002  0.00  0.00    +0.130 C 
ATOM     23  C   UNL     1       0.723  -0.499  -1.255  0.00  0.00    +0.115 C 
ATOM     24  N   UNL     1       0.808  -1.966  -1.219  0.00  0.00    -0.295 NA
ATOM     25  C   UNL     1       1.523  -2.417  -0.017  0.00  0.00    +0.115 C 
ATOM     26  C   UNL     1       0.794  -1.904   1.227  0.00  0.00    +0.130 C 
ATOM     27  O   UNL     1       0.694  -0.479   1.160  0.00  0.00    -0.371 OA
ATOM     28  C   UNL     1       1.577  -2.302   2.480  0.00  0.00    +0.039 C 
ENDBRANCH  20  24
ENDBRANCH  17  20
ENDBRANCH  16  17
ENDBRANCH   1  16
TORSDOF 5
