REMARK  Name = ZINC07252169
REMARK  8 active torsions:
REMARK  status: ('A' for Active; 'I' for Inactive)
REMARK    1  A    between atoms: C_1  and  C_2
REMARK    2  A    between atoms: C_3  and  C_8
REMARK    3  A    between atoms: C_4  and  N_7
REMARK    4  A    between atoms: C_8  and  O_10
REMARK    5  A    between atoms: O_10  and  C_11
REMARK    6  A    between atoms: C_11  and  C_13
REMARK    7  A    between atoms: C_11  and  C_14
REMARK    8  A    between atoms: N_16  and  C_17
REMARK                            x       y       z     vdW  Elec       q    Type
REMARK                         _______ _______ _______ _____ _____    ______ ____
ROOT
ATOM      1  C   UNL     1      -1.119   0.261  -4.537  0.00  0.00    +0.259 C 
ATOM      2  C   UNL     1      -1.125   1.790  -4.574  0.00  0.00    +0.062 C 
ENDROOT
BRANCH   1   3
ATOM      3  C   UNL     1      -2.314  -0.265  -5.290  0.00  0.00    +0.258 C 
ATOM      4  O   UNL     1      -3.182  -0.875  -4.702  0.00  0.00    -0.271 OA
ATOM      5  N   UNL     1      -2.419  -0.057  -6.618  0.00  0.00    -0.282 N 
ATOM      6  H   UNL     1      -1.760   0.487  -7.077  0.00  0.00    +0.155 HD
BRANCH   5   7
ATOM      7  C   UNL     1      -3.478  -0.627  -7.334  0.00  0.00    +0.034 A 
ATOM      8  C   UNL     1      -3.278  -1.072  -8.635  0.00  0.00    +0.025 A 
ATOM      9  C   UNL     1      -4.325  -1.633  -9.339  0.00  0.00    +0.022 A 
ATOM     10  C   UNL     1      -5.572  -1.753  -8.751  0.00  0.00    +0.041 A 
ATOM     11  C   UNL     1      -5.773  -1.310  -7.455  0.00  0.00    +0.022 A 
ATOM     12  C   UNL     1      -4.728  -0.753  -6.744  0.00  0.00    +0.025 A 
ATOM     13 CL   UNL     1      -6.885  -2.459  -9.639  0.00  0.00    -0.084 Cl
ENDBRANCH   5   7
ENDBRANCH   1   3
BRANCH   1  14
ATOM     14  O   UNL     1      -1.179  -0.183  -3.180  0.00  0.00    -0.449 OA
BRANCH  14  15
ATOM     15  C   UNL     1      -0.004  -0.367  -2.544  0.00  0.00    +0.347 C 
ATOM     16  O   UNL     1       1.042  -0.156  -3.127  0.00  0.00    -0.245 OA
BRANCH  15  19
ATOM     17  C   UNL     1      -0.033   1.509   0.014  0.00  0.00    +0.070 C 
ATOM     18  C   UNL     1      -0.001   0.003   0.003  0.00  0.00    +0.097 A 
ATOM     19  C   UNL     1       0.011  -0.821  -1.151  0.00  0.00    +0.142 A 
ATOM     20  C   UNL     1       0.041  -2.142  -0.713  0.00  0.00    +0.230 A 
ATOM     21  O   UNL     1       0.046  -2.116   0.628  0.00  0.00    -0.339 OA
ATOM     22  N   UNL     1       0.025  -0.767   1.050  0.00  0.00    -0.081 NA
BRANCH  20  23
ATOM     23  N   UNL     1       0.061  -3.261  -1.504  0.00  0.00    -0.327 N 
ATOM     24  H   UNL     1       0.055  -3.172  -2.470  0.00  0.00    +0.145 HD
ATOM     25  H   UNL     1       0.081  -4.142  -1.098  0.00  0.00    +0.145 HD
ENDBRANCH  20  23
ENDBRANCH  15  19
ENDBRANCH  14  15
ENDBRANCH   1  14
TORSDOF 6
