REMARK  Name = ZINC17179711
REMARK  3 active torsions:
REMARK  status: ('A' for Active; 'I' for Inactive)
REMARK    1  A    between atoms: C_1  and  C_2
REMARK    2  A    between atoms: C_7  and  C_8
REMARK    3  A    between atoms: N_9  and  N_10
REMARK                            x       y       z     vdW  Elec       q    Type
REMARK                         _______ _______ _______ _____ _____    ______ ____
ROOT
ATOM      1  N   UNL     1      -2.690   5.195   0.825  0.00  0.00    -0.219 N 
ATOM      2  C   UNL     1      -2.676   3.808   0.828  0.00  0.00    +0.167 A 
ATOM      3  C   UNL     1      -1.420   3.090   1.077  0.00  0.00    +0.029 A 
ATOM      4  C   UNL     1      -0.224   3.767   1.313  0.00  0.00    +0.012 A 
ATOM      5  C   UNL     1       0.930   3.051   1.541  0.00  0.00    +0.001 A 
ATOM      6  C   UNL     1       0.916   1.662   1.539  0.00  0.00    +0.001 A 
ATOM      7  C   UNL     1      -0.254   0.973   1.307  0.00  0.00    +0.012 A 
ATOM      8  C   UNL     1      -1.433   1.677   1.069  0.00  0.00    +0.031 A 
ATOM      9  C   UNL     1      -2.709   0.998   0.823  0.00  0.00    +0.185 A 
ATOM     10  N   UNL     1      -3.071  -0.266   0.752  0.00  0.00    -0.128 NA
ATOM     11  N   UNL     1      -4.332  -0.336   0.503  0.00  0.00    -0.136 NA
ATOM     12  C   UNL     1      -4.837   0.868   0.402  0.00  0.00    +0.249 A 
ATOM     13  N   UNL     1      -3.832   1.753   0.601  0.00  0.00    -0.198 N 
ATOM     14  N   UNL     1      -3.782   3.147   0.610  0.00  0.00    -0.146 NA
ATOM     15  H   UNL     1      -1.761   5.754   1.008  0.00  0.00    +0.176 HD
ENDROOT
BRANCH   1  17
ATOM     16  C   UNL     1      -3.899   7.181   0.585  0.00  0.00    +0.138 C 
ATOM     17  N   UNL     1      -3.887   5.883   0.588  0.00  0.00    -0.189 NA
BRANCH  16  24
ATOM     18  C   UNL     1      -6.283   5.701  -0.121  0.00  0.00    +0.044 C 
ATOM     19  C   UNL     1      -6.317   7.203  -0.005  0.00  0.00    -0.042 A 
ATOM     20  C   UNL     1      -7.492   7.888  -0.236  0.00  0.00    +0.004 A 
ATOM     21  C   UNL     1      -7.526   9.267  -0.131  0.00  0.00    +0.000 A 
ATOM     22  C   UNL     1      -6.382   9.970   0.206  0.00  0.00    +0.001 A 
ATOM     23  C   UNL     1      -5.202   9.298   0.446  0.00  0.00    +0.010 A 
ATOM     24  C   UNL     1      -5.159   7.906   0.336  0.00  0.00    -0.003 A 
ENDBRANCH  16  24
ENDBRANCH   1  17
TORSDOF 2
