REMARK  Name = ZINC63490352
REMARK  6 active torsions:
REMARK  status: ('A' for Active; 'I' for Inactive)
REMARK    1  A    between atoms: C_1  and  C_2
REMARK    2  A    between atoms: N_14  and  C_15
REMARK    3  A    between atoms: C_15  and  C_16
REMARK    4  A    between atoms: N_18  and  C_19
REMARK    5  A    between atoms: C_19  and  C_20
REMARK    6  A    between atoms: C_20  and  C_21
REMARK                            x       y       z     vdW  Elec       q    Type
REMARK                         _______ _______ _______ _____ _____    ______ ____
ROOT
ATOM      1  C   UNL     1      -1.230  -0.967   3.158  0.00  0.00    +0.202 C 
ENDROOT
BRANCH   1  14
ATOM      2  C   UNL     1      -5.295  -0.023   2.905  0.00  0.00    +0.044 C 
ATOM      3  C   UNL     1      -4.661  -0.901   3.953  0.00  0.00    -0.050 A 
ATOM      4  C   UNL     1      -5.300  -1.105   5.163  0.00  0.00    +0.007 A 
ATOM      5  C   UNL     1      -4.727  -1.911   6.128  0.00  0.00    +0.047 A 
ATOM      6  C   UNL     1      -3.507  -2.518   5.886  0.00  0.00    +0.137 A 
ATOM      7  C   UNL     1      -2.867  -2.304   4.662  0.00  0.00    +0.019 A 
ATOM      8  C   UNL     1      -3.442  -1.510   3.702  0.00  0.00    +0.012 A 
ATOM      9  C   UNL     1      -1.535  -2.980   4.463  0.00  0.00    +0.148 C 
ATOM     10  C   UNL     1      -0.855  -2.888   5.830  0.00  0.00    +0.075 C 
ATOM     11  H   UNL     1       1.350  -1.692   3.939  0.00  0.00    +0.166 HD
ATOM     12  C   UNL     1       0.365  -2.405   5.615  0.00  0.00    +0.097 C 
ATOM     13  N   UNL     1       0.525  -2.042   4.311  0.00  0.00    -0.283 N 
ATOM     14  N   UNL     1      -0.634  -2.244   3.572  0.00  0.00    -0.209 NA
ATOM     15  C   UNL     1      -1.580  -3.171   7.013  0.00  0.00    +0.344 C 
ATOM     16  O   UNL     1      -1.051  -3.269   8.105  0.00  0.00    -0.245 OA
ATOM     17  O   UNL     1      -2.928  -3.324   6.823  0.00  0.00    -0.422 OA
ENDBRANCH   1  14
BRANCH   1  18
ATOM     18  C   UNL     1      -1.912  -0.324   4.339  0.00  0.00    +0.229 C 
ATOM     19  O   UNL     1      -1.901  -0.876   5.419  0.00  0.00    -0.274 OA
ATOM     20  N   UNL     1      -2.532   0.863   4.195  0.00  0.00    -0.314 N 
ATOM     21  H   UNL     1      -2.540   1.305   3.331  0.00  0.00    +0.149 HD
BRANCH  20  22
ATOM     22  C   UNL     1      -3.195   1.488   5.343  0.00  0.00    +0.108 C 
BRANCH  22  23
ATOM     23  C   UNL     1      -3.816   2.818   4.912  0.00  0.00    +0.052 C 
BRANCH  23  24
ATOM     24  C   UNL     1      -4.497   3.460   6.093  0.00  0.00    -0.040 C 
ATOM     25  C   UNL     1      -3.977   4.392   6.924  0.00  0.00    -0.001 A 
ATOM     26  C   UNL     1      -2.671   5.060   6.976  0.00  0.00    +0.010 A 
ATOM     27  C   UNL     1      -2.438   5.970   7.949  0.00  0.00    +0.001 A 
ATOM     28  C   UNL     1      -3.410   6.290   8.907  0.00  0.00    +0.002 A 
ATOM     29  C   UNL     1      -4.633   5.718   8.924  0.00  0.00    +0.026 A 
ATOM     30  C   UNL     1      -4.986   4.748   7.947  0.00  0.00    +0.043 A 
ATOM     31  N   UNL     1      -6.087   4.063   7.756  0.00  0.00    -0.380 N 
ATOM     32  C   UNL     1      -5.903   3.198   6.585  0.00  0.00    +0.144 C 
ATOM     33  H   UNL     1      -6.891   4.120   8.296  0.00  0.00    +0.160 HD
ENDBRANCH  23  24
ENDBRANCH  22  23
ENDBRANCH  20  22
ENDBRANCH   1  18
TORSDOF 5
