REMARK  Name = ZINC40278158
REMARK  3 active torsions:
REMARK  status: ('A' for Active; 'I' for Inactive)
REMARK    1  A    between atoms: C_6  and  C_7
REMARK    2  A    between atoms: C_7  and  C_9
REMARK    3  A    between atoms: C_12  and  N_14
REMARK                            x       y       z     vdW  Elec       q    Type
REMARK                         _______ _______ _______ _____ _____    ______ ____
ROOT
ATOM      1  C   UNL     1      -0.017   1.378   0.010  0.00  0.00    +0.009 A 
ATOM      2  C   UNL     1       1.170   2.084   0.002  0.00  0.00    +0.046 A 
ATOM      3  C   UNL     1       2.385   1.408  -0.012  0.00  0.00    +0.124 A 
ATOM      4  C   UNL     1       2.401   0.024  -0.016  0.00  0.00    -0.005 A 
ATOM      5  C   UNL     1       1.208  -0.678  -0.011  0.00  0.00    +0.012 A 
ATOM      6  C   UNL     1       0.002  -0.004   0.002  0.00  0.00    -0.022 A 
ATOM      7  C   UNL     1       3.697  -0.747  -0.020  0.00  0.00    +0.042 C 
ATOM      8  C   UNL     1       4.841   0.170  -0.461  0.00  0.00    +0.046 C 
ATOM      9  C   UNL     1       4.746   1.477   0.336  0.00  0.00    +0.229 C 
ATOM     10  O   UNL     1       3.532   2.137  -0.024  0.00  0.00    -0.492 OA
ENDROOT
BRANCH   6  11
ATOM     11  C   UNL     1      -1.293  -0.775   0.008  0.00  0.00    +0.176 C 
ATOM     12 CL   UNL     1      -2.319  -0.238  -1.374  0.00  0.00    -0.108 Cl
BRANCH  11  13
ATOM     13  C   UNL     1      -2.021  -0.524   1.303  0.00  0.00    +0.130 A 
ATOM     14  C   UNL     1      -2.276  -1.441   2.253  0.00  0.00    +0.049 A 
ATOM     15  C   UNL     1      -2.976  -0.776   3.287  0.00  0.00    +0.076 A 
ATOM     16  C   UNL     1      -3.106   0.507   2.906  0.00  0.00    +0.280 A 
ATOM     17  O   UNL     1      -2.521   0.656   1.706  0.00  0.00    -0.437 OA
BRANCH  16  18
ATOM     18  N   UNL     1      -3.776   1.576   3.681  0.00  0.00    +0.093 N 
ATOM     19  O   UNL     1      -4.265   1.326   4.758  0.00  0.00    -0.123 OA
ATOM     20  O   UNL     1      -3.833   2.700   3.237  0.00  0.00    -0.123 OA
ENDBRANCH  16  18
ENDBRANCH  11  13
ENDBRANCH   6  11
TORSDOF 3
