REMARK  Name = ZINC40012461
REMARK  9 active torsions:
REMARK  status: ('A' for Active; 'I' for Inactive)
REMARK    1  A    between atoms: C_1  and  C_2
REMARK    2  A    between atoms: C_4  and  C_12
REMARK    3  A    between atoms: C_12  and  C_14
REMARK    4  A    between atoms: C_14  and  S_15
REMARK    5  A    between atoms: S_15  and  C_16
REMARK    6  A    between atoms: C_19  and  C_22
REMARK    7  A    between atoms: N_20  and  N_21
REMARK    8  A    between atoms: C_27  and  O_28
REMARK    9  A    between atoms: O_28  and  C_29
REMARK                            x       y       z     vdW  Elec       q    Type
REMARK                         _______ _______ _______ _____ _____    ______ ____
ROOT
ATOM      1  C   UNL     1       1.569  -1.222  -6.452  0.00  0.00    +0.209 A 
ATOM      2  N   UNL     1       2.711  -1.814  -6.184  0.00  0.00    -0.121 NA
ATOM      3  N   UNL     1       3.293  -2.163  -7.275  0.00  0.00    -0.127 NA
ATOM      4  C   UNL     1       2.559  -1.815  -8.306  0.00  0.00    +0.185 A 
ATOM      5  N   UNL     1       1.430  -1.206  -7.811  0.00  0.00    -0.224 N 
ENDROOT
BRANCH   4   6
ATOM      6  C   UNL     1       2.884  -2.040  -9.731  0.00  0.00    +0.062 A 
ATOM      7  C   UNL     1       2.742  -1.003 -10.654  0.00  0.00    +0.015 A 
ATOM      8  C   UNL     1       3.046  -1.218 -11.982  0.00  0.00    +0.001 A 
ATOM      9  C   UNL     1       3.491  -2.460 -12.403  0.00  0.00    +0.004 A 
ATOM     10  C   UNL     1       3.635  -3.494 -11.498  0.00  0.00    +0.046 A 
ATOM     11  C   UNL     1       3.340  -3.292 -10.160  0.00  0.00    +0.131 A 
BRANCH  11  12
ATOM     12  O   UNL     1       3.487  -4.306  -9.268  0.00  0.00    -0.494 OA
ATOM     13  C   UNL     1       3.957  -5.556  -9.779  0.00  0.00    +0.277 C 
ENDBRANCH  11  12
ENDBRANCH   4   6
BRANCH   5  14
ATOM     14  N   UNL     1       0.388  -0.691  -8.528  0.00  0.00    -0.295 N 
ATOM     15  H   UNL     1       0.585   0.253  -8.826  0.00  0.00    +0.163 HD
ATOM     16  H   UNL     1       0.165  -1.280  -9.317  0.00  0.00    +0.163 HD
ENDBRANCH   5  14
BRANCH   1  17
ATOM     17  S   UNL     1       0.426  -0.575  -5.277  0.00  0.00    -0.077 S 
BRANCH  17  18
ATOM     18  C   UNL     1       1.205  -0.915  -3.674  0.00  0.00    +0.156 C 
BRANCH  18  19
ATOM     19  C   UNL     1       0.319  -0.405  -2.567  0.00  0.00    +0.172 C 
ATOM     20  O   UNL     1      -0.735   0.135  -2.833  0.00  0.00    -0.291 OA
BRANCH  19  23
ATOM     21  C   UNL     1      -0.235   1.410  -0.013  0.00  0.00    +0.035 C 
ATOM     22  C   UNL     1      -0.041  -0.108   0.011  0.00  0.00    +0.111 C 
ATOM     23  C   UNL     1       0.715  -0.555  -1.221  0.00  0.00    +0.027 C 
ATOM     24  C   UNL     1       1.876  -1.143  -0.751  0.00  0.00    +0.006 A 
ATOM     25  C   UNL     1       2.978  -1.748  -1.398  0.00  0.00    +0.010 A 
ATOM     26  C   UNL     1       4.001  -2.254  -0.673  0.00  0.00    +0.001 A 
ATOM     27  C   UNL     1       4.025  -2.208   0.730  0.00  0.00    +0.002 A 
ATOM     28  C   UNL     1       3.023  -1.652   1.444  0.00  0.00    +0.026 A 
ATOM     29  C   UNL     1       1.869  -1.077   0.731  0.00  0.00    +0.043 A 
ATOM     30  N   UNL     1       0.785  -0.493   1.159  0.00  0.00    -0.377 N 
ATOM     31  H   UNL     1       0.560  -0.337   2.090  0.00  0.00    +0.160 HD
ENDBRANCH  19  23
ENDBRANCH  18  19
ENDBRANCH  17  18
ENDBRANCH   1  17
TORSDOF 7
