REMARK  Name = ZINC11853772
REMARK  13 active torsions:
REMARK  status: ('A' for Active; 'I' for Inactive)
REMARK    1  A    between atoms: C_1  and  C_2
REMARK    2  A    between atoms: C_5  and  C_31
REMARK    3  A    between atoms: C_9  and  C_10
REMARK    4  A    between atoms: C_9  and  N_61
REMARK    5  A    between atoms: C_11  and  O_30
REMARK    6  A    between atoms: C_14  and  C_17
REMARK    7  A    between atoms: C_15  and  O_16
REMARK    8  A    between atoms: C_17  and  C_19
REMARK    9  A    between atoms: C_19  and  C_20
REMARK   10  A    between atoms: C_23  and  O_28
REMARK   11  A    between atoms: C_24  and  O_26
REMARK   12  A    between atoms: O_26  and  C_27
REMARK   13  A    between atoms: O_28  and  C_29
REMARK                            x       y       z     vdW  Elec       q    Type
REMARK                         _______ _______ _______ _____ _____    ______ ____
ROOT
ATOM      1  C   UNL     1      -4.617   3.935   3.298  0.00  0.00    +0.020 A 
ATOM      2  C   UNL     1      -5.400   4.374   2.240  0.00  0.00    +0.122 A 
ATOM      3  C   UNL     1      -4.995   4.152   0.926  0.00  0.00    +0.046 A 
ATOM      4  C   UNL     1      -3.824   3.500   0.665  0.00  0.00    +0.018 A 
ATOM      5  C   UNL     1      -3.021   3.049   1.721  0.00  0.00    +0.060 A 
ATOM      6  C   UNL     1      -3.431   3.267   3.050  0.00  0.00    +0.132 A 
ENDROOT
BRANCH   6   7
ATOM      7  O   UNL     1      -2.665   2.830   4.080  0.00  0.00    -0.506 OA
ATOM      8  H   UNL     1      -2.012   3.474   4.385  0.00  0.00    +0.292 HD
ENDBRANCH   6   7
BRANCH   5   9
ATOM      9  C   UNL     1      -1.765   2.349   1.444  0.00  0.00    +0.171 C 
ATOM     10  O   UNL     1      -1.072   1.960   2.361  0.00  0.00    -0.292 OA
BRANCH   9  11
ATOM     11  C   UNL     1      -1.333   2.112   0.020  0.00  0.00    +0.115 C 
BRANCH  11  12
ATOM     12  C   UNL     1      -0.017   1.378   0.010  0.00  0.00    -0.036 A 
ATOM     13  C   UNL     1       0.002  -0.004   0.002  0.00  0.00    +0.008 A 
ATOM     14  C   UNL     1       1.207  -0.682  -0.013  0.00  0.00    +0.049 A 
ATOM     15  C   UNL     1       2.399   0.024  -0.020  0.00  0.00    +0.161 A 
ATOM     16  C   UNL     1       2.380   1.415  -0.013  0.00  0.00    +0.162 A 
ATOM     17  C   UNL     1       1.169   2.089   0.002  0.00  0.00    +0.053 A 
BRANCH  16  18
ATOM     18  O   UNL     1       3.548   2.113  -0.020  0.00  0.00    -0.491 OA
ATOM     19  C   UNL     1       3.452   3.539  -0.012  0.00  0.00    +0.277 C 
ENDBRANCH  16  18
BRANCH  15  20
ATOM     20  O   UNL     1       3.585  -0.641  -0.035  0.00  0.00    -0.491 OA
ATOM     21  C   UNL     1       3.528  -2.069  -0.042  0.00  0.00    +0.277 C 
ENDBRANCH  15  20
ENDBRANCH  11  12
ENDBRANCH   9  11
ENDBRANCH   5   9
BRANCH   2  22
ATOM     22  O   UNL     1      -6.565   5.023   2.486  0.00  0.00    -0.506 OA
ATOM     23  H   UNL     1      -7.333   4.440   2.555  0.00  0.00    +0.292 HD
ENDBRANCH   2  22
BRANCH   1  24
ATOM     24  C   UNL     1      -5.062   4.179   4.717  0.00  0.00    -0.036 C 
BRANCH  24  32
ATOM     25  C   UNL     1      -7.042   0.471   4.493  0.00  0.00    +0.005 C 
ATOM     26  C   UNL     1      -7.894   1.699   4.818  0.00  0.00    -0.031 C 
ATOM     27  C   UNL     1      -8.184   1.736   6.321  0.00  0.00    +0.003 C 
ATOM     28  C   UNL     1      -6.863   1.870   7.084  0.00  0.00    -0.031 C 
ATOM     29  C   UNL     1      -6.136   3.133   6.618  0.00  0.00    -0.075 C 
ATOM     30  C   UNL     1      -7.137   2.967   4.418  0.00  0.00    -0.075 C 
ATOM     31  C   UNL     1      -7.148   1.968   8.585  0.00  0.00    +0.005 C 
ATOM     32  N   UNL     1      -5.865   3.023   5.169  0.00  0.00    +0.383 N 
ATOM     33  H   UNL     1      -5.336   2.161   4.993  0.00  0.00    -0.081 HD
ENDBRANCH  24  32
ENDBRANCH   1  24
TORSDOF 9
