REMARK  Name = ZINC59513278
REMARK  5 active torsions:
REMARK  status: ('A' for Active; 'I' for Inactive)
REMARK    1  A    between atoms: C_4  and  N_7
REMARK    2  A    between atoms: C_11  and  N_28
REMARK    3  A    between atoms: C_13  and  S_14
REMARK    4  A    between atoms: S_14  and  C_15
REMARK    5  A    between atoms: C_15  and  C_16
REMARK                            x       y       z     vdW  Elec       q    Type
REMARK                         _______ _______ _______ _____ _____    ______ ____
ROOT
ATOM      1  N   UNL     1       3.623  -0.652  -0.037  0.00  0.00    -0.256 N 
ATOM      2  C   UNL     1       4.778   0.038  -0.141  0.00  0.00    +0.261 A 
ATOM      3  O   UNL     1       4.768   1.257  -0.221  0.00  0.00    -0.267 OA
ATOM      4  C   UNL     1       5.986  -0.665  -0.154  0.00  0.00    +0.114 A 
ATOM      5  C   UNL     1       5.954  -2.049  -0.060  0.00  0.00    +0.124 A 
ATOM      6  N   UNL     1       4.779  -2.682   0.041  0.00  0.00    -0.208 NA
ATOM      7  C   UNL     1       3.645  -2.013   0.059  0.00  0.00    +0.178 A 
ENDROOT
BRANCH   1  11
ATOM      8  C   UNL     1      -0.016   1.379   0.011  0.00  0.00    +0.000 A 
ATOM      9  C   UNL     1       0.648   1.126   1.197  0.00  0.00    +0.002 A 
ATOM     10  C   UNL     1       1.854   0.453   1.184  0.00  0.00    +0.026 A 
ATOM     11  C   UNL     1       2.400   0.031  -0.021  0.00  0.00    +0.052 A 
ATOM     12  C   UNL     1       1.730   0.287  -1.210  0.00  0.00    +0.026 A 
ATOM     13  C   UNL     1       0.524   0.960  -1.191  0.00  0.00    +0.002 A 
ENDBRANCH   1  11
BRANCH   5  14
ATOM     14  N   UNL     1       7.131  -2.772  -0.071  0.00  0.00    -0.343 N 
ATOM     15  H   UNL     1       7.981  -2.312  -0.145  0.00  0.00    +0.144 HD
ATOM     16  H   UNL     1       7.106  -3.739  -0.006  0.00  0.00    +0.144 HD
ENDBRANCH   5  14
BRANCH   7  17
ATOM     17  S   UNL     1       2.125  -2.893   0.201  0.00  0.00    -0.078 S 
BRANCH  17  18
ATOM     18  C   UNL     1       2.633  -4.632   0.298  0.00  0.00    +0.173 C 
BRANCH  18  19
ATOM     19  C   UNL     1       1.412  -5.505   0.424  0.00  0.00    +0.229 C 
ATOM     20  O   UNL     1       0.307  -5.004   0.447  0.00  0.00    -0.275 OA
ATOM     21  N   UNL     1       1.546  -6.843   0.512  0.00  0.00    -0.264 N 
ATOM     22  C   UNL     1       0.420  -7.649   0.629  0.00  0.00    +0.165 A 
ATOM     23  N   UNL     1      -0.844  -7.287   0.664  0.00  0.00    -0.229 NA
ATOM     24  C   UNL     1      -1.827  -8.176   0.779  0.00  0.00    +0.054 A 
ATOM     25  C   UNL     1      -1.421  -9.469   0.857  0.00  0.00    +0.014 A 
ATOM     26  S   UNL     1       0.341  -9.328   0.752  0.00  0.00    -0.057 S 
ATOM     27  C   UNL     1      -2.274 -10.685   0.993  0.00  0.00    +0.044 C 
ATOM     28  C   UNL     1      -3.686 -10.237   1.401  0.00  0.00    +0.006 C 
ATOM     29  C   UNL     1      -4.119  -9.080   0.497  0.00  0.00    +0.006 C 
ATOM     30  C   UNL     1      -3.307  -7.825   0.823  0.00  0.00    +0.056 C 
ATOM     31  H   UNL     1       2.430  -7.244   0.494  0.00  0.00    +0.157 HD
ENDBRANCH  18  19
ENDBRANCH  17  18
ENDBRANCH   7  17
TORSDOF 5
