REMARK  Name = ZINC04760187
REMARK  6 active torsions:
REMARK  status: ('A' for Active; 'I' for Inactive)
REMARK    1  A    between atoms: C_1  and  N_47
REMARK    2  A    between atoms: C_2  and  N_47
REMARK    3  A    between atoms: C_3  and  C_4
REMARK    4  A    between atoms: C_3  and  N_47
REMARK    5  A    between atoms: C_9  and  C_10
REMARK    6  A    between atoms: C_10  and  C_20
REMARK                            x       y       z     vdW  Elec       q    Type
REMARK                         _______ _______ _______ _____ _____    ______ ____
ROOT
ATOM      1  C   UNL     1      -0.732  -2.617   1.759  0.00  0.00    +0.190 C 
ATOM      2  C   UNL     1       0.335  -1.807   1.066  0.00  0.00    +0.019 A 
ATOM      3  C   UNL     1       0.316  -0.931   0.006  0.00  0.00    +0.009 A 
ATOM      4  C   UNL     1       1.490  -0.325  -0.411  0.00  0.00    +0.000 A 
ATOM      5  C   UNL     1       2.683  -0.598   0.235  0.00  0.00    +0.001 A 
ATOM      6  C   UNL     1       2.713  -1.476   1.299  0.00  0.00    +0.015 A 
ATOM      7  C   UNL     1       1.534  -2.090   1.726  0.00  0.00    +0.067 A 
ATOM      8  C   UNL     1       1.245  -3.051   2.806  0.00  0.00    +0.341 C 
ATOM      9  O   UNL     1       2.071  -3.505   3.571  0.00  0.00    -0.245 OA
ATOM     10  O   UNL     1      -0.064  -3.352   2.821  0.00  0.00    -0.440 OA
ENDROOT
BRANCH   1  16
ATOM     11  C   UNL     1      -2.284  -4.508   1.232  0.00  0.00    -0.056 A 
ATOM     12  C   UNL     1      -2.870  -5.385   0.338  0.00  0.00    +0.002 A 
ATOM     13  C   UNL     1      -2.533  -5.334  -1.002  0.00  0.00    +0.000 A 
ATOM     14  C   UNL     1      -1.611  -4.406  -1.448  0.00  0.00    +0.000 A 
ATOM     15  C   UNL     1      -1.024  -3.530  -0.554  0.00  0.00    +0.008 A 
ATOM     16  C   UNL     1      -1.366  -3.577   0.785  0.00  0.00    +0.006 A 
BRANCH  11  17
ATOM     17  C   UNL     1      -2.652  -4.564   2.692  0.00  0.00    -0.043 C 
BRANCH  17  20
ATOM     18  C   UNL     1      -1.729  -5.053   4.877  0.00  0.00    -0.096 C 
ATOM     19  C   UNL     1      -1.654  -6.726   3.129  0.00  0.00    -0.096 C 
ATOM     20  N   UNL     1      -1.585  -5.280   3.423  0.00  0.00    +0.379 N 
ATOM     21  H   UNL     1      -0.673  -4.920   3.119  0.00  0.00    -0.082 HD
ENDBRANCH  17  20
ENDBRANCH  11  17
ENDBRANCH   1  16
BRANCH   1  22
ATOM     22  C   UNL     1      -1.780  -1.704   2.341  0.00  0.00    +0.005 A 
ATOM     23  C   UNL     1      -2.703  -1.095   1.512  0.00  0.00    +0.008 A 
ATOM     24  C   UNL     1      -3.668  -0.261   2.047  0.00  0.00    +0.000 A 
ATOM     25  C   UNL     1      -3.702  -0.029   3.409  0.00  0.00    +0.000 A 
ATOM     26  C   UNL     1      -2.775  -0.634   4.237  0.00  0.00    +0.000 A 
ATOM     27  C   UNL     1      -1.814  -1.472   3.703  0.00  0.00    +0.008 A 
ENDBRANCH   1  22
TORSDOF 4
