REMARK  Name = ZINC64430788
REMARK  6 active torsions:
REMARK  status: ('A' for Active; 'I' for Inactive)
REMARK    1  A    between atoms: C_1  and  C_2
REMARK    2  A    between atoms: N_4  and  C_5
REMARK    3  A    between atoms: N_11  and  C_15
REMARK    4  A    between atoms: C_15  and  C_16
REMARK    5  A    between atoms: N_18  and  C_19
REMARK    6  A    between atoms: C_19  and  C_26
REMARK                            x       y       z     vdW  Elec       q    Type
REMARK                         _______ _______ _______ _____ _____    ______ ____
ROOT
ATOM      1  C   UNL     1      -0.022  -2.108  -1.133  0.00  0.00    +0.055 A 
ATOM      2  C   UNL     1      -0.080  -2.786   0.074  0.00  0.00    +0.025 A 
ATOM      3  C   UNL     1       0.032  -4.164   0.095  0.00  0.00    +0.002 A 
ATOM      4  C   UNL     1       0.205  -4.865  -1.083  0.00  0.00    +0.005 A 
ATOM      5  C   UNL     1       0.267  -4.197  -2.296  0.00  0.00    -0.024 A 
ATOM      6  C   UNL     1       0.145  -2.818  -2.324  0.00  0.00    +0.055 A 
ATOM      7  N   UNL     1       0.188  -2.117  -3.536  0.00  0.00    -0.319 N 
ATOM      8  C   UNL     1       0.654  -2.814  -4.743  0.00  0.00    +0.106 C 
ATOM      9  C   UNL     1      -0.016  -4.194  -4.775  0.00  0.00    +0.024 C 
ATOM     10  C   UNL     1       0.462  -4.995  -3.558  0.00  0.00    +0.038 C 
ENDROOT
BRANCH   1  14
ATOM     11  C   UNL     1      -1.206   1.399  -0.438  0.00  0.00    +0.109 C 
ATOM     12  C   UNL     1      -1.150  -0.105  -0.512  0.00  0.00    +0.214 C 
ATOM     13  O   UNL     1      -2.019  -0.770   0.011  0.00  0.00    -0.276 OA
ATOM     14  N   UNL     1      -0.135  -0.711  -1.160  0.00  0.00    -0.284 N 
ATOM     15  H   UNL     1       0.517  -0.180  -1.644  0.00  0.00    +0.155 HD
ENDBRANCH   1  14
BRANCH   7  16
ATOM     16  C   UNL     1      -0.225  -0.713  -3.600  0.00  0.00    +0.200 C 
BRANCH  16  17
ATOM     17  C   UNL     1       0.994   0.172  -3.545  0.00  0.00    +0.231 C 
ATOM     18  O   UNL     1       2.099  -0.322  -3.461  0.00  0.00    -0.274 OA
ATOM     19  N   UNL     1       0.857   1.512  -3.588  0.00  0.00    -0.296 N 
ATOM     20  H   UNL     1      -0.026   1.907  -3.656  0.00  0.00    +0.150 HD
BRANCH  19  21
ATOM     21  C   UNL     1       2.042   2.372  -3.535  0.00  0.00    +0.121 C 
ATOM     22  C   UNL     1       2.830   2.056  -2.248  0.00  0.00    +0.041 C 
ATOM     23  C   UNL     1       4.247   2.529  -2.427  0.00  0.00    +0.003 C 
ATOM     24  C   UNL     1       4.470   3.949  -1.873  0.00  0.00    +0.000 C 
ATOM     25  C   UNL     1       3.311   4.908  -2.205  0.00  0.00    +0.000 C 
ATOM     26  C   UNL     1       2.811   4.741  -3.615  0.00  0.00    +0.003 C 
ATOM     27  C   UNL     1       1.618   3.763  -3.599  0.00  0.00    +0.041 C 
BRANCH  21  28
ATOM     28  C   UNL     1       2.895   2.080  -4.698  0.00  0.00    +0.088 C 
ATOM     29  N   UNL     1       3.554   1.855  -5.596  0.00  0.00    -0.194 NA
ENDBRANCH  21  28
ENDBRANCH  19  21
ENDBRANCH  16  17
ENDBRANCH   7  16
TORSDOF 5
