REMARK  Name = ZINC55597832
REMARK  7 active torsions:
REMARK  status: ('A' for Active; 'I' for Inactive)
REMARK    1  A    between atoms: C_1  and  C_2
REMARK    2  A    between atoms: C_4  and  C_25
REMARK    3  A    between atoms: C_5  and  S_9
REMARK    4  A    between atoms: C_6  and  C_8
REMARK    5  A    between atoms: S_9  and  N_12
REMARK    6  A    between atoms: N_12  and  C_13
REMARK    7  A    between atoms: C_17  and  N_19
REMARK                            x       y       z     vdW  Elec       q    Type
REMARK                         _______ _______ _______ _____ _____    ______ ____
ROOT
ATOM      1  N   UNL     1       0.396  -6.150  -0.687  0.00  0.00    -0.216 N 
ATOM      2  H   UNL     1       0.319  -6.586  -1.550  0.00  0.00    +0.174 HD
ENDROOT
BRANCH   1   3
ATOM      3  C   UNL     1       1.573  -6.272   0.056  0.00  0.00    +0.050 A 
ATOM      4  C   UNL     1       2.156  -5.147   0.625  0.00  0.00    +0.024 A 
ATOM      5  C   UNL     1       3.320  -5.267   1.359  0.00  0.00    +0.004 A 
ATOM      6  C   UNL     1       3.908  -6.506   1.530  0.00  0.00    +0.024 A 
ATOM      7  C   UNL     1       3.330  -7.635   0.963  0.00  0.00    +0.040 A 
ATOM      8  C   UNL     1       2.157  -7.519   0.230  0.00  0.00    +0.048 A 
BRANCH   7   9
ATOM      9  N   UNL     1       3.926  -8.889   1.136  0.00  0.00    -0.254 N 
ATOM     10  C   UNL     1       5.080  -9.172   2.002  0.00  0.00    +0.134 C 
ATOM     11  C   UNL     1       5.317 -10.684   1.820  0.00  0.00    +0.125 C 
ATOM     12  N   UNL     1       4.272 -11.092   0.870  0.00  0.00    -0.297 N 
ATOM     13  C   UNL     1       3.533 -10.024   0.543  0.00  0.00    +0.307 C 
ATOM     14  O   UNL     1       2.592 -10.079  -0.226  0.00  0.00    -0.252 OA
ATOM     15  H   UNL     1       4.136 -11.993   0.536  0.00  0.00    +0.150 HD
ENDBRANCH   7   9
ENDBRANCH   1   3
BRANCH   1  16
ATOM     16  S   UNL     1      -0.869  -5.260  -0.093  0.00  0.00    +0.073 S 
ATOM     17  O   UNL     1      -1.029  -5.640   1.267  0.00  0.00    -0.150 OA
ATOM     18  O   UNL     1      -1.921  -5.365  -1.043  0.00  0.00    -0.150 OA
BRANCH  16  23
ATOM     19  C   UNL     1       0.871   0.517  -0.076  0.00  0.00    +0.044 C 
ATOM     20  C   UNL     1       0.436  -0.926  -0.080  0.00  0.00    -0.050 A 
ATOM     21  C   UNL     1       0.485  -1.666   1.087  0.00  0.00    +0.008 A 
ATOM     22  C   UNL     1       0.087  -2.990   1.083  0.00  0.00    -0.023 A 
ATOM     23  C   UNL     1      -0.362  -3.573  -0.088  0.00  0.00    +0.114 A 
ATOM     24  C   UNL     1      -0.412  -2.833  -1.254  0.00  0.00    -0.023 A 
ATOM     25  C   UNL     1      -0.017  -1.508  -1.249  0.00  0.00    +0.008 A 
ATOM     26  C   UNL     1      -0.900  -3.469  -2.530  0.00  0.00    +0.046 C 
ATOM     27  C   UNL     1       0.141  -3.797   2.354  0.00  0.00    +0.046 C 
ENDBRANCH  16  23
ENDBRANCH   1  16
TORSDOF 4
