REMARK  Name = ZINC29787177
REMARK  16 active torsions:
REMARK  status: ('A' for Active; 'I' for Inactive)
REMARK    1  A    between atoms: C_1  and  C_2
REMARK    2  A    between atoms: C_2  and  C_32
REMARK    3  A    between atoms: C_4  and  N_10
REMARK    4  A    between atoms: C_6  and  C_8
REMARK    5  A    between atoms: C_6  and  C_9
REMARK    6  A    between atoms: C_11  and  C_13
REMARK    7  A    between atoms: C_13  and  C_15
REMARK    8  A    between atoms: C_13  and  N_19
REMARK    9  A    between atoms: C_15  and  C_16
REMARK   10  A    between atoms: C_16  and  S_17
REMARK   11  A    between atoms: S_17  and  C_18
REMARK   12  A    between atoms: C_20  and  C_22
REMARK   13  A    between atoms: C_25  and  C_28
REMARK   14  A    between atoms: C_28  and  C_29
REMARK   15  A    between atoms: C_28  and  C_30
REMARK   16  A    between atoms: C_28  and  C_31
REMARK                            x       y       z     vdW  Elec       q    Type
REMARK                         _______ _______ _______ _____ _____    ______ ____
ROOT
ATOM      1  C   UNL     1       0.039   0.507  -4.830  0.00  0.00    +0.160 C 
ENDROOT
BRANCH   1   3
ATOM      2  N   UNL     1      -0.029   1.124  -2.435  0.00  0.00    -0.311 N 
ATOM      3  C   UNL     1      -0.691   0.988  -3.601  0.00  0.00    +0.234 C 
ATOM      4  O   UNL     1      -1.873   1.251  -3.662  0.00  0.00    -0.274 OA
ATOM      5  H   UNL     1       1.043   0.885  -2.380  0.00  0.00    +0.149 HD
BRANCH   2   9
ATOM      6  C   UNL     1      -2.000   0.769   1.489  0.00  0.00    -0.010 C 
ATOM      7  C   UNL     1      -0.717   1.580   1.270  0.00  0.00    -0.072 C 
ATOM      8  C   UNL     1      -0.013   1.088   0.008  0.00  0.00    +0.009 C 
ATOM      9  C   UNL     1      -0.740   1.592  -1.238  0.00  0.00    +0.070 C 
ATOM     10  C   UNL     1      -0.738   3.120  -1.217  0.00  0.00    +0.009 C 
ATOM     11  C   UNL     1      -1.454   3.635   0.029  0.00  0.00    -0.072 C 
ATOM     12  N   UNL     1      -0.994   3.001   1.247  0.00  0.00    +0.386 N 
ATOM     13  C   UNL     1      -1.169   5.150   0.137  0.00  0.00    -0.010 C 
ATOM     14  C   UNL     1      -2.968   3.470  -0.144  0.00  0.00    -0.010 C 
ATOM     15  C   UNL     1       0.216   1.290   2.467  0.00  0.00    -0.010 C 
ATOM     16  H   UNL     1      -1.782   3.233   1.978  0.00  0.00    -0.084 HD
ATOM     17  H   UNL     1      -0.080   3.556   1.504  0.00  0.00    -0.084 HD
ENDBRANCH   2   9
ENDBRANCH   1   3
BRANCH   1  18
ATOM     18  N   UNL     1      -0.894   0.444  -5.958  0.00  0.00    -0.300 N 
ATOM     19  C   UNL     1      -0.652  -0.393  -6.986  0.00  0.00    +0.245 C 
ATOM     20  O   UNL     1       0.340  -1.095  -6.978  0.00  0.00    -0.270 OA
ATOM     21  H   UNL     1      -1.792   1.080  -5.965  0.00  0.00    +0.150 HD
BRANCH  19  22
ATOM     22  C   UNL     1      -1.593  -0.456  -8.125  0.00  0.00    +0.037 A 
ATOM     23  C   UNL     1      -2.736   0.345  -8.135  0.00  0.00    +0.013 A 
ATOM     24  C   UNL     1      -3.608   0.284  -9.202  0.00  0.00    +0.005 A 
ATOM     25  C   UNL     1      -3.356  -0.577 -10.257  0.00  0.00    -0.042 A 
ATOM     26  C   UNL     1      -2.227  -1.377 -10.250  0.00  0.00    +0.005 A 
ATOM     27  C   UNL     1      -1.345  -1.322  -9.191  0.00  0.00    +0.013 A 
BRANCH  25  28
ATOM     28  C   UNL     1      -4.316  -0.642 -11.417  0.00  0.00    -0.013 C 
ATOM     29  C   UNL     1      -4.867  -2.063 -11.543  0.00  0.00    +0.015 C 
ATOM     30  C   UNL     1      -5.470   0.334 -11.180  0.00  0.00    +0.015 C 
ATOM     31  C   UNL     1      -3.584  -0.262 -12.706  0.00  0.00    +0.015 C 
ENDBRANCH  25  28
ENDBRANCH  19  22
ENDBRANCH   1  18
BRANCH   1  32
ATOM     32  C   UNL     1       1.174   1.478  -5.160  0.00  0.00    +0.042 C 
BRANCH  32  33
ATOM     33  C   UNL     1       1.992   0.927  -6.330  0.00  0.00    +0.071 C 
BRANCH  33  34
ATOM     34  S   UNL     1       3.338   2.077  -6.723  0.00  0.00    -0.164 S 
ATOM     35  C   UNL     1       4.199   1.288  -8.111  0.00  0.00    +0.084 C 
ENDBRANCH  33  34
ENDBRANCH  32  33
ENDBRANCH   1  32
TORSDOF 8
