REMARK  Name = ZINC39515546
REMARK  9 active torsions:
REMARK  status: ('A' for Active; 'I' for Inactive)
REMARK    1  A    between atoms: C_1  and  C_2
REMARK    2  A    between atoms: C_7  and  C_31
REMARK    3  A    between atoms: C_8  and  C_12
REMARK    4  A    between atoms: C_12  and  N_13
REMARK    5  A    between atoms: N_16  and  C_23
REMARK    6  A    between atoms: C_17  and  C_20
REMARK    7  A    between atoms: C_20  and  C_21
REMARK    8  A    between atoms: C_21  and  O_22
REMARK    9  A    between atoms: C_23  and  C_24
REMARK                            x       y       z     vdW  Elec       q    Type
REMARK                         _______ _______ _______ _____ _____    ______ ____
ROOT
ATOM      1  N   UNL     1      -6.324   0.763  -0.148  0.00  0.00    +0.385 N 
ATOM      2  C   UNL     1      -6.606   0.589  -1.579  0.00  0.00    -0.063 C 
ATOM      3  C   UNL     1      -7.270  -0.770  -1.807  0.00  0.00    +0.066 C 
ATOM      4  N   UNL     1      -8.518  -0.840  -1.033  0.00  0.00    -0.299 NA
ATOM      5  C   UNL     1      -8.254  -0.642   0.400  0.00  0.00    +0.043 C 
ATOM      6  C   UNL     1      -7.582   0.716   0.610  0.00  0.00    -0.059 C 
ATOM      7  H   UNL     1      -5.715   0.023   0.166  0.00  0.00    -0.081 HD
ENDROOT
BRANCH   1   8
ATOM      8  C   UNL     1      -5.671   2.061   0.068  0.00  0.00    -0.024 C 
BRANCH   8  16
ATOM      9  C   UNL     1      -2.476   3.768  -4.250  0.00  0.00    +0.046 C 
ATOM     10  C   UNL     1      -1.899   2.906  -3.156  0.00  0.00    -0.027 A 
ATOM     11  C   UNL     1      -0.576   2.525  -3.202  0.00  0.00    +0.005 A 
ATOM     12  C   UNL     1      -0.033   1.731  -2.201  0.00  0.00    +0.001 A 
ATOM     13  C   UNL     1      -0.803   1.314  -1.152  0.00  0.00    +0.010 A 
ATOM     14  C   UNL     1      -2.146   1.689  -1.086  0.00  0.00    +0.003 A 
ATOM     15  C   UNL     1      -3.230   1.431  -0.134  0.00  0.00    -0.024 A 
ATOM     16  C   UNL     1      -4.320   2.060  -0.601  0.00  0.00    +0.003 A 
ATOM     17  H   UNL     1      -4.651   3.223  -2.297  0.00  0.00    +0.166 HD
ATOM     18  N   UNL     1      -4.023   2.701  -1.773  0.00  0.00    -0.359 N 
ATOM     19  C   UNL     1      -2.700   2.498  -2.095  0.00  0.00    +0.050 A 
ATOM     20  C   UNL     1      -3.138   0.612   1.128  0.00  0.00    +0.046 C 
ENDBRANCH   8  16
ENDBRANCH   1   8
BRANCH   5  21
ATOM     21  C   UNL     1      -9.574  -0.684   1.172  0.00  0.00    +0.045 C 
BRANCH  21  22
ATOM     22  C   UNL     1      -9.294  -0.535   2.669  0.00  0.00    +0.157 C 
BRANCH  22  23
ATOM     23  O   UNL     1     -10.511  -0.695   3.400  0.00  0.00    -0.395 OA
ATOM     24  H   UNL     1     -10.409  -0.612   4.358  0.00  0.00    +0.209 HD
ENDBRANCH  22  23
ENDBRANCH  21  22
ENDBRANCH   5  21
BRANCH   4  25
ATOM     25  C   UNL     1      -9.215  -2.111  -1.270  0.00  0.00    +0.119 C 
BRANCH  25  26
ATOM     26  C   UNL     1      -9.781  -2.120  -2.666  0.00  0.00    -0.033 A 
ATOM     27  C   UNL     1     -11.055  -1.638  -2.899  0.00  0.00    +0.008 A 
ATOM     28  C   UNL     1     -11.575  -1.646  -4.179  0.00  0.00    +0.038 A 
ATOM     29  C   UNL     1     -10.819  -2.138  -5.229  0.00  0.00    +0.123 A 
ATOM     30  C   UNL     1      -9.542  -2.621  -4.996  0.00  0.00    +0.038 A 
ATOM     31  C   UNL     1      -9.023  -2.607  -3.715  0.00  0.00    +0.008 A 
ATOM     32  F   UNL     1     -11.326  -2.146  -6.482  0.00  0.00    -0.205 F 
ENDBRANCH  25  26
ENDBRANCH   4  25
TORSDOF 7
