REMARK  Name = ZINC03399237
REMARK  5 active torsions:
REMARK  status: ('A' for Active; 'I' for Inactive)
REMARK    1  A    between atoms: C_9  and  C_24
REMARK    2  A    between atoms: C_11  and  C_18
REMARK    3  A    between atoms: C_12  and  C_13
REMARK    4  A    between atoms: C_12  and  O_17
REMARK    5  A    between atoms: C_18  and  C_20
REMARK                            x       y       z     vdW  Elec       q    Type
REMARK                         _______ _______ _______ _____ _____    ______ ____
ROOT
ATOM      1  C   UNL     1      -0.559   3.351  -3.708  0.00  0.00    +0.002 A 
ATOM      2  C   UNL     1      -0.690   4.729  -3.772  0.00  0.00    +0.001 A 
ATOM      3  C   UNL     1      -0.234   5.501  -2.718  0.00  0.00    +0.017 A 
ATOM      4  C   UNL     1       0.340   4.888  -1.628  0.00  0.00    +0.035 A 
ATOM      5  C   UNL     1       0.486   3.500  -1.537  0.00  0.00    +0.051 A 
ATOM      6  C   UNL     1       0.015   2.739  -2.619  0.00  0.00    +0.024 A 
ATOM      7  N   UNL     1       1.088   3.023  -0.370  0.00  0.00    -0.253 N 
ATOM      8  C   UNL     1       1.477   3.934   0.566  0.00  0.00    +0.093 C 
ATOM      9  C   UNL     1       2.089   3.589   1.772  0.00  0.00    +0.080 C 
ATOM     10  C   UNL     1       2.356   2.256   2.120  0.00  0.00    +0.033 C 
ATOM     11  C   UNL     1       2.007   1.242   1.251  0.00  0.00    +0.064 C 
ATOM     12  C   UNL     1       1.345   1.594  -0.057  0.00  0.00    +0.265 C 
ATOM     13  S   UNL     1       1.039   5.467  -0.104  0.00  0.00    -0.071 S 
ENDROOT
BRANCH  12  14
ATOM     14  C   UNL     1       2.213   1.025  -1.181  0.00  0.00    +0.441 C 
ATOM     15  F   UNL     1       1.669   1.386  -2.418  0.00  0.00    -0.166 F 
ATOM     16  F   UNL     1       3.510   1.538  -1.074  0.00  0.00    -0.166 F 
ATOM     17  F   UNL     1       2.253  -0.369  -1.078  0.00  0.00    -0.166 F 
ENDBRANCH  12  14
BRANCH  12  18
ATOM     18  O   UNL     1       0.090   0.911  -0.102  0.00  0.00    -0.361 OA
ATOM     19  H   UNL     1       0.168  -0.052  -0.129  0.00  0.00    +0.213 HD
ENDBRANCH  12  18
BRANCH  11  20
ATOM     20  C   UNL     1       2.262  -0.088   1.578  0.00  0.00    +0.266 C 
ATOM     21  O   UNL     1       1.346  -0.823   1.899  0.00  0.00    -0.283 OA
BRANCH  20  22
ATOM     22  C   UNL     1       3.672  -0.618   1.533  0.00  0.00    +0.455 C 
ATOM     23  F   UNL     1       3.722  -1.743   0.704  0.00  0.00    -0.163 F 
ATOM     24  F   UNL     1       4.526   0.370   1.030  0.00  0.00    -0.163 F 
ATOM     25  F   UNL     1       4.078  -0.971   2.825  0.00  0.00    -0.163 F 
ENDBRANCH  20  22
ENDBRANCH  11  20
BRANCH   9  26
ATOM     26  C   UNL     1       2.458   4.630   2.684  0.00  0.00    +0.102 C 
ATOM     27  N   UNL     1       2.750   5.455   3.407  0.00  0.00    -0.191 NA
ENDBRANCH   9  26
TORSDOF 5
