REMARK  Name = ZINC65995284
REMARK  8 active torsions:
REMARK  status: ('A' for Active; 'I' for Inactive)
REMARK    1  A    between atoms: C_1  and  C_2
REMARK    2  A    between atoms: C_2  and  C_3
REMARK    3  A    between atoms: C_2  and  N_15
REMARK    4  A    between atoms: C_7  and  N_9
REMARK    5  A    between atoms: N_18  and  C_19
REMARK    6  A    between atoms: N_18  and  C_20
REMARK    7  A    between atoms: C_20  and  C_21
REMARK    8  A    between atoms: C_24  and  O_27
REMARK                            x       y       z     vdW  Elec       q    Type
REMARK                         _______ _______ _______ _____ _____    ______ ____
ROOT
ATOM      1  N   UNL     1       0.688  -0.476  -1.203  0.00  0.00    -0.293 N 
ATOM      2  C   UNL     1       0.006  -0.608  -2.358  0.00  0.00    +0.303 C 
ATOM      3  O   UNL     1      -1.178  -0.335  -2.400  0.00  0.00    -0.253 OA
ATOM      4  N   UNL     1       0.637  -1.043  -3.467  0.00  0.00    -0.284 N 
ATOM      5  C   UNL     1       2.064  -1.372  -3.417  0.00  0.00    +0.134 C 
ATOM      6  H   UNL     1       1.632  -0.695  -1.170  0.00  0.00    +0.151 HD
ENDROOT
BRANCH   1   8
ATOM      7  C   UNL     1      -0.019   1.526   0.010  0.00  0.00    +0.033 C 
ATOM      8  C   UNL     1       0.002  -0.004   0.002  0.00  0.00    +0.102 C 
BRANCH   8   9
ATOM      9  C   UNL     1       0.731  -0.503   1.223  0.00  0.00    -0.026 A 
ATOM     10  C   UNL     1       2.114  -0.513   1.246  0.00  0.00    +0.005 A 
ATOM     11  C   UNL     1       2.786  -0.971   2.364  0.00  0.00    +0.002 A 
ATOM     12  C   UNL     1       2.078  -1.419   3.462  0.00  0.00    +0.023 A 
ATOM     13  C   UNL     1       0.690  -1.410   3.442  0.00  0.00    +0.040 A 
ATOM     14  C   UNL     1       0.017  -0.945   2.320  0.00  0.00    +0.029 A 
BRANCH  13  15
ATOM     15  N   UNL     1      -0.030  -1.863   4.553  0.00  0.00    -0.234 N 
ATOM     16  C   UNL     1       0.544  -2.373   5.814  0.00  0.00    +0.158 C 
ATOM     17  C   UNL     1      -0.678  -2.350   6.763  0.00  0.00    +0.253 C 
ATOM     18  O   UNL     1      -1.779  -2.427   5.837  0.00  0.00    -0.448 OA
ATOM     19  C   UNL     1      -1.371  -1.908   4.666  0.00  0.00    +0.407 C 
ATOM     20  O   UNL     1      -2.132  -1.524   3.800  0.00  0.00    -0.226 OA
ENDBRANCH  13  15
ENDBRANCH   8   9
ENDBRANCH   1   8
BRANCH   4  21
ATOM     21  C   UNL     1      -0.104  -1.186  -4.723  0.00  0.00    +0.144 C 
BRANCH  21  22
ATOM     22  C   UNL     1      -0.036   0.106  -5.496  0.00  0.00    -0.030 A 
ATOM     23  C   UNL     1      -0.999   1.078  -5.301  0.00  0.00    +0.009 A 
ATOM     24  C   UNL     1      -0.940   2.263  -6.009  0.00  0.00    +0.046 A 
ATOM     25  C   UNL     1       0.088   2.477  -6.916  0.00  0.00    +0.117 A 
ATOM     26  C   UNL     1       1.053   1.500  -7.110  0.00  0.00    +0.046 A 
ATOM     27  C   UNL     1       0.992   0.319  -6.396  0.00  0.00    +0.009 A 
BRANCH  25  28
ATOM     28  O   UNL     1       0.148   3.642  -7.614  0.00  0.00    -0.507 OA
ATOM     29  H   UNL     1       0.657   4.337  -7.175  0.00  0.00    +0.292 HD
ENDBRANCH  25  28
ENDBRANCH  21  22
ENDBRANCH   4  21
TORSDOF 6
