REMARK  Name = ZINC04748807
REMARK  6 active torsions:
REMARK  status: ('A' for Active; 'I' for Inactive)
REMARK    1  A    between atoms: C_1  and  O_2
REMARK    2  A    between atoms: O_2  and  C_3
REMARK    3  A    between atoms: C_6  and  C_9
REMARK    4  A    between atoms: N_10  and  N_11
REMARK    5  A    between atoms: C_14  and  C_17
REMARK    6  A    between atoms: C_22  and  O_28
REMARK                            x       y       z     vdW  Elec       q    Type
REMARK                         _______ _______ _______ _____ _____    ______ ____
ROOT
ATOM      1  N   UNL     1       8.543  -2.223  -0.086  0.00  0.00    -0.215 N 
ATOM      2  C   UNL     1       7.255  -2.730  -0.078  0.00  0.00    +0.178 A 
ATOM      3  N   UNL     1       6.102  -2.085  -0.065  0.00  0.00    -0.223 NA
ATOM      4  C   UNL     1       4.949  -2.738  -0.058  0.00  0.00    +0.087 A 
ATOM      5  C   UNL     1       4.953  -4.106  -0.060  0.00  0.00    +0.077 A 
ATOM      6  S   UNL     1       6.711  -4.433  -0.082  0.00  0.00    -0.059 S 
ATOM      7  H   UNL     1       8.686  -1.263  -0.083  0.00  0.00    +0.176 HD
ENDROOT
BRANCH   4   8
ATOM      8  C   UNL     1       3.668  -1.994  -0.043  0.00  0.00    +0.086 A 
ATOM      9  C   UNL     1       3.660  -0.625  -0.036  0.00  0.00    +0.028 A 
ATOM     10  C   UNL     1       2.414   0.053  -0.021  0.00  0.00    +0.018 A 
ATOM     11  C   UNL     1       2.375   1.456  -0.013  0.00  0.00    +0.015 A 
ATOM     12  C   UNL     1       1.175   2.103   0.002  0.00  0.00    +0.046 A 
ATOM     13  C   UNL     1      -0.017   1.381   0.010  0.00  0.00    +0.120 A 
ATOM     14  C   UNL     1       0.002  -0.004   0.002  0.00  0.00    +0.092 A 
ATOM     15  C   UNL     1       1.214  -0.680  -0.013  0.00  0.00    +0.143 A 
ATOM     16  O   UNL     1       1.232  -2.031  -0.020  0.00  0.00    -0.422 OA
ATOM     17  C   UNL     1       2.391  -2.712  -0.035  0.00  0.00    +0.347 A 
ATOM     18  O   UNL     1       2.379  -3.929  -0.041  0.00  0.00    -0.244 OA
BRANCH  13  19
ATOM     19  O   UNL     1      -1.204   2.038   0.019  0.00  0.00    -0.507 OA
ATOM     20  H   UNL     1      -1.544   2.224   0.905  0.00  0.00    +0.292 HD
ENDBRANCH  13  19
ENDBRANCH   4   8
BRANCH   1  22
ATOM     21  C   UNL     1      10.847  -2.618  -0.108  0.00  0.00    +0.138 C 
ATOM     22  N   UNL     1       9.639  -3.094  -0.100  0.00  0.00    -0.188 NA
BRANCH  21  26
ATOM     23  C   UNL     1      14.170  -5.260  -0.148  0.00  0.00    +0.120 A 
ATOM     24  C   UNL     1      14.378  -3.886  -0.144  0.00  0.00    +0.046 A 
ATOM     25  C   UNL     1      13.302  -3.025  -0.131  0.00  0.00    +0.013 A 
ATOM     26  C   UNL     1      12.001  -3.535  -0.122  0.00  0.00    -0.005 A 
ATOM     27  C   UNL     1      11.797  -4.918  -0.122  0.00  0.00    +0.013 A 
ATOM     28  C   UNL     1      12.879  -5.771  -0.140  0.00  0.00    +0.046 A 
BRANCH  23  30
ATOM     29  C   UNL     1      14.949  -7.505  -0.164  0.00  0.00    +0.277 C 
ATOM     30  O   UNL     1      15.234  -6.105  -0.160  0.00  0.00    -0.495 OA
ENDBRANCH  23  30
ENDBRANCH  21  26
ENDBRANCH   1  22
TORSDOF 5
