REMARK  Name = ZINC06605646
REMARK  6 active torsions:
REMARK  status: ('A' for Active; 'I' for Inactive)
REMARK    1  A    between atoms: C_1  and  C_2
REMARK    2  A    between atoms: C_2  and  C_4
REMARK    3  A    between atoms: C_2  and  N_11
REMARK    4  A    between atoms: C_12  and  C_14
REMARK    5  A    between atoms: C_14  and  S_15
REMARK    6  A    between atoms: S_15  and  C_16
REMARK                            x       y       z     vdW  Elec       q    Type
REMARK                         _______ _______ _______ _____ _____    ______ ____
ROOT
ATOM      1  N   UNL     1       0.711  -0.489   1.189  0.00  0.00    -0.308 N 
ATOM      2  C   UNL     1       2.054  -0.600   1.174  0.00  0.00    +0.224 C 
ATOM      3  O   UNL     1       2.676  -0.297   0.177  0.00  0.00    -0.275 OA
ATOM      4  H   UNL     1       0.213  -0.731   1.986  0.00  0.00    +0.149 HD
ENDROOT
BRANCH   1   6
ATOM      5  C   UNL     1      -0.019   1.526   0.010  0.00  0.00    +0.033 C 
ATOM      6  C   UNL     1       0.002  -0.004   0.002  0.00  0.00    +0.100 C 
BRANCH   6   7
ATOM      7  C   UNL     1      -1.412  -0.526   0.013  0.00  0.00    -0.027 A 
ATOM      8  C   UNL     1      -2.123  -0.571   1.198  0.00  0.00    +0.006 A 
ATOM      9  C   UNL     1      -3.420  -1.049   1.208  0.00  0.00    +0.015 A 
ATOM     10  C   UNL     1      -4.006  -1.482   0.032  0.00  0.00    +0.018 A 
ATOM     11  C   UNL     1      -3.294  -1.437  -1.153  0.00  0.00    +0.015 A 
ATOM     12  C   UNL     1      -1.999  -0.954  -1.163  0.00  0.00    +0.006 A 
ATOM     13 BR   UNL     1      -5.780  -2.136   0.046  0.00  0.00    -0.050 Br
ENDBRANCH   6   7
ENDBRANCH   1   6
BRANCH   2  14
ATOM     14  C   UNL     1       2.783  -1.099   2.395  0.00  0.00    +0.173 C 
BRANCH  14  15
ATOM     15  S   UNL     1       4.566  -1.134   2.062  0.00  0.00    -0.075 S 
BRANCH  15  16
ATOM     16  C   UNL     1       5.268  -1.731   3.564  0.00  0.00    +0.210 A 
ATOM     17  N   UNL     1       6.572  -1.919   3.792  0.00  0.00    -0.188 NA
ATOM     18  C   UNL     1       6.747  -2.373   5.014  0.00  0.00    +0.209 A 
ATOM     19  N   UNL     1       5.535  -2.483   5.596  0.00  0.00    -0.246 N 
ATOM     20  H   UNL     1       5.349  -2.791   6.497  0.00  0.00    +0.192 HD
ATOM     21  N   UNL     1       4.596  -2.058   4.642  0.00  0.00    -0.144 NA
ATOM     22  N   UNL     1       7.961  -2.683   5.601  0.00  0.00    -0.328 N 
ATOM     23  H   UNL     1       8.784  -2.571   5.100  0.00  0.00    +0.145 HD
ATOM     24  H   UNL     1       7.989  -3.013   6.512  0.00  0.00    +0.145 HD
ENDBRANCH  15  16
ENDBRANCH  14  15
ENDBRANCH   2  14
TORSDOF 5
