REMARK  Name = ZINC59016935
REMARK  6 active torsions:
REMARK  status: ('A' for Active; 'I' for Inactive)
REMARK    1  A    between atoms: C_5  and  C_7
REMARK    2  A    between atoms: C_7  and  S_8
REMARK    3  A    between atoms: S_8  and  C_9
REMARK    4  A    between atoms: N_15  and  N_16
REMARK    5  A    between atoms: C_17  and  C_18
REMARK    6  A    between atoms: C_23  and  O_24
REMARK                            x       y       z     vdW  Elec       q    Type
REMARK                         _______ _______ _______ _____ _____    ______ ____
ROOT
ATOM      1  C   UNL     1       1.276  -4.553   1.507  0.00  0.00    +0.191 A 
ATOM      2  N   UNL     1       1.293  -5.463   2.525  0.00  0.00    -0.303 N 
ATOM      3  H   UNL     1       1.295  -5.258   3.473  0.00  0.00    +0.171 HD
ATOM      4  C   UNL     1       1.306  -6.715   1.973  0.00  0.00    +0.235 A 
ATOM      5  N   UNL     1       1.297  -6.582   0.669  0.00  0.00    -0.111 NA
ATOM      6  N   UNL     1       1.273  -5.213   0.373  0.00  0.00    -0.121 NA
ATOM      7  N   UNL     1       1.325  -7.913   2.671  0.00  0.00    -0.205 N 
ATOM      8  H   UNL     1       1.331  -7.910   3.641  0.00  0.00    +0.177 HD
ENDROOT
BRANCH   7   9
ATOM      9  N   UNL     1       1.337  -9.129   1.975  0.00  0.00    -0.187 NA
ATOM     10  C   UNL     1       1.355 -10.251   2.628  0.00  0.00    +0.142 C 
BRANCH  10  11
ATOM     11  C   UNL     1       1.368 -11.530   1.896  0.00  0.00    +0.037 A 
ATOM     12  C   UNL     1       1.382 -12.739   2.595  0.00  0.00    +0.028 A 
ATOM     13  C   UNL     1       1.393 -13.933   1.903  0.00  0.00    +0.019 A 
ATOM     14  C   UNL     1       1.391 -13.937   0.518  0.00  0.00    +0.019 A 
ATOM     15  C   UNL     1       1.378 -12.746  -0.184  0.00  0.00    +0.047 A 
ATOM     16  C   UNL     1       1.360 -11.540   0.495  0.00  0.00    +0.126 A 
ATOM     17 BR   UNL     1       1.412 -15.570   2.849  0.00  0.00    -0.050 Br
BRANCH  16  18
ATOM     18  O   UNL     1       1.340 -10.369  -0.195  0.00  0.00    -0.506 OA
ATOM     19  H   UNL     1       2.217 -10.019  -0.400  0.00  0.00    +0.292 HD
ENDBRANCH  16  18
ENDBRANCH  10  11
ENDBRANCH   7   9
BRANCH   1  20
ATOM     20  S   UNL     1       1.254  -2.800   1.685  0.00  0.00    -0.081 S 
BRANCH  20  21
ATOM     21  C   UNL     1       1.229  -2.186  -0.022  0.00  0.00    +0.114 C 
BRANCH  21  26
ATOM     22  C   UNL     1      -0.017   1.378   0.010  0.00  0.00    +0.000 A 
ATOM     23  C   UNL     1       1.171   2.086   0.002  0.00  0.00    +0.001 A 
ATOM     24  C   UNL     1       2.377   1.412  -0.013  0.00  0.00    +0.020 A 
ATOM     25  C   UNL     1       2.397   0.029  -0.021  0.00  0.00    +0.045 A 
ATOM     26  C   UNL     1       1.208  -0.679  -0.013  0.00  0.00    -0.019 A 
ATOM     27  C   UNL     1       0.002  -0.004   0.002  0.00  0.00    +0.006 A 
ATOM     28 CL   UNL     1       3.912  -0.818  -0.041  0.00  0.00    -0.083 Cl
ENDBRANCH  21  26
ENDBRANCH  20  21
ENDBRANCH   1  20
TORSDOF 6
