REMARK  Name = ZINC13133549
REMARK  6 active torsions:
REMARK  status: ('A' for Active; 'I' for Inactive)
REMARK    1  A    between atoms: C_1  and  C_2
REMARK    2  A    between atoms: C_2  and  O_3
REMARK    3  A    between atoms: O_3  and  C_4
REMARK    4  A    between atoms: C_4  and  C_5
REMARK    5  A    between atoms: C_6  and  C_17
REMARK    6  A    between atoms: C_15  and  C_16
REMARK                            x       y       z     vdW  Elec       q    Type
REMARK                         _______ _______ _______ _____ _____    ______ ____
ROOT
ATOM      1  C   UNL     1      -2.798  -2.431   0.223  0.00  0.00    +0.082 C 
ATOM      2  C   UNL     1      -3.978  -1.507   0.373  0.00  0.00    +0.179 C 
ATOM      3  N   UNL     1      -5.175  -2.158  -0.153  0.00  0.00    -0.221 N 
ATOM      4  C   UNL     1      -5.236  -3.476  -0.466  0.00  0.00    +0.197 A 
ATOM      5  N   UNL     1      -6.440  -3.734  -0.899  0.00  0.00    -0.305 N 
ATOM      6  C   UNL     1      -7.173  -2.611  -0.883  0.00  0.00    +0.199 A 
ATOM      7  N   UNL     1      -6.431  -1.622  -0.432  0.00  0.00    -0.142 NA
ATOM      8  S   UNL     1      -8.857  -2.481  -1.383  0.00  0.00    -0.009 SA
ATOM      9  N   UNL     1      -4.141  -4.316  -0.316  0.00  0.00    -0.289 N 
ATOM     10  C   UNL     1      -2.920  -3.728  -0.098  0.00  0.00    +0.020 C 
ATOM     11  C   UNL     1      -1.675  -4.569  -0.219  0.00  0.00    +0.061 C 
ATOM     12  H   UNL     1      -4.235  -5.280  -0.367  0.00  0.00    +0.155 HD
ATOM     13  H   UNL     1      -6.756  -4.604  -1.188  0.00  0.00    +0.171 HD
ENDROOT
BRANCH   2  14
ATOM     14  C   UNL     1      -4.181  -1.185   1.831  0.00  0.00    -0.018 A 
ATOM     15  C   UNL     1      -4.428  -2.201   2.735  0.00  0.00    +0.007 A 
ATOM     16  C   UNL     1      -4.614  -1.907   4.073  0.00  0.00    +0.020 A 
ATOM     17  C   UNL     1      -4.553  -0.594   4.507  0.00  0.00    +0.041 A 
ATOM     18  C   UNL     1      -4.305   0.422   3.602  0.00  0.00    +0.020 A 
ATOM     19  C   UNL     1      -4.113   0.126   2.265  0.00  0.00    +0.007 A 
ATOM     20 CL   UNL     1      -4.787  -0.223   6.186  0.00  0.00    -0.084 Cl
ENDBRANCH   2  14
BRANCH   1  21
ATOM     21  C   UNL     1      -1.502  -1.906   0.423  0.00  0.00    +0.339 C 
ATOM     22  O   UNL     1      -1.000  -1.185  -0.420  0.00  0.00    -0.245 OA
BRANCH  21  23
ATOM     23  O   UNL     1      -0.820  -2.203   1.549  0.00  0.00    -0.462 OA
BRANCH  23  25
ATOM     24  C   UNL     1       1.098  -2.083   3.015  0.00  0.00    +0.048 C 
ATOM     25  C   UNL     1       0.485  -1.637   1.685  0.00  0.00    +0.229 C 
ENDBRANCH  23  25
ENDBRANCH  21  23
ENDBRANCH   1  21
TORSDOF 4
