REMARK  Name = ZINC20571079
REMARK  5 active torsions:
REMARK  status: ('A' for Active; 'I' for Inactive)
REMARK    1  A    between atoms: C_1  and  C_2
REMARK    2  A    between atoms: C_12  and  C_14
REMARK    3  A    between atoms: C_17  and  N_20
REMARK    4  A    between atoms: N_20  and  S_21
REMARK    5  A    between atoms: S_21  and  C_24
REMARK                            x       y       z     vdW  Elec       q    Type
REMARK                         _______ _______ _______ _____ _____    ______ ____
ROOT
ATOM      1  C   UNL     1      -3.325   3.051  -6.751  0.00  0.00    +0.037 A 
ATOM      2  C   UNL     1      -2.844   2.365  -7.870  0.00  0.00    +0.015 A 
ATOM      3  C   UNL     1      -3.372   2.624  -9.114  0.00  0.00    +0.025 A 
ATOM      4  C   UNL     1      -4.378   3.575  -9.260  0.00  0.00    +0.048 A 
ATOM      5  C   UNL     1      -4.856   4.264  -8.148  0.00  0.00    +0.025 A 
ATOM      6  C   UNL     1      -4.336   4.006  -6.901  0.00  0.00    +0.015 A 
ENDROOT
BRANCH   1  17
ATOM      7  C   UNL     1       1.152   0.296   1.742  0.00  0.00    +0.008 C 
ATOM      8  C   UNL     1       0.171   0.600   0.609  0.00  0.00    -0.009 C 
ATOM      9  C   UNL     1      -0.157   2.096   0.599  0.00  0.00    +0.010 C 
ATOM     10  C   UNL     1      -1.315   2.376  -0.361  0.00  0.00    +0.056 C 
ATOM     11  C   UNL     1      -0.980   1.774  -1.721  0.00  0.00    +0.054 A 
ATOM     12  C   UNL     1      -0.021   0.817  -1.829  0.00  0.00    +0.015 A 
ATOM     13  S   UNL     1      -0.016   0.465  -3.566  0.00  0.00    -0.057 S 
ATOM     14  C   UNL     1      -1.263   1.590  -4.014  0.00  0.00    +0.165 A 
ATOM     15  N   UNL     1      -1.578   2.130  -2.855  0.00  0.00    -0.229 NA
ATOM     16  N   UNL     1      -1.791   1.852  -5.272  0.00  0.00    -0.261 N 
ATOM     17  C   UNL     1      -2.765   2.773  -5.415  0.00  0.00    +0.250 C 
ATOM     18  O   UNL     1      -3.181   3.374  -4.444  0.00  0.00    -0.270 OA
ATOM     19  C   UNL     1       0.808   0.226  -0.739  0.00  0.00    +0.047 C 
ATOM     20  H   UNL     1      -1.414   1.309  -6.151  0.00  0.00    +0.157 HD
ENDBRANCH   1  17
BRANCH   4  21
ATOM     21  N   UNL     1      -4.907   3.838 -10.519  0.00  0.00    -0.216 N 
ATOM     22  H   UNL     1      -5.595   3.119 -10.987  0.00  0.00    +0.174 HD
BRANCH  21  23
ATOM     23  S   UNL     1      -4.500   5.233 -11.313  0.00  0.00    +0.072 S 
ATOM     24  O   UNL     1      -5.147   5.184 -12.578  0.00  0.00    -0.150 OA
ATOM     25  O   UNL     1      -4.703   6.298 -10.395  0.00  0.00    -0.150 OA
BRANCH  23  26
ATOM     26  C   UNL     1      -2.768   5.165 -11.631  0.00  0.00    +0.108 A 
ATOM     27  C   UNL     1      -1.873   5.624 -10.682  0.00  0.00    +0.029 A 
ATOM     28  C   UNL     1      -0.514   5.567 -10.929  0.00  0.00    +0.002 A 
ATOM     29  C   UNL     1      -0.051   5.060 -12.129  0.00  0.00    +0.000 A 
ATOM     30  C   UNL     1      -0.946   4.606 -13.079  0.00  0.00    +0.002 A 
ATOM     31  C   UNL     1      -2.304   4.659 -12.830  0.00  0.00    +0.029 A 
ENDBRANCH  23  26
ENDBRANCH  21  23
ENDBRANCH   4  21
TORSDOF 4
