REMARK  Name = ZINC49149835
REMARK  5 active torsions:
REMARK  status: ('A' for Active; 'I' for Inactive)
REMARK    1  A    between atoms: C_3  and  O_20
REMARK    2  A    between atoms: C_4  and  N_19
REMARK    3  A    between atoms: C_6  and  S_7
REMARK    4  A    between atoms: S_7  and  N_10
REMARK    5  A    between atoms: N_10  and  C_11
REMARK                            x       y       z     vdW  Elec       q    Type
REMARK                         _______ _______ _______ _____ _____    ______ ____
ROOT
ATOM      1  S   UNL     1      -1.566  -0.998   0.037  0.00  0.00    +0.072 S 
ATOM      2  O   UNL     1      -1.345  -2.314   0.525  0.00  0.00    -0.150 OA
ATOM      3  O   UNL     1      -2.533  -0.127   0.608  0.00  0.00    -0.150 OA
ENDROOT
BRANCH   1   9
ATOM      4  C   UNL     1       0.015   1.219   0.204  0.00  0.00    +0.032 A 
ATOM      5  C   UNL     1       1.227   1.882   0.276  0.00  0.00    +0.049 A 
ATOM      6  C   UNL     1       2.411   1.164   0.272  0.00  0.00    +0.137 A 
ATOM      7  C   UNL     1       2.378  -0.227   0.196  0.00  0.00    +0.068 A 
ATOM      8  C   UNL     1       1.159  -0.885   0.124  0.00  0.00    +0.055 A 
ATOM      9  C   UNL     1      -0.019  -0.161   0.129  0.00  0.00    +0.110 A 
BRANCH   7  10
ATOM     10  N   UNL     1       3.571  -0.959   0.191  0.00  0.00    -0.355 N 
ATOM     11  H   UNL     1       4.423  -0.497   0.241  0.00  0.00    +0.142 HD
ATOM     12  H   UNL     1       3.546  -1.927   0.138  0.00  0.00    +0.142 HD
ENDBRANCH   7  10
BRANCH   6  13
ATOM     13  O   UNL     1       3.603   1.814   0.342  0.00  0.00    -0.505 OA
ATOM     14  H   UNL     1       3.922   1.955   1.244  0.00  0.00    +0.292 HD
ENDBRANCH   6  13
ENDBRANCH   1   9
BRANCH   1  15
ATOM     15  N   UNL     1      -1.950  -1.145  -1.567  0.00  0.00    -0.215 N 
ATOM     16  H   UNL     1      -2.762  -0.741  -1.910  0.00  0.00    +0.174 HD
BRANCH  15  17
ATOM     17  C   UNL     1      -1.103  -1.852  -2.426  0.00  0.00    +0.062 A 
ATOM     18  C   UNL     1      -0.430  -2.978  -1.968  0.00  0.00    +0.027 A 
ATOM     19  C   UNL     1       0.405  -3.675  -2.819  0.00  0.00    +0.017 A 
ATOM     20  C   UNL     1       0.572  -3.253  -4.126  0.00  0.00    +0.019 A 
ATOM     21  C   UNL     1      -0.097  -2.132  -4.585  0.00  0.00    +0.032 A 
ATOM     22  C   UNL     1      -0.938  -1.434  -3.740  0.00  0.00    +0.041 A 
ATOM     23 BR   UNL     1      -1.858   0.093  -4.370  0.00  0.00    -0.048 Br
ATOM     24 BR   UNL     1       1.717  -4.210  -5.287  0.00  0.00    -0.050 Br
ENDBRANCH  15  17
ENDBRANCH   1  15
TORSDOF 5
