REMARK  Name = ZINC54575640
REMARK  7 active torsions:
REMARK  status: ('A' for Active; 'I' for Inactive)
REMARK    1  A    between atoms: C_1  and  C_2
REMARK    2  A    between atoms: C_2  and  C_4
REMARK    3  A    between atoms: C_2  and  C_23
REMARK    4  A    between atoms: C_4  and  N_5
REMARK    5  A    between atoms: N_8  and  N_9
REMARK    6  A    between atoms: C_10  and  C_12
REMARK    7  A    between atoms: C_23  and  N_24
REMARK                            x       y       z     vdW  Elec       q    Type
REMARK                         _______ _______ _______ _____ _____    ______ ____
ROOT
ATOM      1  N   UNL     1      -0.055  -0.114  -2.441  0.00  0.00    -0.298 N 
ATOM      2  C   UNL     1       0.387  -0.445  -3.670  0.00  0.00    +0.316 C 
ATOM      3  O   UNL     1       1.427  -1.062  -3.797  0.00  0.00    -0.251 OA
ATOM      4  N   UNL     1      -0.325  -0.092  -4.759  0.00  0.00    -0.218 N 
ATOM      5  H   UNL     1      -0.885   0.378  -2.339  0.00  0.00    +0.150 HD
ATOM      6  H   UNL     1      -0.007  -0.330  -5.644  0.00  0.00    +0.174 HD
ENDROOT
BRANCH   4   7
ATOM      7  N   UNL     1      -1.523   0.619  -4.613  0.00  0.00    -0.229 N 
ATOM      8  C   UNL     1      -2.234   0.972  -5.702  0.00  0.00    +0.267 C 
ATOM      9  O   UNL     1      -1.835   0.673  -6.812  0.00  0.00    -0.268 OA
ATOM     10  H   UNL     1      -1.841   0.857  -3.728  0.00  0.00    +0.173 HD
BRANCH   8  11
ATOM     11  C   UNL     1      -3.488   1.716  -5.549  0.00  0.00    +0.076 A 
ATOM     12  C   UNL     1      -4.360   2.163  -6.518  0.00  0.00    +0.024 A 
ATOM     13  C   UNL     1      -5.480   2.878  -6.083  0.00  0.00    -0.036 A 
ATOM     14  C   UNL     1      -5.585   3.101  -4.759  0.00  0.00    -0.006 A 
ATOM     15  S   UNL     1      -4.293   2.273  -4.062  0.00  0.00    -0.088 S 
ATOM     16  C   UNL     1      -6.531   3.943  -3.940  0.00  0.00    +0.043 C 
ATOM     17  C   UNL     1      -7.545   4.689  -4.808  0.00  0.00    +0.005 C 
ATOM     18  C   UNL     1      -8.680   3.770  -5.228  0.00  0.00    +0.000 C 
ATOM     19  C   UNL     1      -8.213   2.362  -5.542  0.00  0.00    +0.000 C 
ATOM     20  C   UNL     1      -7.726   2.370  -6.995  0.00  0.00    +0.005 C 
ATOM     21  C   UNL     1      -6.521   3.302  -7.109  0.00  0.00    +0.036 C 
ENDBRANCH   8  11
ENDBRANCH   4   7
BRANCH   1  22
ATOM     22  C   UNL     1       0.718  -0.497  -1.257  0.00  0.00    +0.110 C 
BRANCH  22  24
ATOM     23  C   UNL     1      -0.019   1.526   0.010  0.00  0.00    +0.011 C 
ATOM     24  C   UNL     1       0.002  -0.004   0.002  0.00  0.00    +0.024 C 
BRANCH  24  25
ATOM     25  C   UNL     1       0.742  -0.511   1.242  0.00  0.00    +0.148 C 
BRANCH  25  26
ATOM     26  N   UNL     1      -0.008  -0.140   2.444  0.00  0.00    -0.271 N 
ATOM     27  C   UNL     1      -0.428  -0.984   3.410  0.00  0.00    +0.108 A 
ATOM     28  C   UNL     1      -1.081  -0.252   4.342  0.00  0.00    +0.041 A 
ATOM     29  C   UNL     1      -1.060   1.085   3.932  0.00  0.00    +0.134 A 
ATOM     30  N   UNL     1      -0.412   1.154   2.797  0.00  0.00    -0.180 NA
ENDBRANCH  25  26
ENDBRANCH  24  25
ENDBRANCH  22  24
ENDBRANCH   1  22
TORSDOF 6
