REMARK  Name = ZINC65446742
REMARK  12 active torsions:
REMARK  status: ('A' for Active; 'I' for Inactive)
REMARK    1  A    between atoms: C_1  and  C_2
REMARK    2  A    between atoms: C_4  and  C_28
REMARK    3  A    between atoms: N_6  and  C_8
REMARK    4  A    between atoms: C_8  and  C_9
REMARK    5  A    between atoms: C_8  and  C_10
REMARK    6  A    between atoms: C_8  and  C_11
REMARK    7  A    between atoms: C_11  and  N_12
REMARK    8  A    between atoms: N_15  and  C_16
REMARK    9  A    between atoms: C_18  and  C_24
REMARK   10  A    between atoms: C_21  and  O_22
REMARK   11  A    between atoms: O_22  and  C_23
REMARK   12  A    between atoms: N_26  and  C_27
REMARK                            x       y       z     vdW  Elec       q    Type
REMARK                         _______ _______ _______ _____ _____    ______ ____
ROOT
ATOM      1  N   UNL     1      -0.754  -2.452   3.608  0.00  0.00    -0.300 N 
ATOM      2  C   UNL     1      -1.630  -2.146   4.585  0.00  0.00    +0.304 C 
ATOM      3  O   UNL     1      -1.282  -1.447   5.517  0.00  0.00    -0.253 OA
ATOM      4  N   UNL     1      -2.893  -2.615   4.529  0.00  0.00    -0.266 N 
ATOM      5  H   UNL     1      -1.032  -3.010   2.865  0.00  0.00    +0.150 HD
ATOM      6  H   UNL     1      -3.190  -3.117   3.755  0.00  0.00    +0.156 HD
ENDROOT
BRANCH   4   7
ATOM      7  C   UNL     1      -3.777  -2.375   5.591  0.00  0.00    +0.077 A 
ATOM      8  C   UNL     1      -3.708  -1.186   6.294  0.00  0.00    +0.040 A 
ATOM      9  C   UNL     1      -4.591  -0.951   7.350  0.00  0.00    +0.039 A 
ATOM     10  C   UNL     1      -5.540  -1.918   7.692  0.00  0.00    +0.017 A 
ATOM     11  C   UNL     1      -5.603  -3.101   6.989  0.00  0.00    +0.048 A 
ATOM     12  C   UNL     1      -4.730  -3.334   5.935  0.00  0.00    +0.141 A 
BRANCH   9  13
ATOM     13  C   UNL     1      -4.522   0.316   8.104  0.00  0.00    +0.244 C 
ATOM     14  O   UNL     1      -3.696   1.157   7.806  0.00  0.00    -0.270 OA
ATOM     15  N   UNL     1      -5.375   0.541   9.123  0.00  0.00    -0.314 N 
ATOM     16  C   UNL     1      -5.306   1.799   9.871  0.00  0.00    +0.128 C 
ATOM     17  H   UNL     1      -6.034  -0.129   9.361  0.00  0.00    +0.149 HD
ENDBRANCH   9  13
BRANCH  12  18
ATOM     18  O   UNL     1      -4.801  -4.499   5.241  0.00  0.00    -0.493 OA
ATOM     19  C   UNL     1      -5.800  -5.436   5.647  0.00  0.00    +0.277 C 
ENDBRANCH  12  18
ENDBRANCH   4   7
BRANCH   1  20
ATOM     20  C   UNL     1       0.618  -1.943   3.668  0.00  0.00    +0.093 C 
BRANCH  20  21
ATOM     21  C   UNL     1       1.399  -2.433   2.447  0.00  0.00    -0.055 C 
ATOM     22  C   UNL     1       1.422  -3.963   2.438  0.00  0.00    -0.008 C 
ATOM     23  C   UNL     1       2.832  -1.901   2.511  0.00  0.00    -0.008 C 
BRANCH  21  29
ATOM     24  C   UNL     1      -0.056   1.562   0.020  0.00  0.00    +0.005 C 
ATOM     25  C   UNL     1      -0.028   0.032   0.004  0.00  0.00    -0.031 C 
ATOM     26  C   UNL     1       0.690  -0.453  -1.259  0.00  0.00    +0.003 C 
ATOM     27  C   UNL     1       0.781  -1.981  -1.227  0.00  0.00    -0.031 C 
ATOM     28  C   UNL     1       1.499  -2.417   0.052  0.00  0.00    -0.075 C 
ATOM     29  N   UNL     1       0.749  -1.946   1.223  0.00  0.00    +0.384 N 
ATOM     30  C   UNL     1       0.719  -0.479   1.237  0.00  0.00    -0.075 C 
ATOM     31  C   UNL     1       1.566  -2.472  -2.445  0.00  0.00    +0.005 C 
ATOM     32  H   UNL     1      -0.195  -2.300   1.182  0.00  0.00    -0.081 HD
ENDBRANCH  21  29
ENDBRANCH  20  21
ENDBRANCH   1  20
TORSDOF 6
