REMARK  Name = ZINC59109390
REMARK  3 active torsions:
REMARK  status: ('A' for Active; 'I' for Inactive)
REMARK    1  A    between atoms: C_6  and  C_7
REMARK    2  A    between atoms: C_7  and  N_8
REMARK    3  A    between atoms: C_10  and  C_18
REMARK                            x       y       z     vdW  Elec       q    Type
REMARK                         _______ _______ _______ _____ _____    ______ ____
ROOT
ATOM      1  N   UNL     1      -1.726  -1.017  -1.368  0.00  0.00    -0.341 N 
ATOM      2  C   UNL     1      -2.597  -0.235  -2.055  0.00  0.00    +0.106 A 
ATOM      3  C   UNL     1      -2.782  -0.742  -3.307  0.00  0.00    +0.077 A 
ATOM      4  C   UNL     1      -1.944  -1.952  -3.397  0.00  0.00    +0.018 A 
ATOM      5  C   UNL     1      -1.302  -2.070  -2.153  0.00  0.00    +0.051 A 
ATOM      6  C   UNL     1      -0.428  -3.129  -1.934  0.00  0.00    +0.027 A 
ATOM      7  C   UNL     1      -0.197  -4.048  -2.934  0.00  0.00    +0.017 A 
ATOM      8  C   UNL     1      -0.829  -3.929  -4.164  0.00  0.00    +0.019 A 
ATOM      9  C   UNL     1      -1.706  -2.891  -4.397  0.00  0.00    +0.026 A 
ATOM     10 BR   UNL     1      -0.495  -5.203  -5.521  0.00  0.00    -0.050 Br
ENDROOT
BRANCH   3  11
ATOM     11  C   UNL     1      -3.625  -0.206  -4.332  0.00  0.00    +0.101 C 
ATOM     12  N   UNL     1      -4.293   0.220  -5.146  0.00  0.00    -0.191 NA
ENDBRANCH   3  11
BRANCH   1  13
ATOM     13  C   UNL     1      -1.293  -0.775   0.011  0.00  0.00    +0.157 C 
BRANCH  13  19
ATOM     14  C   UNL     1      -0.017   1.378   0.010  0.00  0.00    +0.007 A 
ATOM     15  C   UNL     1       1.171   2.086   0.002  0.00  0.00    +0.020 A 
ATOM     16  C   UNL     1       2.378   1.410  -0.013  0.00  0.00    +0.041 A 
ATOM     17  C   UNL     1       2.396   0.027  -0.021  0.00  0.00    +0.020 A 
ATOM     18  C   UNL     1       1.208  -0.679  -0.013  0.00  0.00    +0.007 A 
ATOM     19  C   UNL     1       0.002  -0.004   0.002  0.00  0.00    -0.028 A 
ATOM     20 CL   UNL     1       3.870   2.298  -0.023  0.00  0.00    -0.084 Cl
ENDBRANCH  13  19
ENDBRANCH   1  13
TORSDOF 3
