REMARK  Name = ZINC39370454
REMARK  6 active torsions:
REMARK  status: ('A' for Active; 'I' for Inactive)
REMARK    1  A    between atoms: C_1  and  C_2
REMARK    2  A    between atoms: C_3  and  C_21
REMARK    3  A    between atoms: C_4  and  C_16
REMARK    4  A    between atoms: C_21  and  O_23
REMARK    5  A    between atoms: O_23  and  C_24
REMARK    6  A    between atoms: C_24  and  C_25
REMARK                            x       y       z     vdW  Elec       q    Type
REMARK                         _______ _______ _______ _____ _____    ______ ____
ROOT
ATOM      1  C   UNL     1      -0.018   1.503   0.010  0.00  0.00    +0.061 C 
ATOM      2  C   UNL     1       0.002  -0.004   0.002  0.00  0.00    +0.016 C 
ATOM      3  C   UNL     1      -1.156  -0.678   0.004  0.00  0.00    +0.062 C 
ATOM      4  C   UNL     1      -1.237  -2.179   0.017  0.00  0.00    +0.083 C 
ATOM      5  C   UNL     1       0.060  -2.784  -0.526  0.00  0.00    +0.149 C 
ATOM      6  C   UNL     1       1.184  -2.017   0.151  0.00  0.00    +0.106 C 
ATOM      7  N   UNL     1       2.054  -2.672   0.862  0.00  0.00    -0.151 NA
ATOM      8  C   UNL     1       1.976  -3.997   1.038  0.00  0.00    +0.331 C 
ATOM      9  O   UNL     1       2.850  -4.533   1.694  0.00  0.00    -0.250 OA
ATOM     10  N   UNL     1       1.004  -4.773   0.543  0.00  0.00    -0.238 N 
ATOM     11  C   UNL     1       0.011  -4.275  -0.243  0.00  0.00    +0.231 C 
ATOM     12  O   UNL     1      -0.871  -4.977  -0.691  0.00  0.00    -0.275 OA
ATOM     13  N   UNL     1       1.211  -0.665  -0.013  0.00  0.00    -0.307 N 
ATOM     14  H   UNL     1       1.009  -5.722   0.747  0.00  0.00    +0.159 HD
ATOM     15  H   UNL     1       2.047  -0.187  -0.132  0.00  0.00    +0.153 HD
ENDROOT
BRANCH   4  16
ATOM     16  C   UNL     1      -1.452  -2.654   1.431  0.00  0.00    -0.001 A 
ATOM     17  C   UNL     1      -2.477  -3.380   1.940  0.00  0.00    +0.012 A 
ATOM     18  C   UNL     1      -2.465  -3.706   3.284  0.00  0.00    +0.008 A 
ATOM     19  C   UNL     1      -1.428  -3.291   4.051  0.00  0.00    +0.045 A 
ATOM     20  S   UNL     1      -0.419  -2.415   2.867  0.00  0.00    -0.101 S 
ENDBRANCH   4  16
BRANCH   3  21
ATOM     21  C   UNL     1      -2.363   0.060  -0.007  0.00  0.00    +0.338 C 
ATOM     22  O   UNL     1      -2.333   1.276  -0.017  0.00  0.00    -0.245 OA
BRANCH  21  23
ATOM     23  O   UNL     1      -3.549  -0.586  -0.005  0.00  0.00    -0.457 OA
BRANCH  23  24
ATOM     24  C   UNL     1      -4.727   0.223  -0.016  0.00  0.00    +0.259 C 
BRANCH  24  25
ATOM     25  C   UNL     1      -5.945  -0.665  -0.013  0.00  0.00    +0.006 C 
ATOM     26  C   UNL     1      -6.949  -0.396   0.784  0.00  0.00    +0.007 C 
ENDBRANCH  24  25
ENDBRANCH  23  24
ENDBRANCH  21  23
ENDBRANCH   3  21
TORSDOF 5
