REMARK  Name = ZINC16951675
REMARK  10 active torsions:
REMARK  status: ('A' for Active; 'I' for Inactive)
REMARK    1  A    between atoms: C_1  and  C_2
REMARK    2  A    between atoms: N_4  and  C_5
REMARK    3  A    between atoms: C_11  and  O_30
REMARK    4  A    between atoms: C_12  and  O_28
REMARK    5  A    between atoms: C_13  and  O_26
REMARK    6  A    between atoms: C_18  and  O_25
REMARK    7  A    between atoms: C_20  and  O_24
REMARK    8  A    between atoms: O_26  and  C_27
REMARK    9  A    between atoms: O_28  and  C_29
REMARK   10  A    between atoms: O_30  and  C_31
REMARK                            x       y       z     vdW  Elec       q    Type
REMARK                         _______ _______ _______ _____ _____    ______ ____
ROOT
ATOM      1  C   UNL     1       1.105  -1.708   0.868  0.00  0.00    +0.100 C 
ATOM      2  C   UNL     1       1.298  -1.933   2.354  0.00  0.00    +0.031 C 
ATOM      3  C   UNL     1       2.758  -1.780   2.755  0.00  0.00    +0.038 C 
ATOM      4  C   UNL     1       3.295  -0.556   2.048  0.00  0.00    -0.033 A 
ATOM      5  C   UNL     1       3.529   0.608   2.751  0.00  0.00    +0.054 A 
ATOM      6  C   UNL     1       4.016   1.726   2.087  0.00  0.00    +0.165 A 
ATOM      7  C   UNL     1       4.268   1.678   0.719  0.00  0.00    +0.204 A 
ATOM      8  C   UNL     1       4.036   0.506   0.010  0.00  0.00    +0.173 A 
ATOM      9  C   UNL     1       3.550  -0.615   0.690  0.00  0.00    +0.027 A 
ATOM     10  C   UNL     1       3.311  -1.887  -0.072  0.00  0.00    -0.035 C 
ATOM     11  C   UNL     1       2.168  -2.437   0.036  0.00  0.00    -0.043 C 
ATOM     12  C   UNL     1       1.623  -3.727  -0.549  0.00  0.00    +0.066 C 
ATOM     13  C   UNL     1       2.618  -4.855  -0.510  0.00  0.00    +0.147 C 
ATOM     14  C   UNL     1       3.811  -4.624  -1.384  0.00  0.00    +0.144 C 
ATOM     15  C   UNL     1       4.853  -3.765  -0.735  0.00  0.00    +0.038 C 
ATOM     16  C   UNL     1       4.558  -2.294  -0.836  0.00  0.00    +0.038 C 
ENDROOT
BRANCH   1  20
ATOM     17  C   UNL     1       0.645   1.716  -0.780  0.00  0.00    +0.109 C 
ATOM     18  C   UNL     1       0.564   0.239  -0.493  0.00  0.00    +0.210 C 
ATOM     19  O   UNL     1      -0.058  -0.489  -1.236  0.00  0.00    -0.276 OA
ATOM     20  N   UNL     1       1.184  -0.272   0.589  0.00  0.00    -0.309 N 
ATOM     21  H   UNL     1       1.681   0.311   1.183  0.00  0.00    +0.149 HD
ENDBRANCH   1  20
BRANCH  14  22
ATOM     22  O   UNL     1       3.381  -3.993  -2.592  0.00  0.00    -0.389 OA
ATOM     23  H   UNL     1       4.089  -3.855  -3.237  0.00  0.00    +0.210 HD
ENDBRANCH  14  22
BRANCH  13  24
ATOM     24  O   UNL     1       3.063  -5.027   0.837  0.00  0.00    -0.389 OA
ATOM     25  H   UNL     1       3.664  -5.774   0.960  0.00  0.00    +0.210 HD
ENDBRANCH  13  24
BRANCH   8  26
ATOM     26  O   UNL     1       4.279   0.450  -1.326  0.00  0.00    -0.491 OA
ATOM     27  C   UNL     1       3.246   0.922  -2.193  0.00  0.00    +0.277 C 
ENDBRANCH   8  26
BRANCH   7  28
ATOM     28  O   UNL     1       4.740   2.781   0.076  0.00  0.00    -0.488 OA
ATOM     29  C   UNL     1       6.159   2.895  -0.059  0.00  0.00    +0.277 C 
ENDBRANCH   7  28
BRANCH   6  30
ATOM     30  O   UNL     1       4.248   2.875   2.776  0.00  0.00    -0.491 OA
ATOM     31  C   UNL     1       3.969   2.857   4.178  0.00  0.00    +0.277 C 
ENDBRANCH   6  30
TORSDOF 6
