REMARK  Name = ZINC23041859
REMARK  10 active torsions:
REMARK  status: ('A' for Active; 'I' for Inactive)
REMARK    1  A    between atoms: C_1  and  C_2
REMARK    2  A    between atoms: C_4  and  C_14
REMARK    3  A    between atoms: C_6  and  S_9
REMARK    4  A    between atoms: C_7  and  C_8
REMARK    5  A    between atoms: S_9  and  N_12
REMARK    6  A    between atoms: N_12  and  C_13
REMARK    7  A    between atoms: C_19  and  C_22
REMARK    8  A    between atoms: C_22  and  C_23
REMARK    9  A    between atoms: N_29  and  C_30
REMARK   10  A    between atoms: C_30  and  C_31
REMARK                            x       y       z     vdW  Elec       q    Type
REMARK                         _______ _______ _______ _____ _____    ______ ____
ROOT
ATOM      1  C   UNL     1       4.257   0.624  -3.397  0.00  0.00    +0.250 C 
ATOM      2  O   UNL     1       4.621   1.122  -4.445  0.00  0.00    -0.270 OA
ATOM      3  N   UNL     1       3.092   1.006  -2.838  0.00  0.00    -0.261 N 
ATOM      4  C   UNL     1       2.307   1.969  -3.459  0.00  0.00    +0.165 A 
ATOM      5  N   UNL     1       1.152   2.473  -3.070  0.00  0.00    -0.229 NA
ATOM      6  C   UNL     1       0.530   3.388  -3.787  0.00  0.00    +0.058 A 
ATOM      7  C   UNL     1       1.111   3.814  -4.935  0.00  0.00    +0.072 A 
ATOM      8  S   UNL     1       2.598   2.825  -4.941  0.00  0.00    -0.060 S 
ATOM      9  H   UNL     1       2.763   0.555  -1.890  0.00  0.00    +0.157 HD
ENDROOT
BRANCH   1  13
ATOM     10  C   UNL     1       5.016  -2.553   0.375  0.00  0.00    +0.044 C 
ATOM     11  C   UNL     1       5.463  -1.932  -0.923  0.00  0.00    -0.045 A 
ATOM     12  C   UNL     1       4.678  -0.975  -1.534  0.00  0.00    +0.016 A 
ATOM     13  C   UNL     1       5.093  -0.401  -2.737  0.00  0.00    +0.039 A 
ATOM     14  C   UNL     1       6.298  -0.804  -3.317  0.00  0.00    +0.042 A 
ATOM     15  C   UNL     1       7.075  -1.757  -2.692  0.00  0.00    +0.109 A 
ATOM     16  C   UNL     1       6.658  -2.322  -1.500  0.00  0.00    -0.021 A 
ATOM     17  C   UNL     1       7.510  -3.366  -0.826  0.00  0.00    +0.046 C 
BRANCH  15  18
ATOM     18  S   UNL     1       8.600  -2.260  -3.418  0.00  0.00    +0.058 S 
ATOM     19  O   UNL     1       8.708  -1.571  -4.655  0.00  0.00    -0.153 OA
ATOM     20  O   UNL     1       9.587  -2.159  -2.400  0.00  0.00    -0.153 OA
BRANCH  18  21
ATOM     21  N   UNL     1       8.460  -3.869  -3.783  0.00  0.00    -0.193 NA
ATOM     22  C   UNL     1       7.499  -4.309  -4.798  0.00  0.00    +0.127 C 
ATOM     23  H   UNL     1       8.969  -4.611  -3.149  0.00  0.00    +0.148 HD
ENDBRANCH  18  21
ENDBRANCH  15  18
ENDBRANCH   1  13
BRANCH   6  24
ATOM     24  C   UNL     1      -0.793   3.953  -3.336  0.00  0.00    +0.132 C 
BRANCH  24  25
ATOM     25  C   UNL     1      -1.771   2.828  -3.118  0.00  0.00    +0.138 A 
ATOM     26  N   UNL     1      -2.568   2.339  -4.013  0.00  0.00    -0.158 NA
ATOM     27  N   UNL     1      -3.318   1.316  -3.417  0.00  0.00    -0.254 N 
ATOM     28  H   UNL     1      -4.066   0.766  -4.008  0.00  0.00    +0.191 HD
ATOM     29  C   UNL     1      -2.920   1.224  -2.131  0.00  0.00    +0.176 A 
ATOM     30  S   UNL     1      -3.520   0.128  -0.960  0.00  0.00    -0.011 S 
ATOM     31  N   UNL     1      -1.962   2.152  -1.938  0.00  0.00    -0.303 N 
BRANCH  31  32
ATOM     32  C   UNL     1      -1.249   2.402  -0.682  0.00  0.00    +0.152 C 
BRANCH  32  33
ATOM     33  C   UNL     1      -0.013   1.542  -0.627  0.00  0.00    -0.013 C 
ATOM     34  C   UNL     1       1.160   2.093  -0.436  0.00  0.00    +0.005 C 
ENDBRANCH  32  33
ENDBRANCH  31  32
ENDBRANCH  24  25
ENDBRANCH   6  24
TORSDOF 7
