REMARK  Name = ZINC08899222
REMARK  7 active torsions:
REMARK  status: ('A' for Active; 'I' for Inactive)
REMARK    1  A    between atoms: C_1  and  C_2
REMARK    2  A    between atoms: C_8  and  C_10
REMARK    3  A    between atoms: C_10  and  S_11
REMARK    4  A    between atoms: S_11  and  C_12
REMARK    5  A    between atoms: C_16  and  C_18
REMARK    6  A    between atoms: N_25  and  C_32
REMARK    7  A    between atoms: N_28  and  C_31
REMARK                            x       y       z     vdW  Elec       q    Type
REMARK                         _______ _______ _______ _____ _____    ______ ____
ROOT
ATOM      1  C   UNL     1      -7.945   4.014   5.532  0.00  0.00    +0.116 A 
ATOM      2  C   UNL     1      -8.643   4.466   6.664  0.00  0.00    +0.114 A 
ATOM      3  C   UNL     1     -10.035   4.661   6.572  0.00  0.00    +0.154 A 
ATOM      4  N   UNL     1     -10.642   4.412   5.422  0.00  0.00    -0.209 NA
ATOM      5  C   UNL     1      -9.947   3.985   4.373  0.00  0.00    +0.165 A 
ATOM      6  N   UNL     1      -8.635   3.794   4.414  0.00  0.00    -0.220 NA
ATOM      7  N   UNL     1     -10.717   5.104   7.686  0.00  0.00    -0.281 N 
ATOM      8  C   UNL     1     -10.065   5.345   8.836  0.00  0.00    +0.333 A 
ATOM      9  O   UNL     1     -10.702   5.735   9.795  0.00  0.00    -0.246 OA
ATOM     10  N   UNL     1      -8.740   5.175   8.973  0.00  0.00    -0.263 N 
ATOM     11  C   UNL     1      -7.980   4.744   7.941  0.00  0.00    +0.268 A 
ATOM     12  O   UNL     1      -6.780   4.590   8.069  0.00  0.00    -0.267 OA
ATOM     13  C   UNL     1      -8.107   5.460  10.263  0.00  0.00    +0.157 C 
ATOM     14  C   UNL     1     -12.165   5.313   7.614  0.00  0.00    +0.155 C 
ENDROOT
BRANCH   5  15
ATOM     15  C   UNL     1     -10.665   3.719   3.104  0.00  0.00    +0.037 A 
ATOM     16  C   UNL     1     -12.045   3.909   3.027  0.00  0.00    +0.013 A 
ATOM     17  C   UNL     1     -12.707   3.664   1.842  0.00  0.00    +0.001 A 
ATOM     18  C   UNL     1     -12.008   3.220   0.734  0.00  0.00    +0.001 A 
ATOM     19  C   UNL     1     -10.641   3.023   0.804  0.00  0.00    +0.021 A 
ATOM     20  C   UNL     1      -9.965   3.270   1.984  0.00  0.00    +0.052 A 
ATOM     21 CL   UNL     1      -8.249   3.022   2.072  0.00  0.00    -0.083 Cl
ENDBRANCH   5  15
BRANCH   1  22
ATOM     22  S   UNL     1      -6.203   3.752   5.587  0.00  0.00    -0.096 S 
BRANCH  22  23
ATOM     23  C   UNL     1      -5.916   3.196   3.889  0.00  0.00    +0.172 C 
BRANCH  23  31
ATOM     24  C   UNL     1      -0.013   1.086   0.008  0.00  0.00    +0.066 C 
ATOM     25  C   UNL     1      -0.718   1.572   1.248  0.00  0.00    +0.047 A 
ATOM     26  C   UNL     1      -0.029   1.806   2.391  0.00  0.00    +0.071 A 
ATOM     27  S   UNL     1      -1.348   2.342   3.471  0.00  0.00    -0.060 S 
ATOM     28  C   UNL     1      -2.646   2.204   2.326  0.00  0.00    +0.165 A 
ATOM     29  N   UNL     1      -2.019   1.784   1.244  0.00  0.00    -0.230 NA
ATOM     30  N   UNL     1      -3.999   2.473   2.502  0.00  0.00    -0.264 N 
ATOM     31  C   UNL     1      -4.449   2.904   3.697  0.00  0.00    +0.229 C 
ATOM     32  O   UNL     1      -3.675   3.058   4.618  0.00  0.00    -0.275 OA
ATOM     33  H   UNL     1      -4.618   2.351   1.766  0.00  0.00    +0.157 HD
ENDBRANCH  23  31
ENDBRANCH  22  23
ENDBRANCH   1  22
TORSDOF 4
