REMARK  Name = ZINC16012584
REMARK  4 active torsions:
REMARK  status: ('A' for Active; 'I' for Inactive)
REMARK    1  A    between atoms: C_12  and  C_15
REMARK    2  A    between atoms: C_15  and  C_16
REMARK    3  A    between atoms: C_16  and  C_17
REMARK    4  A    between atoms: N_22  and  C_25
REMARK                            x       y       z     vdW  Elec       q    Type
REMARK                         _______ _______ _______ _____ _____    ______ ____
ROOT
ATOM      1  C   UNL     1      -0.017   1.379   0.010  0.00  0.00    +0.000 A 
ATOM      2  C   UNL     1       1.173   2.083   0.002  0.00  0.00    +0.002 A 
ATOM      3  C   UNL     1       2.378   1.412  -0.014  0.00  0.00    +0.023 A 
ATOM      4  C   UNL     1       2.405   0.019  -0.022  0.00  0.00    +0.039 A 
ATOM      5  C   UNL     1       1.201  -0.681  -0.013  0.00  0.00    +0.003 A 
ATOM      6  C   UNL     1       0.002  -0.004   0.002  0.00  0.00    +0.008 A 
ATOM      7  C   UNL     1       1.574  -2.134  -0.028  0.00  0.00    +0.136 C 
ATOM      8  C   UNL     1       1.001  -2.917   1.135  0.00  0.00    +0.123 C 
ATOM      9  C   UNL     1      -0.460  -3.080   0.561  0.00  0.00    +0.107 C 
ATOM     10  C   UNL     1      -0.242  -3.517  -0.824  0.00  0.00    +0.068 C 
ATOM     11  N   UNL     1       1.030  -2.813  -1.236  0.00  0.00    -0.295 NA
ATOM     12  C   UNL     1      -1.202  -3.462   1.738  0.00  0.00    +0.232 C 
ATOM     13  O   UNL     1      -2.152  -4.213   1.801  0.00  0.00    -0.274 OA
ATOM     14  N   UNL     1      -0.597  -2.790   2.771  0.00  0.00    -0.210 N 
ATOM     15  C   UNL     1       0.623  -2.251   2.423  0.00  0.00    +0.233 C 
ATOM     16  O   UNL     1       1.260  -1.413   3.024  0.00  0.00    -0.274 OA
ATOM     17  C   UNL     1       3.079  -2.155  -0.046  0.00  0.00    +0.243 C 
ATOM     18  O   UNL     1       3.790  -3.138  -0.063  0.00  0.00    -0.273 OA
ATOM     19  N   UNL     1       3.482  -0.870  -0.039  0.00  0.00    -0.283 N 
ATOM     20  H   UNL     1       0.861  -2.151  -1.978  0.00  0.00    +0.123 HD
ATOM     21  H   UNL     1       4.412  -0.594  -0.046  0.00  0.00    +0.155 HD
ENDROOT
BRANCH  14  22
ATOM     22  C   UNL     1      -1.155  -2.672   4.053  0.00  0.00    +0.044 A 
ATOM     23  C   UNL     1      -0.480  -1.969   5.042  0.00  0.00    +0.027 A 
ATOM     24  C   UNL     1      -1.031  -1.853   6.303  0.00  0.00    +0.040 A 
ATOM     25  C   UNL     1      -2.255  -2.438   6.581  0.00  0.00    +0.124 A 
ATOM     26  C   UNL     1      -2.929  -3.139   5.596  0.00  0.00    +0.040 A 
ATOM     27  C   UNL     1      -2.384  -3.252   4.332  0.00  0.00    +0.027 A 
ATOM     28  F   UNL     1      -2.792  -2.324   7.816  0.00  0.00    -0.205 F 
ENDBRANCH  14  22
BRANCH  10  29
ATOM     29  C   UNL     1      -0.085  -5.037  -0.886  0.00  0.00    +0.028 C 
BRANCH  29  30
ATOM     30  C   UNL     1       0.016  -5.480  -2.347  0.00  0.00    +0.097 C 
BRANCH  30  31
ATOM     31  C   UNL     1       0.170  -6.978  -2.409  0.00  0.00    +0.211 C 
ATOM     32  O   UNL     1       0.197  -7.627  -1.385  0.00  0.00    -0.276 OA
ATOM     33  N   UNL     1       0.279  -7.596  -3.601  0.00  0.00    -0.329 N 
ATOM     34  H   UNL     1       0.258  -7.077  -4.420  0.00  0.00    +0.145 HD
ATOM     35  H   UNL     1       0.378  -8.560  -3.641  0.00  0.00    +0.145 HD
ENDBRANCH  30  31
ENDBRANCH  29  30
ENDBRANCH  10  29
TORSDOF 4
