REMARK  Name = ZINC13309770
REMARK  8 active torsions:
REMARK  status: ('A' for Active; 'I' for Inactive)
REMARK    1  A    between atoms: C_1  and  C_2
REMARK    2  A    between atoms: C_5  and  C_29
REMARK    3  A    between atoms: N_6  and  N_7
REMARK    4  A    between atoms: C_8  and  C_10
REMARK    5  A    between atoms: C_13  and  O_16
REMARK    6  A    between atoms: O_16  and  S_17
REMARK    7  A    between atoms: S_17  and  C_20
REMARK    8  A    between atoms: C_22  and  C_27
REMARK                            x       y       z     vdW  Elec       q    Type
REMARK                         _______ _______ _______ _____ _____    ______ ____
ROOT
ATOM      1  C   UNL     1      -6.697   3.978   3.789  0.00  0.00    +0.039 A 
ATOM      2  C   UNL     1      -7.339   2.737   3.821  0.00  0.00    +0.017 A 
ATOM      3  C   UNL     1      -6.797   1.666   3.148  0.00  0.00    +0.049 A 
ATOM      4  C   UNL     1      -5.612   1.817   2.436  0.00  0.00    +0.157 A 
ATOM      5  C   UNL     1      -4.968   3.049   2.407  0.00  0.00    +0.049 A 
ATOM      6  C   UNL     1      -5.507   4.126   3.073  0.00  0.00    +0.017 A 
ENDROOT
BRANCH   1   8
ATOM      7  N   UNL     1      -6.655   6.325   4.479  0.00  0.00    -0.219 N 
ATOM      8  C   UNL     1      -7.275   5.129   4.511  0.00  0.00    +0.262 C 
ATOM      9  O   UNL     1      -8.311   4.998   5.134  0.00  0.00    -0.268 OA
ATOM     10  H   UNL     1      -5.836   6.433   3.970  0.00  0.00    +0.176 HD
BRANCH   7  16
ATOM     11  C   UNL     1      -9.563   7.257   4.235  0.00  0.00    +0.065 C 
ATOM     12  C   UNL     1      -8.480   7.853   5.095  0.00  0.00    +0.036 A 
ATOM     13  C   UNL     1      -8.617   8.913   5.917  0.00  0.00    +0.024 A 
ATOM     14  C   UNL     1      -7.366   9.141   6.524  0.00  0.00    +0.024 A 
ATOM     15  C   UNL     1      -6.513   8.207   6.054  0.00  0.00    +0.036 A 
ATOM     16  N   UNL     1      -7.192   7.412   5.180  0.00  0.00    -0.268 N 
ATOM     17  C   UNL     1      -5.061   8.067   6.432  0.00  0.00    +0.065 C 
ENDBRANCH   7  16
ENDBRANCH   1   8
BRANCH   4  18
ATOM     18  O   UNL     1      -5.081   0.759   1.774  0.00  0.00    -0.342 OA
BRANCH  18  19
ATOM     19  S   UNL     1      -5.564   0.623   0.337  0.00  0.00    +0.154 S 
ATOM     20  O   UNL     1      -6.945   0.958   0.339  0.00  0.00    -0.131 OA
ATOM     21  O   UNL     1      -5.085  -0.629  -0.136  0.00  0.00    -0.131 OA
BRANCH  19  22
ATOM     22  C   UNL     1      -4.745   1.864  -0.608  0.00  0.00    +0.164 A 
ATOM     23  C   UNL     1      -3.534   1.588  -1.205  0.00  0.00    +0.048 A 
ATOM     24  C   UNL     1      -2.886   2.573  -1.954  0.00  0.00    +0.065 A 
ATOM     25  C   UNL     1      -3.469   3.836  -2.090  0.00  0.00    +0.018 A 
ATOM     26  C   UNL     1      -4.683   4.099  -1.494  0.00  0.00    +0.041 A 
ATOM     27  C   UNL     1      -5.321   3.117  -0.751  0.00  0.00    +0.152 A 
ATOM     28  F   UNL     1      -6.509   3.382  -0.165  0.00  0.00    -0.203 F 
BRANCH  24  29
ATOM     29  C   UNL     1      -1.589   2.283  -2.595  0.00  0.00    +0.387 C 
ATOM     30  O   UNL     1      -1.082   1.186  -2.472  0.00  0.00    -0.241 OA
ATOM     31  O   UNL     1      -0.969   3.233  -3.322  0.00  0.00    -0.241 OA
ENDBRANCH  24  29
ENDBRANCH  19  22
ENDBRANCH  18  19
ENDBRANCH   4  18
TORSDOF 6
