REMARK  Name = ZINC47100459
REMARK  7 active torsions:
REMARK  status: ('A' for Active; 'I' for Inactive)
REMARK    1  A    between atoms: C_1  and  C_2
REMARK    2  A    between atoms: C_2  and  C_3
REMARK    3  A    between atoms: C_2  and  C_4
REMARK    4  A    between atoms: C_2  and  N_11
REMARK    5  A    between atoms: N_14  and  C_15
REMARK    6  A    between atoms: C_18  and  C_21
REMARK    7  A    between atoms: N_23  and  C_24
REMARK                            x       y       z     vdW  Elec       q    Type
REMARK                         _______ _______ _______ _____ _____    ______ ____
ROOT
ATOM      1  N   UNL     1       0.565  -0.015  -1.232  0.00  0.00    -0.290 N 
ATOM      2  C   UNL     1       1.860   0.291  -1.445  0.00  0.00    +0.305 C 
ATOM      3  O   UNL     1       2.484   0.911  -0.605  0.00  0.00    -0.252 OA
ATOM      4  N   UNL     1       2.464  -0.091  -2.587  0.00  0.00    -0.269 N 
ATOM      5  H   UNL     1       0.067  -0.509  -1.902  0.00  0.00    +0.151 HD
ATOM      6  H   UNL     1       1.949  -0.519  -3.288  0.00  0.00    +0.156 HD
ENDROOT
BRANCH   4   7
ATOM      7  C   UNL     1       3.830   0.129  -2.761  0.00  0.00    +0.035 A 
ATOM      8  C   UNL     1       4.689   0.061  -1.669  0.00  0.00    +0.024 A 
ATOM      9  C   UNL     1       6.037   0.279  -1.837  0.00  0.00    +0.015 A 
ATOM     10  C   UNL     1       6.544   0.567  -3.107  0.00  0.00    +0.037 A 
ATOM     11  C   UNL     1       5.679   0.634  -4.203  0.00  0.00    +0.015 A 
ATOM     12  C   UNL     1       4.332   0.411  -4.028  0.00  0.00    +0.024 A 
BRANCH  10  13
ATOM     13  C   UNL     1       7.990   0.801  -3.291  0.00  0.00    +0.244 C 
ATOM     14  O   UNL     1       8.741   0.742  -2.337  0.00  0.00    -0.270 OA
ATOM     15  N   UNL     1       8.476   1.079  -4.517  0.00  0.00    -0.314 N 
ATOM     16  C   UNL     1       9.912   1.311  -4.700  0.00  0.00    +0.128 C 
ATOM     17  H   UNL     1       7.877   1.125  -5.278  0.00  0.00    +0.149 HD
ENDBRANCH  10  13
ENDBRANCH   4   7
BRANCH   1  19
ATOM     18  C   UNL     1      -0.022   1.924   0.139  0.00  0.00    +0.036 C 
ATOM     19  C   UNL     1      -0.092   0.401   0.010  0.00  0.00    +0.056 C 
ATOM     20  C   UNL     1       0.617  -0.245   1.202  0.00  0.00    +0.036 C 
BRANCH  19  21
ATOM     21  C   UNL     1      -1.534  -0.036  -0.014  0.00  0.00    -0.025 A 
ATOM     22  C   UNL     1      -2.219  -0.225   1.172  0.00  0.00    +0.007 A 
ATOM     23  C   UNL     1      -3.542  -0.625   1.151  0.00  0.00    +0.015 A 
ATOM     24  C   UNL     1      -4.181  -0.836  -0.058  0.00  0.00    +0.018 A 
ATOM     25  C   UNL     1      -3.495  -0.646  -1.245  0.00  0.00    +0.015 A 
ATOM     26  C   UNL     1      -2.174  -0.241  -1.222  0.00  0.00    +0.007 A 
ATOM     27 BR   UNL     1      -5.990  -1.383  -0.088  0.00  0.00    -0.050 Br
ENDBRANCH  19  21
ENDBRANCH   1  19
TORSDOF 4
