REMARK  Name = ZINC17361172
REMARK  12 active torsions:
REMARK  status: ('A' for Active; 'I' for Inactive)
REMARK    1  A    between atoms: C_1  and  C_2
REMARK    2  A    between atoms: C_2  and  C_3
REMARK    3  A    between atoms: C_2  and  C_4
REMARK    4  A    between atoms: C_2  and  C_5
REMARK    5  A    between atoms: C_8  and  O_27
REMARK    6  A    between atoms: C_9  and  N_11
REMARK    7  A    between atoms: C_12  and  C_14
REMARK    8  A    between atoms: C_17  and  O_25
REMARK    9  A    between atoms: C_18  and  S_20
REMARK   10  A    between atoms: S_20  and  N_23
REMARK   11  A    between atoms: N_23  and  C_24
REMARK   12  A    between atoms: O_25  and  C_26
REMARK                            x       y       z     vdW  Elec       q    Type
REMARK                         _______ _______ _______ _____ _____    ______ ____
ROOT
ATOM      1  N   UNL     1       4.012  -0.235  -2.834  0.00  0.00    -0.279 N 
ATOM      2  C   UNL     1       4.636   0.621  -2.000  0.00  0.00    +0.248 C 
ATOM      3  O   UNL     1       4.071   1.015  -0.999  0.00  0.00    -0.270 OA
ATOM      4  H   UNL     1       4.485  -0.600  -3.598  0.00  0.00    +0.155 HD
ENDROOT
BRANCH   1   9
ATOM      5  C   UNL     1       0.900  -1.086  -1.066  0.00  0.00    -0.040 A 
ATOM      6  C   UNL     1       0.044  -1.311  -2.129  0.00  0.00    +0.008 A 
ATOM      7  C   UNL     1       0.500  -1.179  -3.428  0.00  0.00    +0.047 A 
ATOM      8  C   UNL     1       1.817  -0.822  -3.668  0.00  0.00    +0.138 A 
ATOM      9  C   UNL     1       2.679  -0.596  -2.598  0.00  0.00    +0.076 A 
ATOM     10  C   UNL     1       2.214  -0.724  -1.297  0.00  0.00    +0.031 A 
BRANCH   5  12
ATOM     11  C   UNL     1       0.549   0.102   1.082  0.00  0.00    +0.015 C 
ATOM     12  C   UNL     1       0.398  -1.231   0.347  0.00  0.00    -0.013 C 
ATOM     13  C   UNL     1       1.211  -2.307   1.070  0.00  0.00    +0.015 C 
ATOM     14  C   UNL     1      -1.077  -1.637   0.325  0.00  0.00    +0.015 C 
ENDBRANCH   5  12
BRANCH   8  15
ATOM     15  O   UNL     1       2.266  -0.693  -4.944  0.00  0.00    -0.505 OA
ATOM     16  H   UNL     1       2.166   0.197  -5.309  0.00  0.00    +0.292 HD
ENDBRANCH   8  15
ENDBRANCH   1   9
BRANCH   2  17
ATOM     17  C   UNL     1       6.006   1.078  -2.303  0.00  0.00    +0.039 A 
ATOM     18  C   UNL     1       6.656   0.631  -3.457  0.00  0.00    +0.017 A 
ATOM     19  C   UNL     1       7.934   1.060  -3.736  0.00  0.00    +0.048 A 
ATOM     20  C   UNL     1       8.578   1.938  -2.871  0.00  0.00    +0.146 A 
ATOM     21  C   UNL     1       7.936   2.385  -1.723  0.00  0.00    +0.147 A 
ATOM     22  C   UNL     1       6.655   1.965  -1.440  0.00  0.00    +0.045 A 
BRANCH  21  23
ATOM     23  S   UNL     1       8.758   3.497  -0.631  0.00  0.00    +0.062 S 
ATOM     24  O   UNL     1       9.286   4.542  -1.437  0.00  0.00    -0.153 OA
ATOM     25  O   UNL     1       7.866   3.743   0.446  0.00  0.00    -0.153 OA
BRANCH  23  26
ATOM     26  N   UNL     1      10.056   2.689   0.005  0.00  0.00    -0.193 NA
ATOM     27  C   UNL     1      11.154   2.264  -0.868  0.00  0.00    +0.127 C 
ATOM     28  H   UNL     1      10.090   2.496   0.955  0.00  0.00    +0.148 HD
ENDBRANCH  23  26
ENDBRANCH  21  23
BRANCH  20  29
ATOM     29  O   UNL     1       9.838   2.358  -3.149  0.00  0.00    -0.493 OA
ATOM     30  C   UNL     1      10.440   1.859  -4.346  0.00  0.00    +0.277 C 
ENDBRANCH  20  29
ENDBRANCH   2  17
TORSDOF 7
