REMARK  Name = ZINC65115265
REMARK  3 active torsions:
REMARK  status: ('A' for Active; 'I' for Inactive)
REMARK    1  A    between atoms: N_9  and  S_10
REMARK    2  A    between atoms: S_10  and  C_13
REMARK    3  A    between atoms: C_19  and  C_22
REMARK                            x       y       z     vdW  Elec       q    Type
REMARK                         _______ _______ _______ _____ _____    ______ ____
ROOT
ATOM      1  C   UNL     1       5.041  -0.402   1.890  0.00  0.00    +0.110 A 
ATOM      2  C   UNL     1       5.009   0.843   2.502  0.00  0.00    +0.032 A 
ATOM      3  C   UNL     1       5.666   1.055   3.695  0.00  0.00    +0.051 A 
ATOM      4  C   UNL     1       6.367   0.014   4.292  0.00  0.00    +0.168 A 
ATOM      5  C   UNL     1       6.396  -1.244   3.670  0.00  0.00    +0.055 A 
ATOM      6  C   UNL     1       5.720  -1.440   2.465  0.00  0.00    +0.042 A 
ATOM      7  C   UNL     1       7.205  -2.117   4.536  0.00  0.00    +0.176 A 
ATOM      8  N   UNL     1       7.592  -1.398   5.555  0.00  0.00    -0.072 NA
ATOM      9  O   UNL     1       7.088  -0.084   5.427  0.00  0.00    -0.354 OA
ENDROOT
BRANCH   7  10
ATOM     10  C   UNL     1       7.521  -3.545   4.295  0.00  0.00    +0.269 C 
ATOM     11  O   UNL     1       7.196  -4.072   3.250  0.00  0.00    -0.268 OA
ATOM     12  N   UNL     1       8.169  -4.259   5.237  0.00  0.00    -0.296 N 
ATOM     13  C   UNL     1       8.429  -3.686   6.564  0.00  0.00    +0.108 C 
ATOM     14  C   UNL     1       7.887  -4.644   7.630  0.00  0.00    +0.019 C 
ATOM     15  C   UNL     1       8.491  -6.033   7.416  0.00  0.00    +0.003 C 
ATOM     16  C   UNL     1       8.084  -6.562   6.039  0.00  0.00    +0.019 C 
ATOM     17  C   UNL     1       8.622  -5.628   4.957  0.00  0.00    +0.108 C 
ENDBRANCH   7  10
BRANCH   1  18
ATOM     18  S   UNL     1       4.194  -0.649   0.365  0.00  0.00    +0.075 S 
ATOM     19  O   UNL     1       4.824  -1.751  -0.275  0.00  0.00    -0.150 OA
ATOM     20  O   UNL     1       4.082   0.627  -0.249  0.00  0.00    -0.150 OA
BRANCH  18  29
ATOM     21  C   UNL     1      -0.816   1.079   1.372  0.00  0.00    +0.000 A 
ATOM     22  C   UNL     1       0.336   1.786   1.077  0.00  0.00    +0.002 A 
ATOM     23  C   UNL     1       1.522   1.119   0.854  0.00  0.00    +0.025 A 
ATOM     24  C   UNL     1       1.569  -0.275   0.923  0.00  0.00    +0.054 A 
ATOM     25  C   UNL     1       0.410  -0.974   1.219  0.00  0.00    -0.023 A 
ATOM     26  C   UNL     1      -0.776  -0.301   1.442  0.00  0.00    +0.005 A 
ATOM     27  C   UNL     1       0.730  -2.452   1.234  0.00  0.00    +0.058 C 
ATOM     28  C   UNL     1       2.230  -2.526   0.908  0.00  0.00    +0.136 C 
ATOM     29  N   UNL     1       2.654  -1.134   0.734  0.00  0.00    -0.202 N 
ENDBRANCH  18  29
ENDBRANCH   1  18
TORSDOF 3
