REMARK  Name = ZINC00636559
REMARK  7 active torsions:
REMARK  status: ('A' for Active; 'I' for Inactive)
REMARK    1  A    between atoms: C_1  and  C_2
REMARK    2  A    between atoms: C_2  and  C_3
REMARK    3  A    between atoms: C_5  and  C_12
REMARK    4  A    between atoms: C_6  and  O_11
REMARK    5  A    between atoms: C_8  and  O_9
REMARK    6  A    between atoms: O_9  and  C_10
REMARK    7  A    between atoms: C_14  and  C_18
REMARK                            x       y       z     vdW  Elec       q    Type
REMARK                         _______ _______ _______ _____ _____    ______ ____
ROOT
ATOM      1  C   UNL     1      -5.853  -1.307   0.024  0.00  0.00    +0.097 A 
ATOM      2  C   UNL     1      -4.932  -0.246   0.028  0.00  0.00    +0.058 A 
ATOM      3  C   UNL     1      -3.678  -0.782   0.017  0.00  0.00    +0.066 A 
ATOM      4  N   UNL     1      -3.811  -2.139   0.002  0.00  0.00    -0.276 N 
ATOM      5  H   UNL     1      -3.064  -2.804  -0.014  0.00  0.00    +0.189 HD
ATOM      6  N   UNL     1      -5.179  -2.439   0.012  0.00  0.00    -0.173 NA
ENDROOT
BRANCH   3   7
ATOM      7  C   UNL     1      -2.404  -0.029   0.016  0.00  0.00    +0.003 A 
ATOM      8  C   UNL     1      -2.417   1.366   0.026  0.00  0.00    +0.014 A 
ATOM      9  C   UNL     1      -1.228   2.066   0.019  0.00  0.00    +0.050 A 
ATOM     10  C   UNL     1      -0.017   1.387   0.010  0.00  0.00    +0.162 A 
ATOM     11  C   UNL     1       0.002  -0.004   0.002  0.00  0.00    +0.163 A 
ATOM     12  C   UNL     1      -1.188  -0.712   0.004  0.00  0.00    +0.059 A 
ATOM     13  O   UNL     1       1.181  -0.685  -0.006  0.00  0.00    -0.485 OA
ATOM     14  C   UNL     1       2.347   0.054  -0.387  0.00  0.00    +0.270 C 
ATOM     15  C   UNL     1       2.335   1.391   0.365  0.00  0.00    +0.270 C 
ATOM     16  O   UNL     1       1.144   2.098   0.002  0.00  0.00    -0.485 OA
ENDBRANCH   3   7
BRANCH   1  19
ATOM     17  C   UNL     1      -9.507  -2.189   0.036  0.00  0.00    -0.005 A 
ATOM     18  C   UNL     1      -8.133  -2.314   0.028  0.00  0.00    +0.021 A 
ATOM     19  C   UNL     1      -7.331  -1.175   0.033  0.00  0.00    +0.044 A 
ATOM     20  C   UNL     1      -7.922   0.092   0.051  0.00  0.00    +0.130 A 
ATOM     21  C   UNL     1      -9.301   0.208   0.053  0.00  0.00    +0.092 A 
ATOM     22  C   UNL     1     -10.093  -0.930   0.048  0.00  0.00    +0.127 A 
BRANCH  17  24
ATOM     23  C   UNL     1     -10.777  -3.756  -1.407  0.00  0.00    +0.009 C 
ATOM     24  C   UNL     1     -10.374  -3.422   0.031  0.00  0.00    +0.035 C 
ENDBRANCH  17  24
BRANCH  22  25
ATOM     25  O   UNL     1     -11.447  -0.814   0.055  0.00  0.00    -0.495 OA
ATOM     26  C   UNL     1     -11.984   0.511   0.068  0.00  0.00    +0.277 C 
ENDBRANCH  22  25
BRANCH  20  27
ATOM     27  O   UNL     1      -7.144   1.206   0.062  0.00  0.00    -0.506 OA
ATOM     28  H   UNL     1      -6.923   1.540  -0.818  0.00  0.00    +0.292 HD
ENDBRANCH  20  27
ENDBRANCH   1  19
TORSDOF 5
