REMARK  Name = ZINC49926244
REMARK  6 active torsions:
REMARK  status: ('A' for Active; 'I' for Inactive)
REMARK    1  A    between atoms: C_1  and  C_2
REMARK    2  A    between atoms: C_4  and  C_10
REMARK    3  A    between atoms: C_7  and  O_8
REMARK    4  A    between atoms: O_8  and  C_9
REMARK    5  A    between atoms: C_10  and  C_12
REMARK    6  A    between atoms: N_14  and  C_15
REMARK                            x       y       z     vdW  Elec       q    Type
REMARK                         _______ _______ _______ _____ _____    ______ ____
ROOT
ATOM      1  C   UNL     1       0.337  -4.295  -2.473  0.00  0.00    +0.289 C 
ATOM      2  O   UNL     1       0.515  -4.906  -1.439  0.00  0.00    -0.266 OA
ATOM      3  N   UNL     1       0.267  -4.960  -3.644  0.00  0.00    -0.279 N 
ATOM      4  H   UNL     1       0.202  -4.468  -4.477  0.00  0.00    +0.155 HD
ENDROOT
BRANCH   3   5
ATOM      5  C   UNL     1       0.286  -6.358  -3.656  0.00  0.00    +0.037 A 
ATOM      6  C   UNL     1       0.896  -7.035  -4.705  0.00  0.00    +0.027 A 
ATOM      7  C   UNL     1       0.916  -8.416  -4.719  0.00  0.00    +0.051 A 
ATOM      8  C   UNL     1       0.329  -9.130  -3.687  0.00  0.00    +0.166 A 
ATOM      9  C   UNL     1      -0.284  -8.455  -2.634  0.00  0.00    +0.168 A 
ATOM     10  C   UNL     1      -0.299  -7.070  -2.618  0.00  0.00    +0.072 A 
ATOM     11  O   UNL     1      -0.782  -9.374  -1.756  0.00  0.00    -0.453 OA
ATOM     12  C   UNL     1      -0.827 -10.616  -2.484  0.00  0.00    +0.466 C 
ATOM     13  O   UNL     1       0.215 -10.474  -3.468  0.00  0.00    -0.453 OA
ENDBRANCH   3   5
BRANCH   1  14
ATOM     14  C   UNL     1       0.196  -2.811  -2.449  0.00  0.00    +0.248 C 
ATOM     15  O   UNL     1       0.128  -2.190  -3.490  0.00  0.00    -0.282 OA
BRANCH  14  19
ATOM     16  C   UNL     1       0.174   1.464   0.099  0.00  0.00    +0.047 C 
ATOM     17  C   UNL     1       0.128  -0.042   0.064  0.00  0.00    -0.008 A 
ATOM     18  C   UNL     1       0.181  -0.699  -1.132  0.00  0.00    +0.018 A 
ATOM     19  C   UNL     1       0.140  -2.099  -1.163  0.00  0.00    +0.027 A 
ATOM     20  C   UNL     1       0.043  -2.818   0.036  0.00  0.00    +0.015 A 
ATOM     21  C   UNL     1      -0.009  -2.152   1.227  0.00  0.00    +0.046 A 
ATOM     22  C   UNL     1       0.038  -0.761   1.252  0.00  0.00    +0.123 A 
BRANCH  22  23
ATOM     23  O   UNL     1      -0.009  -0.105   2.438  0.00  0.00    -0.495 OA
ATOM     24  C   UNL     1      -0.101  -0.904   3.619  0.00  0.00    +0.277 C 
ENDBRANCH  22  23
ENDBRANCH  14  19
ENDBRANCH   1  14
TORSDOF 4
