REMARK  Name = ZINC08846929
REMARK  13 active torsions:
REMARK  status: ('A' for Active; 'I' for Inactive)
REMARK    1  A    between atoms: C_1  and  C_2
REMARK    2  A    between atoms: C_2  and  C_3
REMARK    3  A    between atoms: C_3  and  C_4
REMARK    4  A    between atoms: C_4  and  C_5
REMARK    5  A    between atoms: C_8  and  N_11
REMARK    6  A    between atoms: C_13  and  C_18
REMARK    7  A    between atoms: C_18  and  O_20
REMARK    8  A    between atoms: O_20  and  C_21
REMARK    9  A    between atoms: C_21  and  C_23
REMARK   10  A    between atoms: C_21  and  C_24
REMARK   11  A    between atoms: N_26  and  C_27
REMARK   12  A    between atoms: C_30  and  O_34
REMARK   13  A    between atoms: O_34  and  C_35
REMARK                            x       y       z     vdW  Elec       q    Type
REMARK                         _______ _______ _______ _____ _____    ______ ____
ROOT
ATOM      1  C   UNL     1      -7.085   4.013  -1.033  0.00  0.00    +0.313 C 
ATOM      2  O   UNL     1      -7.119   5.150  -1.442  0.00  0.00    -0.250 OA
ENDROOT
BRANCH   1   5
ATOM      3  N   UNL     1      -9.879   2.769  -3.022  0.00  0.00    -0.271 N 
ATOM      4  C   UNL     1      -9.345   3.790  -2.113  0.00  0.00    +0.128 C 
ATOM      5  C   UNL     1      -8.238   3.081  -1.302  0.00  0.00    +0.124 C 
ATOM      6  C   UNL     1      -7.819   1.946  -2.265  0.00  0.00    +0.112 C 
ATOM      7  C   UNL     1      -9.040   1.725  -3.131  0.00  0.00    +0.221 C 
ATOM      8  O   UNL     1      -9.233   0.747  -3.822  0.00  0.00    -0.275 OA
BRANCH   3  12
ATOM      9  C   UNL     1     -13.528   3.069  -5.011  0.00  0.00    -0.047 A 
ATOM     10  C   UNL     1     -13.057   4.136  -4.268  0.00  0.00    +0.005 A 
ATOM     11  C   UNL     1     -11.848   4.040  -3.607  0.00  0.00    +0.024 A 
ATOM     12  C   UNL     1     -11.105   2.870  -3.690  0.00  0.00    +0.036 A 
ATOM     13  C   UNL     1     -11.578   1.802  -4.441  0.00  0.00    +0.024 A 
ATOM     14  C   UNL     1     -12.790   1.902  -5.095  0.00  0.00    +0.005 A 
BRANCH   9  15
ATOM     15  C   UNL     1     -14.848   3.177  -5.730  0.00  0.00    +0.035 C 
BRANCH  15  16
ATOM     16  C   UNL     1     -14.617   3.727  -7.139  0.00  0.00    +0.004 C 
BRANCH  16  18
ATOM     17  C   UNL     1     -15.727   4.387  -9.278  0.00  0.00    +0.004 C 
ATOM     18  C   UNL     1     -15.957   3.837  -7.869  0.00  0.00    -0.003 C 
ENDBRANCH  16  18
ENDBRANCH  15  16
ENDBRANCH   9  15
ENDBRANCH   3  12
ENDBRANCH   1   5
BRANCH   1  19
ATOM     19  O   UNL     1      -6.020   3.581  -0.339  0.00  0.00    -0.452 OA
BRANCH  19  20
ATOM     20  C   UNL     1      -4.947   4.534  -0.118  0.00  0.00    +0.259 C 
ATOM     21  C   UNL     1      -5.199   5.292   1.187  0.00  0.00    +0.062 C 
BRANCH  20  22
ATOM     22  C   UNL     1      -3.634   3.800  -0.028  0.00  0.00    +0.258 C 
ATOM     23  O   UNL     1      -3.615   2.587  -0.048  0.00  0.00    -0.271 OA
ATOM     24  N   UNL     1      -2.482   4.490   0.075  0.00  0.00    -0.282 N 
ATOM     25  H   UNL     1      -2.501   5.456   0.168  0.00  0.00    +0.155 HD
BRANCH  24  26
ATOM     26  C   UNL     1      -1.255   3.814   0.048  0.00  0.00    +0.035 A 
ATOM     27  C   UNL     1      -1.112   2.666  -0.721  0.00  0.00    +0.027 A 
ATOM     28  C   UNL     1       0.098   2.000  -0.748  0.00  0.00    +0.049 A 
ATOM     29  C   UNL     1       1.169   2.476  -0.008  0.00  0.00    +0.138 A 
ATOM     30  C   UNL     1       1.027   3.623   0.761  0.00  0.00    +0.084 A 
ATOM     31  C   UNL     1      -0.184   4.288   0.793  0.00  0.00    +0.047 A 
ATOM     32 CL   UNL     1       2.369   4.218   1.688  0.00  0.00    -0.080 Cl
BRANCH  29  33
ATOM     33  O   UNL     1       2.360   1.819  -0.035  0.00  0.00    -0.494 OA
ATOM     34  C   UNL     1       2.435   0.646  -0.847  0.00  0.00    +0.277 C 
ENDBRANCH  29  33
ENDBRANCH  24  26
ENDBRANCH  20  22
ENDBRANCH  19  20
ENDBRANCH   1  19
TORSDOF 10
