REMARK  Name = ZINC62438441
REMARK  12 active torsions:
REMARK  status: ('A' for Active; 'I' for Inactive)
REMARK    1  A    between atoms: C_1  and  C_2
REMARK    2  A    between atoms: C_3  and  C_11
REMARK    3  A    between atoms: C_4  and  C_7
REMARK    4  A    between atoms: C_7  and  C_8
REMARK    5  A    between atoms: C_7  and  C_9
REMARK    6  A    between atoms: C_7  and  C_10
REMARK    7  A    between atoms: N_13  and  C_14
REMARK    8  A    between atoms: C_14  and  C_16
REMARK    9  A    between atoms: C_14  and  C_22
REMARK   10  A    between atoms: N_24  and  C_25
REMARK   11  A    between atoms: C_25  and  C_26
REMARK   12  A    between atoms: C_25  and  C_27
REMARK                            x       y       z     vdW  Elec       q    Type
REMARK                         _______ _______ _______ _____ _____    ______ ____
ROOT
ATOM      1  C   UNL     1      -2.504  -0.399   0.012  0.00  0.00    +0.250 C 
ATOM      2  O   UNL     1      -3.092  -0.219  -1.037  0.00  0.00    -0.270 OA
ATOM      3  N   UNL     1      -3.144  -0.212   1.184  0.00  0.00    -0.296 N 
ATOM      4  H   UNL     1      -2.675  -0.356   2.021  0.00  0.00    +0.150 HD
ENDROOT
BRANCH   1   7
ATOM      5  C   UNL     1      -0.018   1.503   0.010  0.00  0.00    +0.090 C 
ATOM      6  C   UNL     1       0.002  -0.004   0.002  0.00  0.00    +0.147 A 
ATOM      7  C   UNL     1      -1.092  -0.821   0.003  0.00  0.00    +0.102 A 
ATOM      8  C   UNL     1      -0.593  -2.197  -0.007  0.00  0.00    +0.101 A 
ATOM      9  N   UNL     1       0.706  -2.133  -0.013  0.00  0.00    -0.082 NA
ATOM     10  O   UNL     1       1.093  -0.774  -0.013  0.00  0.00    -0.359 OA
BRANCH   8  11
ATOM     11  C   UNL     1      -1.427  -3.452  -0.010  0.00  0.00    +0.008 C 
ATOM     12  C   UNL     1      -2.316  -3.470  -1.255  0.00  0.00    +0.017 C 
ATOM     13  C   UNL     1      -0.508  -4.675  -0.021  0.00  0.00    +0.017 C 
ATOM     14  C   UNL     1      -2.304  -3.484   1.243  0.00  0.00    +0.017 C 
ENDBRANCH   8  11
ENDBRANCH   1   7
BRANCH   3  15
ATOM     15  C   UNL     1      -4.547   0.208   1.193  0.00  0.00    +0.190 C 
BRANCH  15  16
ATOM     16  C   UNL     1      -5.435  -1.004   1.067  0.00  0.00    -0.018 A 
ATOM     17  C   UNL     1      -5.119  -2.165   1.747  0.00  0.00    +0.006 A 
ATOM     18  C   UNL     1      -5.934  -3.277   1.631  0.00  0.00    +0.000 A 
ATOM     19  C   UNL     1      -7.063  -3.226   0.836  0.00  0.00    +0.000 A 
ATOM     20  C   UNL     1      -7.379  -2.064   0.157  0.00  0.00    +0.000 A 
ATOM     21  C   UNL     1      -6.568  -0.952   0.276  0.00  0.00    +0.006 A 
ENDBRANCH  15  16
BRANCH  15  22
ATOM     22  C   UNL     1      -4.850   0.920   2.486  0.00  0.00    +0.238 C 
ATOM     23  O   UNL     1      -3.979   1.063   3.318  0.00  0.00    -0.273 OA
ATOM     24  N   UNL     1      -6.088   1.398   2.718  0.00  0.00    -0.311 N 
ATOM     25  H   UNL     1      -6.785   1.284   2.053  0.00  0.00    +0.149 HD
BRANCH  24  26
ATOM     26  C   UNL     1      -6.383   2.090   3.976  0.00  0.00    +0.067 C 
ATOM     27  C   UNL     1      -5.996   3.565   3.848  0.00  0.00    +0.027 C 
ATOM     28  C   UNL     1      -7.878   1.979   4.281  0.00  0.00    +0.027 C 
ENDBRANCH  24  26
ENDBRANCH  15  22
ENDBRANCH   3  15
TORSDOF 6
