REMARK  Name = ZINC15101209
REMARK  8 active torsions:
REMARK  status: ('A' for Active; 'I' for Inactive)
REMARK    1  A    between atoms: C_1  and  C_2
REMARK    2  A    between atoms: C_5  and  S_8
REMARK    3  A    between atoms: S_8  and  N_11
REMARK    4  A    between atoms: C_17  and  C_19
REMARK    5  A    between atoms: C_17  and  C_20
REMARK    6  A    between atoms: C_17  and  N_57
REMARK    7  A    between atoms: N_22  and  C_23
REMARK    8  A    between atoms: C_25  and  N_30
REMARK                            x       y       z     vdW  Elec       q    Type
REMARK                         _______ _______ _______ _____ _____    ______ ____
ROOT
ATOM      1  N   UNL     1      -0.719   1.592   1.218  0.00  0.00    -0.178 NA
ATOM      2  C   UNL     1      -0.002   1.088  -0.002  0.00  0.00    +0.107 C 
ATOM      3  C   UNL     1      -0.740   1.582  -1.169  0.00  0.00    -0.001 C 
ATOM      4  C   UNL     1      -0.866   3.101  -1.230  0.00  0.00    -0.076 C 
ATOM      5  C   UNL     1      -1.836   3.838   0.870  0.00  0.00    -0.060 C 
ATOM      6  C   UNL     1      -0.702   3.000   1.502  0.00  0.00    +0.091 C 
ATOM      7  N   UNL     1      -2.105   3.381  -0.526  0.00  0.00    +0.388 N 
ATOM      8  H   UNL     1      -2.665   2.521  -0.489  0.00  0.00    -0.081 HD
ENDROOT
BRANCH   1   9
ATOM      9  S   UNL     1      -1.520   0.542   2.217  0.00  0.00    +0.061 S 
ATOM     10  O   UNL     1      -2.510   1.302   2.896  0.00  0.00    -0.153 OA
ATOM     11  O   UNL     1      -1.840  -0.600   1.434  0.00  0.00    -0.153 OA
BRANCH   9  16
ATOM     12  C   UNL     1       2.419  -1.289   6.405  0.00  0.00    +0.044 C 
ATOM     13  C   UNL     1       1.435  -0.832   5.359  0.00  0.00    -0.050 A 
ATOM     14  C   UNL     1       0.662   0.292   5.582  0.00  0.00    +0.005 A 
ATOM     15  C   UNL     1      -0.241   0.712   4.623  0.00  0.00    +0.029 A 
ATOM     16  C   UNL     1      -0.369   0.007   3.440  0.00  0.00    +0.105 A 
ATOM     17  C   UNL     1       0.400  -1.120   3.220  0.00  0.00    +0.029 A 
ATOM     18  C   UNL     1       1.306  -1.537   4.177  0.00  0.00    +0.005 A 
ENDBRANCH   9  16
ENDBRANCH   1   9
BRANCH   7  19
ATOM     19  C   UNL     1      -2.865   4.422  -1.261  0.00  0.00    +0.016 C 
ATOM     20  C   UNL     1      -1.988   5.647  -1.528  0.00  0.00    -0.004 C 
BRANCH  19  21
ATOM     21  C   UNL     1      -3.336   3.846  -2.571  0.00  0.00    +0.203 C 
ATOM     22  O   UNL     1      -3.051   2.706  -2.870  0.00  0.00    -0.277 OA
ATOM     23  N   UNL     1      -4.074   4.599  -3.411  0.00  0.00    -0.286 N 
ATOM     24  H   UNL     1      -4.370   5.482  -3.139  0.00  0.00    +0.155 HD
BRANCH  23  25
ATOM     25  C   UNL     1      -4.414   4.106  -4.677  0.00  0.00    +0.054 A 
ATOM     26  C   UNL     1      -3.625   3.137  -5.281  0.00  0.00    +0.057 A 
ATOM     27  C   UNL     1      -3.963   2.652  -6.529  0.00  0.00    +0.128 A 
ATOM     28  C   UNL     1      -5.087   3.131  -7.178  0.00  0.00    +0.034 A 
ATOM     29  C   UNL     1      -5.875   4.096  -6.580  0.00  0.00    +0.024 A 
ATOM     30  C   UNL     1      -5.545   4.582  -5.328  0.00  0.00    +0.062 A 
ATOM     31 CL   UNL     1      -6.540   5.789  -4.574  0.00  0.00    -0.082 Cl
BRANCH  27  32
ATOM     32  N   UNL     1      -3.121   1.619  -7.174  0.00  0.00    +0.056 N 
ATOM     33  O   UNL     1      -2.132   1.197  -6.604  0.00  0.00    -0.126 OA
ATOM     34  O   UNL     1      -3.419   1.191  -8.275  0.00  0.00    -0.126 OA
ENDBRANCH  27  32
ENDBRANCH  23  25
ENDBRANCH  19  21
ENDBRANCH   7  19
TORSDOF 6
