REMARK  Name = ZINC02407696
REMARK  5 active torsions:
REMARK  status: ('A' for Active; 'I' for Inactive)
REMARK    1  A    between atoms: C_2  and  C_3
REMARK    2  A    between atoms: C_3  and  N_4
REMARK    3  A    between atoms: C_5  and  N_27
REMARK    4  A    between atoms: C_6  and  S_17
REMARK    5  A    between atoms: S_17  and  C_20
REMARK                            x       y       z     vdW  Elec       q    Type
REMARK                         _______ _______ _______ _____ _____    ______ ____
ROOT
ATOM      1  N   UNL     1      -2.181   3.418   3.739  0.00  0.00    -0.307 N 
ATOM      2  C   UNL     1      -1.669   3.550   2.472  0.00  0.00    +0.126 A 
ATOM      3  C   UNL     1      -2.001   2.483   1.708  0.00  0.00    +0.160 A 
ATOM      4  C   UNL     1      -2.776   1.602   2.500  0.00  0.00    +0.135 A 
ATOM      5  C   UNL     1      -2.875   2.230   3.823  0.00  0.00    +0.163 A 
ATOM      6  N   UNL     1      -3.543   1.628   4.781  0.00  0.00    -0.226 NA
ATOM      7  C   UNL     1      -4.137   0.452   4.542  0.00  0.00    +0.092 A 
ATOM      8  C   UNL     1      -4.859  -0.197   5.561  0.00  0.00    +0.030 A 
ATOM      9  C   UNL     1      -5.453  -1.396   5.312  0.00  0.00    +0.002 A 
ATOM     10  C   UNL     1      -5.358  -1.996   4.058  0.00  0.00    +0.002 A 
ATOM     11  C   UNL     1      -4.668  -1.400   3.048  0.00  0.00    +0.030 A 
ATOM     12  C   UNL     1      -4.040  -0.159   3.267  0.00  0.00    +0.090 A 
ATOM     13  N   UNL     1      -3.361   0.435   2.280  0.00  0.00    -0.240 NA
ENDROOT
BRANCH   3  14
ATOM     14  S   UNL     1      -1.555   2.238   0.022  0.00  0.00    +0.030 S 
ATOM     15  O   UNL     1      -1.304   3.526  -0.523  0.00  0.00    -0.164 OA
ATOM     16  O   UNL     1      -2.519   1.352  -0.529  0.00  0.00    -0.164 OA
BRANCH  14  17
ATOM     17  C   UNL     1      -0.017   1.378   0.010  0.00  0.00    +0.094 A 
ATOM     18  C   UNL     1       1.171   2.086   0.002  0.00  0.00    +0.029 A 
ATOM     19  C   UNL     1       2.377   1.412  -0.013  0.00  0.00    +0.022 A 
ATOM     20  C   UNL     1       2.397   0.029  -0.021  0.00  0.00    +0.041 A 
ATOM     21  C   UNL     1       1.208  -0.679  -0.013  0.00  0.00    +0.022 A 
ATOM     22  C   UNL     1       0.002  -0.004   0.002  0.00  0.00    +0.029 A 
ATOM     23 CL   UNL     1       3.912  -0.818  -0.039  0.00  0.00    -0.084 Cl
ENDBRANCH  14  17
ENDBRANCH   3  14
BRANCH   2  24
ATOM     24  N   UNL     1      -0.916   4.625   2.036  0.00  0.00    -0.343 N 
ATOM     25  H   UNL     1      -0.587   4.649   1.124  0.00  0.00    +0.144 HD
ATOM     26  H   UNL     1      -0.717   5.356   2.642  0.00  0.00    +0.144 HD
ENDBRANCH   2  24
BRANCH   1  27
ATOM     27  C   UNL     1      -2.017   4.386   4.826  0.00  0.00    +0.152 C 
BRANCH  27  29
ATOM     28  C   UNL     1      -3.889   5.571   5.852  0.00  0.00    +0.005 C 
ATOM     29  C   UNL     1      -3.147   5.381   4.788  0.00  0.00    -0.013 C 
ENDBRANCH  27  29
ENDBRANCH   1  27
TORSDOF 5
