REMARK  Name = ZINC41076700
REMARK  5 active torsions:
REMARK  status: ('A' for Active; 'I' for Inactive)
REMARK    1  A    between atoms: C_1  and  C_2
REMARK    2  A    between atoms: C_6  and  C_8
REMARK    3  A    between atoms: C_14  and  C_15
REMARK    4  A    between atoms: N_19  and  C_20
REMARK    5  A    between atoms: C_24  and  N_26
REMARK                            x       y       z     vdW  Elec       q    Type
REMARK                         _______ _______ _______ _____ _____    ______ ____
ROOT
ATOM      1  C   UNL     1      -2.693  -3.077   2.231  0.00  0.00    +0.130 C 
ATOM      2  N   UNL     1      -2.006  -4.167   2.476  0.00  0.00    -0.164 NA
ATOM      3  N   UNL     1      -1.689  -4.531   3.767  0.00  0.00    -0.152 N 
ATOM      4  C   UNL     1      -0.881  -5.627   4.140  0.00  0.00    +0.153 C 
ATOM      5  N   UNL     1      -0.002  -6.176   3.341  0.00  0.00    -0.283 NA
ATOM      6  C   UNL     1      -1.126  -6.095   5.531  0.00  0.00    +0.082 C 
ATOM      7  C   UNL     1      -1.009  -7.430   5.882  0.00  0.00    +0.042 C 
ATOM      8  C   UNL     1      -1.500  -5.058   6.520  0.00  0.00    +0.273 C 
ATOM      9  O   UNL     1      -1.284  -5.219   7.711  0.00  0.00    -0.268 OA
ATOM     10  N   UNL     1      -2.086  -3.931   6.068  0.00  0.00    -0.152 NA
ATOM     11  C   UNL     1      -2.186  -3.735   4.778  0.00  0.00    +0.181 C 
ATOM     12  S   UNL     1      -2.978  -2.432   3.873  0.00  0.00    -0.033 S 
ATOM     13  H   UNL     1       0.118  -5.831   2.442  0.00  0.00    +0.188 HD
ENDROOT
BRANCH   1  19
ATOM     14  C   UNL     1      -5.026   0.466  -0.397  0.00  0.00    +0.044 C 
ATOM     15  C   UNL     1      -4.239  -0.818  -0.341  0.00  0.00    -0.050 A 
ATOM     16  C   UNL     1      -3.912  -1.479  -1.512  0.00  0.00    +0.003 A 
ATOM     17  C   UNL     1      -3.191  -2.658  -1.469  0.00  0.00    +0.001 A 
ATOM     18  C   UNL     1      -2.792  -3.183  -0.256  0.00  0.00    +0.010 A 
ATOM     19  C   UNL     1      -3.117  -2.520   0.927  0.00  0.00    +0.009 A 
ATOM     20  C   UNL     1      -3.841  -1.329   0.877  0.00  0.00    +0.014 A 
ENDBRANCH   1  19
BRANCH   7  21
ATOM     21  C   UNL     1      -1.332  -7.844   7.187  0.00  0.00    +0.047 A 
ATOM     22  C   UNL     1      -2.426  -8.615   7.558  0.00  0.00    +0.027 A 
ATOM     23  C   UNL     1      -2.356  -8.787   8.941  0.00  0.00    +0.020 A 
ATOM     24  C   UNL     1      -1.251  -8.138   9.390  0.00  0.00    +0.092 A 
ATOM     25  N   UNL     1      -0.617  -7.565   8.335  0.00  0.00    -0.316 N 
BRANCH  25  26
ATOM     26  C   UNL     1       0.564  -6.814   8.400  0.00  0.00    +0.049 A 
ATOM     27  C   UNL     1       1.616  -7.095   7.539  0.00  0.00    +0.026 A 
ATOM     28  C   UNL     1       2.779  -6.353   7.606  0.00  0.00    +0.004 A 
ATOM     29  C   UNL     1       2.896  -5.330   8.530  0.00  0.00    +0.033 A 
ATOM     30  C   UNL     1       1.850  -5.048   9.389  0.00  0.00    +0.128 A 
ATOM     31  C   UNL     1       0.682  -5.783   9.323  0.00  0.00    +0.058 A 
BRANCH  30  32
ATOM     32  N   UNL     1       1.980  -3.953  10.376  0.00  0.00    +0.056 N 
ATOM     33  O   UNL     1       3.000  -3.306  10.431  0.00  0.00    -0.126 OA
ATOM     34  O   UNL     1       1.065  -3.705  11.127  0.00  0.00    -0.126 OA
ENDBRANCH  30  32
ENDBRANCH  25  26
ENDBRANCH   7  21
TORSDOF 4
