REMARK  Name = ZINC40728778
REMARK  6 active torsions:
REMARK  status: ('A' for Active; 'I' for Inactive)
REMARK    1  A    between atoms: C_1  and  C_2
REMARK    2  A    between atoms: C_3  and  C_28
REMARK    3  A    between atoms: C_9  and  N_27
REMARK    4  A    between atoms: C_10  and  N_14
REMARK    5  A    between atoms: N_17  and  C_20
REMARK    6  A    between atoms: C_20  and  C_21
REMARK                            x       y       z     vdW  Elec       q    Type
REMARK                         _______ _______ _______ _____ _____    ______ ____
ROOT
ATOM      1  C   UNL     1       0.040   1.656   0.124  0.00  0.00    +0.066 C 
ATOM      2  C   UNL     1       1.269   1.166   0.845  0.00  0.00    +0.050 A 
ATOM      3  C   UNL     1       2.513   1.534   0.453  0.00  0.00    +0.011 A 
ATOM      4  S   UNL     1       3.511   0.665   1.651  0.00  0.00    -0.057 S 
ATOM      5  C   UNL     1       2.261  -0.064   2.511  0.00  0.00    +0.164 A 
ATOM      6  N   UNL     1       1.182   0.364   1.890  0.00  0.00    -0.230 NA
ATOM      7  N   UNL     1       2.346  -0.905   3.611  0.00  0.00    -0.277 N 
ATOM      8  C   UNL     1       1.188  -1.413   4.190  0.00  0.00    +0.150 A 
ATOM      9  C   UNL     1       1.262  -2.256   5.300  0.00  0.00    +0.106 A 
ATOM     10  C   UNL     1       0.069  -2.737   5.843  0.00  0.00    +0.147 A 
ATOM     11  N   UNL     1      -1.085  -2.376   5.285  0.00  0.00    -0.219 NA
ATOM     12  C   UNL     1      -1.110  -1.577   4.237  0.00  0.00    +0.225 A 
ATOM     13  N   UNL     1      -0.008  -1.098   3.698  0.00  0.00    -0.219 NA
ATOM     14  C   UNL     1       2.937   2.430  -0.682  0.00  0.00    +0.053 C 
ATOM     15  H   UNL     1       3.214  -1.140   3.975  0.00  0.00    +0.156 HD
ENDROOT
BRANCH  10  16
ATOM     16  N   UNL     1       0.085  -3.580   6.948  0.00  0.00    -0.317 N 
ATOM     17  C   UNL     1       0.235  -5.034   6.787  0.00  0.00    +0.088 C 
ATOM     18  C   UNL     1      -0.872  -5.728   7.588  0.00  0.00    -0.059 C 
ATOM     19  N   UNL     1      -0.830  -5.264   8.981  0.00  0.00    +0.384 N 
ATOM     20  C   UNL     1      -1.139  -3.830   9.040  0.00  0.00    -0.059 C 
ATOM     21  C   UNL     1      -0.040  -3.042   8.311  0.00  0.00    +0.088 C 
ATOM     22  H   UNL     1       0.091  -5.424   9.360  0.00  0.00    -0.081 HD
BRANCH  19  23
ATOM     23  C   UNL     1      -1.818  -6.009   9.773  0.00  0.00    -0.043 C 
BRANCH  23  24
ATOM     24  C   UNL     1      -1.693  -5.623  11.224  0.00  0.00    -0.064 A 
ATOM     25  C   UNL     1      -0.836  -6.322  12.054  0.00  0.00    +0.002 A 
ATOM     26  C   UNL     1      -0.721  -5.968  13.385  0.00  0.00    +0.000 A 
ATOM     27  C   UNL     1      -1.463  -4.915  13.887  0.00  0.00    +0.000 A 
ATOM     28  C   UNL     1      -2.320  -4.216  13.057  0.00  0.00    +0.000 A 
ATOM     29  C   UNL     1      -2.431  -4.567  11.725  0.00  0.00    +0.002 A 
ENDBRANCH  23  24
ENDBRANCH  19  23
ENDBRANCH  10  16
BRANCH   9  30
ATOM     30  N   UNL     1       2.502  -2.611   5.855  0.00  0.00    -0.353 N 
ATOM     31  H   UNL     1       3.324  -2.344   5.416  0.00  0.00    +0.143 HD
ATOM     32  H   UNL     1       2.536  -3.123   6.678  0.00  0.00    +0.143 HD
ENDBRANCH   9  30
TORSDOF 4
