REMARK  Name = ZINC21323925
REMARK  9 active torsions:
REMARK  status: ('A' for Active; 'I' for Inactive)
REMARK    1  A    between atoms: C_1  and  C_2
REMARK    2  A    between atoms: C_2  and  C_23
REMARK    3  A    between atoms: N_3  and  N_4
REMARK    4  A    between atoms: C_8  and  S_11
REMARK    5  A    between atoms: N_9  and  N_10
REMARK    6  A    between atoms: S_11  and  C_12
REMARK    7  A    between atoms: C_12  and  C_13
REMARK    8  A    between atoms: N_15  and  C_16
REMARK    9  A    between atoms: C_24  and  C_25
REMARK                            x       y       z     vdW  Elec       q    Type
REMARK                         _______ _______ _______ _____ _____    ______ ____
ROOT
ATOM      1  N   UNL     1       1.185   7.706  -0.034  0.00  0.00    -0.204 N 
ATOM      2  C   UNL     1      -0.021   8.390  -0.009  0.00  0.00    +0.254 A 
ATOM      3  N   UNL     1      -1.217   7.856   0.004  0.00  0.00    -0.109 NA
ATOM      4  N   UNL     1      -2.111   8.780   0.026  0.00  0.00    -0.119 NA
ATOM      5  C   UNL     1      -1.539   9.959   0.030  0.00  0.00    +0.210 A 
ATOM      6  N   UNL     1      -0.185   9.751   0.014  0.00  0.00    -0.211 N 
ATOM      7  H   UNL     1       2.134   8.264  -0.041  0.00  0.00    +0.178 HD
ENDROOT
BRANCH   1  10
ATOM      8  C   UNL     1       3.629   6.426  -0.083  0.00  0.00    +0.067 C 
ATOM      9  C   UNL     1       2.330   5.662  -0.072  0.00  0.00    +0.056 C 
ATOM     10  N   UNL     1       1.196   6.305  -0.049  0.00  0.00    -0.185 NA
BRANCH   9  11
ATOM     11  C   UNL     1       2.341   4.246  -0.087  0.00  0.00    +0.025 C 
ATOM     12  C   UNL     1       1.178   3.562  -0.078  0.00  0.00    +0.010 C 
BRANCH  12  13
ATOM     13  C   UNL     1       1.190   2.090  -0.094  0.00  0.00    -0.025 A 
ATOM     14  C   UNL     1      -0.014   1.378  -0.084  0.00  0.00    +0.008 A 
ATOM     15  C   UNL     1       0.005  -0.001  -0.099  0.00  0.00    +0.001 A 
ATOM     16  C   UNL     1       1.211  -0.680  -0.124  0.00  0.00    +0.000 A 
ATOM     17  C   UNL     1       2.406   0.018  -0.134  0.00  0.00    +0.001 A 
ATOM     18  C   UNL     1       2.404   1.397  -0.119  0.00  0.00    +0.008 A 
ENDBRANCH  12  13
ENDBRANCH   9  11
ENDBRANCH   1  10
BRANCH   6  19
ATOM     19  N   UNL     1       0.796  10.701   0.017  0.00  0.00    -0.294 N 
ATOM     20  H   UNL     1       0.529  11.768   0.036  0.00  0.00    +0.163 HD
ATOM     21  H   UNL     1       1.854  10.400   0.000  0.00  0.00    +0.163 HD
ENDBRANCH   6  19
BRANCH   5  22
ATOM     22  S   UNL     1      -2.358  11.519   0.058  0.00  0.00    -0.075 S 
BRANCH  22  23
ATOM     23  C   UNL     1      -4.082  10.969   0.079  0.00  0.00    +0.173 C 
BRANCH  23  24
ATOM     24  C   UNL     1      -4.992  12.169   0.105  0.00  0.00    +0.228 C 
ATOM     25  O   UNL     1      -4.522  13.287   0.109  0.00  0.00    -0.275 OA
ATOM     26  N   UNL     1      -6.329  12.001   0.124  0.00  0.00    -0.284 N 
ATOM     27  H   UNL     1      -6.758  10.991   0.045  0.00  0.00    +0.155 HD
BRANCH  26  28
ATOM     28  C   UNL     1      -7.173  13.112   0.243  0.00  0.00    +0.047 A 
ATOM     29  C   UNL     1      -6.821  14.319  -0.347  0.00  0.00    +0.024 A 
ATOM     30  C   UNL     1      -7.658  15.412  -0.231  0.00  0.00    +0.002 A 
ATOM     31  C   UNL     1      -8.840  15.308   0.479  0.00  0.00    +0.001 A 
ATOM     32  C   UNL     1      -9.191  14.109   1.071  0.00  0.00    +0.017 A 
ATOM     33  C   UNL     1      -8.361  13.010   0.956  0.00  0.00    +0.039 A 
ATOM     34 BR   UNL     1      -8.841  11.371   1.767  0.00  0.00    -0.048 Br
ENDBRANCH  26  28
ENDBRANCH  23  24
ENDBRANCH  22  23
ENDBRANCH   5  22
TORSDOF 8
