REMARK  Name = ZINC62062790
REMARK  8 active torsions:
REMARK  status: ('A' for Active; 'I' for Inactive)
REMARK    1  A    between atoms: C_1  and  C_2
REMARK    2  A    between atoms: C_2  and  C_3
REMARK    3  A    between atoms: C_2  and  C_4
REMARK    4  A    between atoms: C_4  and  C_6
REMARK    5  A    between atoms: C_4  and  C_14
REMARK    6  A    between atoms: C_9  and  O_12
REMARK    7  A    between atoms: O_12  and  C_13
REMARK    8  A    between atoms: N_16  and  C_17
REMARK                            x       y       z     vdW  Elec       q    Type
REMARK                         _______ _______ _______ _____ _____    ______ ____
ROOT
ATOM      1  C   UNL     1       0.204  -1.753  -1.985  0.00  0.00    +0.225 C 
ATOM      2  O   UNL     1       1.035  -2.300  -2.680  0.00  0.00    -0.275 OA
ATOM      3  N   UNL     1      -0.747  -2.484  -1.371  0.00  0.00    -0.285 N 
ATOM      4  H   UNL     1      -1.369  -2.057  -0.761  0.00  0.00    +0.155 HD
ENDROOT
BRANCH   3   5
ATOM      5  C   UNL     1      -0.839  -3.861  -1.615  0.00  0.00    +0.036 A 
ATOM      6  C   UNL     1       0.316  -4.611  -1.804  0.00  0.00    +0.027 A 
ATOM      7  C   UNL     1       0.232  -5.968  -2.044  0.00  0.00    +0.050 A 
ATOM      8  C   UNL     1      -1.007  -6.587  -2.096  0.00  0.00    +0.157 A 
ATOM      9  C   UNL     1      -2.167  -5.836  -1.906  0.00  0.00    +0.089 A 
ATOM     10  C   UNL     1      -2.082  -4.475  -1.661  0.00  0.00    +0.052 A 
ATOM     11  N   UNL     1      -3.238  -6.723  -2.015  0.00  0.00    -0.288 N 
ATOM     12  H   UNL     1      -4.179  -6.499  -1.931  0.00  0.00    +0.172 HD
ATOM     13  C   UNL     1      -2.729  -7.946  -2.260  0.00  0.00    +0.419 A 
ATOM     14  O   UNL     1      -3.381  -8.961  -2.412  0.00  0.00    -0.223 OA
ATOM     15  O   UNL     1      -1.390  -7.871  -2.309  0.00  0.00    -0.408 OA
ENDBRANCH   3   5
BRANCH   1  16
ATOM     16  C   UNL     1       0.237  -0.257  -1.808  0.00  0.00    +0.108 C 
BRANCH  16  17
ATOM     17  C   UNL     1       0.701   0.391  -3.087  0.00  0.00    -0.035 A 
ATOM     18  C   UNL     1       1.946   0.083  -3.603  0.00  0.00    +0.008 A 
ATOM     19  C   UNL     1       2.374   0.676  -4.775  0.00  0.00    +0.046 A 
ATOM     20  C   UNL     1       1.554   1.580  -5.434  0.00  0.00    +0.120 A 
ATOM     21  C   UNL     1       0.305   1.886  -4.914  0.00  0.00    +0.046 A 
ATOM     22  C   UNL     1      -0.121   1.287  -3.744  0.00  0.00    +0.008 A 
BRANCH  20  23
ATOM     23  O   UNL     1       1.973   2.164  -6.587  0.00  0.00    -0.495 OA
ATOM     24  C   UNL     1       1.076   3.085  -7.211  0.00  0.00    +0.277 C 
ENDBRANCH  20  23
ENDBRANCH  16  17
BRANCH  16  26
ATOM     25  C   UNL     1       1.298   1.623  -0.551  0.00  0.00    +0.008 C 
ATOM     26  C   UNL     1       1.201   0.102  -0.675  0.00  0.00    -0.001 C 
ATOM     27  C   UNL     1       0.684  -0.485   0.640  0.00  0.00    +0.008 C 
ENDBRANCH  16  26
ENDBRANCH   1  16
TORSDOF 5
