REMARK  Name = ZINC16225854
REMARK  5 active torsions:
REMARK  status: ('A' for Active; 'I' for Inactive)
REMARK    1  A    between atoms: C_1  and  C_2
REMARK    2  A    between atoms: C_5  and  C_23
REMARK    3  A    between atoms: C_10  and  C_12
REMARK    4  A    between atoms: C_13  and  C_14
REMARK    5  A    between atoms: C_17  and  N_20
REMARK                            x       y       z     vdW  Elec       q    Type
REMARK                         _______ _______ _______ _____ _____    ______ ____
ROOT
ATOM      1  C   UNL     1      -0.009  -0.004  -0.003  0.00  0.00    +0.068 C 
ATOM      2  C   UNL     1      -1.167  -0.686   0.106  0.00  0.00    +0.013 C 
ENDROOT
BRANCH   1  10
ATOM      3  C   UNL     1       2.210   5.524   1.330  0.00  0.00    +0.009 C 
ATOM      4  C   UNL     1       2.080   4.000   1.277  0.00  0.00    +0.004 C 
ATOM      5  C   UNL     1       3.461   3.377   1.058  0.00  0.00    +0.009 C 
ATOM      6  C   UNL     1       3.336   1.852   1.038  0.00  0.00    +0.004 C 
ATOM      7  C   UNL     1       2.427   1.432  -0.115  0.00  0.00    +0.111 C 
ATOM      8  N   UNL     1       1.145   2.141   0.003  0.00  0.00    -0.297 N 
ATOM      9  C   UNL     1       1.156   3.605   0.121  0.00  0.00    +0.111 C 
ATOM     10  C   UNL     1      -0.018   1.460   0.010  0.00  0.00    +0.239 C 
ATOM     11  O   UNL     1      -1.075   2.062   0.022  0.00  0.00    -0.271 OA
ATOM     12  C   UNL     1       4.721   1.229   0.852  0.00  0.00    +0.009 C 
ENDBRANCH   1  10
BRANCH   2  13
ATOM     13  C   UNL     1      -1.158  -2.158   0.093  0.00  0.00    -0.025 A 
ATOM     14  C   UNL     1       0.048  -2.853  -0.038  0.00  0.00    +0.010 A 
ATOM     15  C   UNL     1       0.049  -4.231  -0.044  0.00  0.00    +0.033 A 
ATOM     16  C   UNL     1      -1.142  -4.928   0.069  0.00  0.00    +0.126 A 
ATOM     17  C   UNL     1      -2.341  -4.248   0.193  0.00  0.00    +0.033 A 
ATOM     18  C   UNL     1      -2.357  -2.869   0.206  0.00  0.00    +0.010 A 
BRANCH  16  19
ATOM     19  N   UNL     1      -1.133  -6.408   0.056  0.00  0.00    +0.056 N 
ATOM     20  O   UNL     1      -2.179  -7.024   0.155  0.00  0.00    -0.126 OA
ATOM     21  O   UNL     1      -0.080  -7.010  -0.053  0.00  0.00    -0.126 OA
ENDBRANCH  16  19
ENDBRANCH   2  13
TORSDOF 3
