REMARK  Name = ZINC63817249
REMARK  9 active torsions:
REMARK  status: ('A' for Active; 'I' for Inactive)
REMARK    1  A    between atoms: C_1  and  C_2
REMARK    2  A    between atoms: C_2  and  C_4
REMARK    3  A    between atoms: C_2  and  O_17
REMARK    4  A    between atoms: N_6  and  C_7
REMARK    5  A    between atoms: C_10  and  N_13
REMARK    6  A    between atoms: C_14  and  C_16
REMARK    7  A    between atoms: O_17  and  C_18
REMARK    8  A    between atoms: C_18  and  C_20
REMARK    9  A    between atoms: C_20  and  C_21
REMARK                            x       y       z     vdW  Elec       q    Type
REMARK                         _______ _______ _______ _____ _____    ______ ____
ROOT
ATOM      1  C   UNL     1      -0.062   1.494  -0.010  0.00  0.00    +0.062 C 
ATOM      2  C   UNL     1      -0.026  -0.036  -0.007  0.00  0.00    +0.259 C 
ENDROOT
BRANCH   2   3
ATOM      3  C   UNL     1       0.687  -0.524  -1.242  0.00  0.00    +0.258 C 
ATOM      4  O   UNL     1       0.083  -1.160  -2.080  0.00  0.00    -0.271 OA
ATOM      5  N   UNL     1       1.996  -0.253  -1.416  0.00  0.00    -0.282 N 
ATOM      6  H   UNL     1       2.463   0.312  -0.780  0.00  0.00    +0.155 HD
BRANCH   5   7
ATOM      7  C   UNL     1       2.682  -0.787  -2.514  0.00  0.00    +0.034 A 
ATOM      8  C   UNL     1       4.010  -1.170  -2.384  0.00  0.00    +0.025 A 
ATOM      9  C   UNL     1       4.686  -1.697  -3.466  0.00  0.00    +0.025 A 
ATOM     10  C   UNL     1       4.037  -1.843  -4.686  0.00  0.00    +0.033 A 
ATOM     11  C   UNL     1       2.709  -1.460  -4.816  0.00  0.00    +0.025 A 
ATOM     12  C   UNL     1       2.031  -0.939  -3.732  0.00  0.00    +0.025 A 
BRANCH  10  13
ATOM     13  N   UNL     1       4.723  -2.377  -5.784  0.00  0.00    -0.286 N 
ATOM     14  C   UNL     1       4.464  -1.923  -7.026  0.00  0.00    +0.214 C 
ATOM     15  O   UNL     1       3.578  -1.114  -7.203  0.00  0.00    -0.276 OA
ATOM     16  C   UNL     1       5.274  -2.422  -8.195  0.00  0.00    +0.109 C 
ATOM     17  H   UNL     1       5.386  -3.073  -5.651  0.00  0.00    +0.155 HD
ENDBRANCH  10  13
ENDBRANCH   5   7
ENDBRANCH   2   3
BRANCH   2  18
ATOM     18  O   UNL     1      -1.362  -0.543   0.003  0.00  0.00    -0.452 OA
BRANCH  18  19
ATOM     19  C   UNL     1      -1.923  -0.758   1.204  0.00  0.00    +0.312 C 
ATOM     20  O   UNL     1      -1.300  -0.522   2.212  0.00  0.00    -0.250 OA
BRANCH  19  21
ATOM     21  C   UNL     1      -3.329  -1.292   1.293  0.00  0.00    +0.153 C 
BRANCH  21  22
ATOM     22  C   UNL     1      -3.718  -1.441   2.742  0.00  0.00    -0.031 C 
ATOM     23  C   UNL     1      -4.400  -0.550   3.497  0.00  0.00    -0.001 A 
ATOM     24  C   UNL     1      -4.960   0.775   3.207  0.00  0.00    +0.010 A 
ATOM     25  C   UNL     1      -5.604   1.444   4.190  0.00  0.00    +0.001 A 
ATOM     26  C   UNL     1      -5.749   0.905   5.476  0.00  0.00    +0.002 A 
ATOM     27  C   UNL     1      -5.261  -0.306   5.818  0.00  0.00    +0.026 A 
ATOM     28  C   UNL     1      -4.566  -1.097   4.862  0.00  0.00    +0.043 A 
ATOM     29  N   UNL     1      -4.010  -2.281   4.948  0.00  0.00    -0.380 N 
ATOM     30  C   UNL     1      -3.431  -2.621   3.643  0.00  0.00    +0.145 C 
ATOM     31  H   UNL     1      -3.987  -2.840   5.740  0.00  0.00    +0.160 HD
ENDBRANCH  21  22
ENDBRANCH  19  21
ENDBRANCH  18  19
ENDBRANCH   2  18
TORSDOF 7
