REMARK  Name = ZINC40812536
REMARK  9 active torsions:
REMARK  status: ('A' for Active; 'I' for Inactive)
REMARK    1  A    between atoms: C_1  and  C_2
REMARK    2  A    between atoms: C_6  and  C_7
REMARK    3  A    between atoms: N_9  and  N_10
REMARK    4  A    between atoms: N_10  and  C_11
REMARK    5  A    between atoms: C_11  and  C_12
REMARK    6  A    between atoms: C_11  and  C_13
REMARK    7  A    between atoms: C_11  and  C_14
REMARK    8  A    between atoms: N_19  and  N_20
REMARK    9  A    between atoms: C_21  and  C_23
REMARK                            x       y       z     vdW  Elec       q    Type
REMARK                         _______ _______ _______ _____ _____    ______ ____
ROOT
ATOM      1  C   UNL     1      -0.018   1.503   0.010  0.00  0.00    +0.048 C 
ATOM      2  C   UNL     1       0.002  -0.004   0.002  0.00  0.00    +0.009 A 
ATOM      3  C   UNL     1       0.008  -0.838  -1.123  0.00  0.00    +0.042 A 
ATOM      4  C   UNL     1       0.026  -2.138  -0.673  0.00  0.00    +0.115 A 
ATOM      5  O   UNL     1       0.034  -2.112   0.658  0.00  0.00    -0.454 OA
ATOM      6  C   UNL     1       0.024  -0.830   1.091  0.00  0.00    +0.194 A 
ATOM      7  C   UNL     1       0.033  -3.327  -1.599  0.00  0.00    +0.075 C 
ATOM      8  C   UNL     1      -0.492  -2.903  -2.974  0.00  0.00    +0.014 C 
ATOM      9  C   UNL     1       0.280  -1.685  -3.494  0.00  0.00    +0.058 C 
ATOM     10  C   UNL     1       0.001  -0.512  -2.566  0.00  0.00    +0.070 C 
ATOM     11  N   UNL     1      -0.227   0.686  -3.008  0.00  0.00    -0.184 NA
ENDROOT
BRANCH   6  12
ATOM     12  C   UNL     1       0.032  -0.399   2.493  0.00  0.00    +0.293 C 
ATOM     13  O   UNL     1       0.018   0.786   2.766  0.00  0.00    -0.266 OA
ATOM     14  N   UNL     1       0.054  -1.317   3.480  0.00  0.00    -0.244 N 
ATOM     15  H   UNL     1       0.065  -2.263   3.263  0.00  0.00    +0.169 HD
BRANCH  14  16
ATOM     16  N   UNL     1       0.061  -0.916   4.786  0.00  0.00    -0.235 NA
ATOM     17  H   UNL     1       0.836  -0.296   4.970  0.00  0.00    +0.145 HD
BRANCH  16  18
ATOM     18  C   UNL     1       0.086  -2.072   5.692  0.00  0.00    +0.028 C 
ATOM     19  C   UNL     1       1.344  -2.901   5.426  0.00  0.00    +0.029 C 
ATOM     20  C   UNL     1       0.093  -1.584   7.142  0.00  0.00    +0.029 C 
ATOM     21  C   UNL     1      -1.154  -2.936   5.450  0.00  0.00    +0.029 C 
ENDBRANCH  16  18
ENDBRANCH  14  16
ENDBRANCH   6  12
BRANCH  11  22
ATOM     22  N   UNL     1      -0.222   0.938  -4.386  0.00  0.00    -0.203 N 
ATOM     23  C   UNL     1      -0.459   2.183  -4.845  0.00  0.00    +0.266 C 
ATOM     24  O   UNL     1      -0.677   3.088  -4.062  0.00  0.00    -0.268 OA
ATOM     25  H   UNL     1      -0.048   0.216  -5.010  0.00  0.00    +0.178 HD
BRANCH  23  26
ATOM     26  C   UNL     1      -0.454   2.448  -6.297  0.00  0.00    +0.073 A 
ATOM     27  C   UNL     1      -0.209   1.409  -7.199  0.00  0.00    +0.016 A 
ATOM     28  C   UNL     1      -0.206   1.663  -8.554  0.00  0.00    +0.001 A 
ATOM     29  C   UNL     1      -0.444   2.944  -9.024  0.00  0.00    +0.003 A 
ATOM     30  C   UNL     1      -0.687   3.978  -8.139  0.00  0.00    +0.039 A 
ATOM     31  C   UNL     1      -0.699   3.738  -6.777  0.00  0.00    +0.136 A 
ATOM     32  F   UNL     1      -0.942   4.748  -5.913  0.00  0.00    -0.205 F 
ENDBRANCH  23  26
ENDBRANCH  11  22
TORSDOF 5
