REMARK  Name = ZINC66089370
REMARK  10 active torsions:
REMARK  status: ('A' for Active; 'I' for Inactive)
REMARK    1  A    between atoms: C_1  and  C_2
REMARK    2  A    between atoms: N_4  and  C_5
REMARK    3  A    between atoms: N_4  and  C_6
REMARK    4  A    between atoms: C_9  and  N_12
REMARK    5  A    between atoms: C_13  and  C_15
REMARK    6  A    between atoms: C_15  and  N_16
REMARK    7  A    between atoms: N_16  and  C_17
REMARK    8  A    between atoms: C_20  and  C_23
REMARK    9  A    between atoms: N_25  and  C_26
REMARK   10  A    between atoms: C_26  and  C_27
REMARK                            x       y       z     vdW  Elec       q    Type
REMARK                         _______ _______ _______ _____ _____    ______ ____
ROOT
ATOM      1  N   UNL     1      -4.180  -8.757  -0.427  0.00  0.00    -0.335 N 
ATOM      2  H   UNL     1      -4.879  -8.085  -0.438  0.00  0.00    +0.147 HD
ENDROOT
BRANCH   1   3
ATOM      3  C   UNL     1      -4.506 -10.102  -0.555  0.00  0.00    +0.028 A 
ATOM      4  C   UNL     1      -3.502 -11.066  -0.534  0.00  0.00    +0.023 A 
ATOM      5  C   UNL     1      -3.822 -12.399  -0.660  0.00  0.00    +0.015 A 
ATOM      6  C   UNL     1      -5.157 -12.784  -0.811  0.00  0.00    +0.037 A 
ATOM      7  C   UNL     1      -6.163 -11.814  -0.832  0.00  0.00    +0.015 A 
ATOM      8  C   UNL     1      -5.838 -10.484  -0.699  0.00  0.00    +0.023 A 
BRANCH   6   9
ATOM      9  C   UNL     1      -5.503 -14.211  -0.947  0.00  0.00    +0.244 C 
ATOM     10  O   UNL     1      -4.627 -15.054  -0.929  0.00  0.00    -0.270 OA
ATOM     11  N   UNL     1      -6.791 -14.582  -1.092  0.00  0.00    -0.309 N 
ATOM     12  H   UNL     1      -7.490 -13.909  -1.107  0.00  0.00    +0.149 HD
BRANCH  11  13
ATOM     13  C   UNL     1      -7.135 -15.999  -1.228  0.00  0.00    +0.136 C 
BRANCH  13  14
ATOM     14  C   UNL     1      -8.651 -16.144  -1.377  0.00  0.00    +0.135 C 
ATOM     15  C   UNL     1      -9.040 -17.640  -1.487  0.00  0.00    +0.035 C 
ATOM     16  C   UNL     1     -10.508 -17.601  -0.984  0.00  0.00    +0.031 C 
ATOM     17  C   UNL     1     -10.459 -16.486   0.084  0.00  0.00    +0.160 C 
ATOM     18  O   UNL     1      -9.316 -15.667  -0.197  0.00  0.00    -0.375 OA
ENDBRANCH  13  14
ENDBRANCH  11  13
ENDBRANCH   6   9
ENDBRANCH   1   3
BRANCH   1  19
ATOM     19  C   UNL     1      -2.780  -8.354  -0.276  0.00  0.00    +0.198 C 
BRANCH  19  21
ATOM     20  N   UNL     1      -1.501  -6.254  -0.009  0.00  0.00    -0.284 N 
ATOM     21  C   UNL     1      -2.698  -6.854  -0.157  0.00  0.00    +0.234 C 
ATOM     22  O   UNL     1      -3.711  -6.187  -0.196  0.00  0.00    -0.274 OA
ATOM     23  H   UNL     1      -0.698  -6.790   0.088  0.00  0.00    +0.155 HD
BRANCH  20  27
ATOM     24  C   UNL     1      -1.247  -2.092   0.035  0.00  0.00    +0.036 A 
ATOM     25  C   UNL     1      -0.230  -2.844  -0.540  0.00  0.00    +0.025 A 
ATOM     26  C   UNL     1      -0.314  -4.221  -0.554  0.00  0.00    +0.025 A 
ATOM     27  C   UNL     1      -1.415  -4.856   0.006  0.00  0.00    +0.034 A 
ATOM     28  C   UNL     1      -2.432  -4.104   0.581  0.00  0.00    +0.025 A 
ATOM     29  C   UNL     1      -2.345  -2.726   0.600  0.00  0.00    +0.025 A 
BRANCH  24  33
ATOM     30  C   UNL     1      -1.217   1.502  -1.088  0.00  0.00    +0.109 C 
ATOM     31  C   UNL     1      -1.194  -0.005  -1.109  0.00  0.00    +0.216 C 
ATOM     32  O   UNL     1      -1.205  -0.597  -2.167  0.00  0.00    -0.276 OA
ATOM     33  N   UNL     1      -1.161  -0.694   0.049  0.00  0.00    -0.275 N 
ATOM     34  C   UNL     1      -1.037   0.019   1.323  0.00  0.00    +0.138 C 
ENDBRANCH  24  33
ENDBRANCH  20  27
ENDBRANCH  19  21
ENDBRANCH   1  19
TORSDOF 8
