REMARK  Name = ZINC32635243
REMARK  7 active torsions:
REMARK  status: ('A' for Active; 'I' for Inactive)
REMARK    1  A    between atoms: C_1  and  C_2
REMARK    2  A    between atoms: C_6  and  C_30
REMARK    3  A    between atoms: C_7  and  N_8
REMARK    4  A    between atoms: N_20  and  C_21
REMARK    5  A    between atoms: C_21  and  C_23
REMARK    6  A    between atoms: C_23  and  C_24
REMARK    7  A    between atoms: C_24  and  C_25
REMARK                            x       y       z     vdW  Elec       q    Type
REMARK                         _______ _______ _______ _____ _____    ______ ____
ROOT
ATOM      1  N   UNL     1       3.661   0.451   0.518  0.00  0.00    -0.275 N 
ATOM      2  C   UNL     1       2.264   0.827   0.617  0.00  0.00    +0.116 C 
ATOM      3  C   UNL     1       1.806   2.166  -0.004  0.00  0.00    +0.190 C 
ATOM      4  S   UNL     1      -0.023   1.851   0.012  0.00  0.00    -0.028 S 
ATOM      5  O   UNL     1      -0.585   2.314  -1.208  0.00  0.00    -0.174 OA
ATOM      6  O   UNL     1      -0.561   2.301   1.248  0.00  0.00    -0.174 OA
ATOM      7  C   UNL     1       0.002  -0.004   0.002  0.00  0.00    +0.182 C 
ATOM      8  C   UNL     1       1.467  -0.246  -0.219  0.00  0.00    +0.097 C 
ATOM      9  S   UNL     1       2.300  -1.691   0.484  0.00  0.00    -0.086 S 
ATOM     10  C   UNL     1       3.916  -0.911   0.643  0.00  0.00    +0.154 C 
ATOM     11  N   UNL     1       5.089  -1.504   0.837  0.00  0.00    -0.159 NA
ENDROOT
BRANCH   1  18
ATOM     12  C   UNL     1       4.396   1.070  -2.160  0.00  0.00    +0.046 C 
ATOM     13  C   UNL     1       5.068   1.721  -0.978  0.00  0.00    -0.028 A 
ATOM     14  C   UNL     1       6.069   2.652  -1.178  0.00  0.00    +0.020 A 
ATOM     15  C   UNL     1       6.690   3.245  -0.094  0.00  0.00    +0.018 A 
ATOM     16  C   UNL     1       6.307   2.913   1.194  0.00  0.00    +0.020 A 
ATOM     17  C   UNL     1       5.303   1.987   1.399  0.00  0.00    -0.028 A 
ATOM     18  C   UNL     1       4.678   1.389   0.313  0.00  0.00    +0.042 A 
ATOM     19  C   UNL     1       4.887   1.625   2.802  0.00  0.00    +0.046 C 
ATOM     20 BR   UNL     1       8.065   4.513  -0.372  0.00  0.00    -0.050 Br
ENDBRANCH   1  18
BRANCH  11  21
ATOM     21  C   UNL     1       5.156  -2.829   0.935  0.00  0.00    +0.238 C 
ATOM     22  O   UNL     1       4.145  -3.497   0.847  0.00  0.00    -0.274 OA
BRANCH  21  23
ATOM     23  C   UNL     1       6.487  -3.502   1.155  0.00  0.00    +0.098 C 
BRANCH  23  24
ATOM     24  C   UNL     1       6.286  -5.016   1.230  0.00  0.00    +0.013 C 
BRANCH  24  25
ATOM     25  C   UNL     1       7.637  -5.699   1.453  0.00  0.00    -0.011 C 
ATOM     26  C   UNL     1       8.532  -5.520   0.209  0.00  0.00    +0.003 C 
ATOM     27  C   UNL     1       9.293  -6.865   0.093  0.00  0.00    +0.000 C 
ATOM     28  C   UNL     1       8.218  -7.903   0.500  0.00  0.00    +0.000 C 
ATOM     29  C   UNL     1       7.438  -7.214   1.638  0.00  0.00    +0.003 C 
ENDBRANCH  24  25
ENDBRANCH  23  24
ENDBRANCH  21  23
ENDBRANCH  11  21
TORSDOF 5
