REMARK  Name = ZINC01501448
REMARK  14 active torsions:
REMARK  status: ('A' for Active; 'I' for Inactive)
REMARK    1  A    between atoms: C_1  and  C_2
REMARK    2  A    between atoms: C_2  and  C_3
REMARK    3  A    between atoms: C_2  and  C_4
REMARK    4  A    between atoms: C_2  and  C_5
REMARK    5  A    between atoms: C_8  and  S_11
REMARK    6  A    between atoms: S_11  and  N_14
REMARK    7  A    between atoms: N_14  and  C_15
REMARK    8  A    between atoms: C_18  and  S_21
REMARK    9  A    between atoms: S_21  and  C_22
REMARK   10  A    between atoms: C_22  and  C_23
REMARK   11  A    between atoms: C_25  and  O_31
REMARK   12  A    between atoms: C_27  and  O_29
REMARK   13  A    between atoms: O_29  and  C_30
REMARK   14  A    between atoms: O_31  and  C_32
REMARK                            x       y       z     vdW  Elec       q    Type
REMARK                         _______ _______ _______ _____ _____    ______ ____
ROOT
ATOM      1  C   UNL     1       1.135   2.399  -0.174  0.00  0.00    +0.048 A 
ATOM      2  C   UNL     1       2.312   2.006   0.450  0.00  0.00    +0.025 A 
ATOM      3  C   UNL     1       3.467   2.741   0.270  0.00  0.00    +0.016 A 
ATOM      4  C   UNL     1       3.450   3.879  -0.527  0.00  0.00    +0.008 A 
ATOM      5  C   UNL     1       2.271   4.274  -1.147  0.00  0.00    +0.016 A 
ATOM      6  C   UNL     1       1.117   3.537  -0.970  0.00  0.00    +0.025 A 
ENDROOT
BRANCH   1   7
ATOM      7  N   UNL     1      -0.035   1.651   0.005  0.00  0.00    -0.216 N 
ATOM      8  H   UNL     1      -0.874   2.101   0.192  0.00  0.00    +0.174 HD
BRANCH   7   9
ATOM      9  S   UNL     1       0.013  -0.000  -0.109  0.00  0.00    +0.072 S 
ATOM     10  O   UNL     1       1.067  -0.436   0.738  0.00  0.00    -0.150 OA
ATOM     11  O   UNL     1      -1.325  -0.456   0.043  0.00  0.00    -0.150 OA
BRANCH   9  15
ATOM     12  C   UNL     1       1.250  -1.014  -4.343  0.00  0.00    -0.042 A 
ATOM     13  C   UNL     1       2.200  -0.962  -3.340  0.00  0.00    +0.006 A 
ATOM     14  C   UNL     1       1.821  -0.653  -2.047  0.00  0.00    +0.029 A 
ATOM     15  C   UNL     1       0.494  -0.395  -1.758  0.00  0.00    +0.109 A 
ATOM     16  C   UNL     1      -0.455  -0.452  -2.760  0.00  0.00    +0.029 A 
ATOM     17  C   UNL     1      -0.076  -0.757  -4.054  0.00  0.00    +0.006 A 
BRANCH  12  19
ATOM     18  C   UNL     1       2.304  -2.741  -5.779  0.00  0.00    +0.015 C 
ATOM     19  C   UNL     1       1.663  -1.352  -5.753  0.00  0.00    -0.013 C 
ATOM     20  C   UNL     1       0.431  -1.343  -6.661  0.00  0.00    +0.015 C 
ATOM     21  C   UNL     1       2.671  -0.315  -6.252  0.00  0.00    +0.015 C 
ENDBRANCH  12  19
ENDBRANCH   9  15
ENDBRANCH   7   9
ENDBRANCH   1   7
BRANCH   4  22
ATOM     22  S   UNL     1       4.922   4.821  -0.751  0.00  0.00    -0.117 S 
BRANCH  22  23
ATOM     23  C   UNL     1       6.164   3.933   0.229  0.00  0.00    +0.150 C 
BRANCH  23  24
ATOM     24  C   UNL     1       7.489   4.643   0.122  0.00  0.00    +0.147 A 
ATOM     25  N   UNL     1       8.322   4.302  -0.840  0.00  0.00    -0.197 NA
ATOM     26  C   UNL     1       9.499   4.908  -0.970  0.00  0.00    +0.221 A 
ATOM     27  C   UNL     1       9.847   5.906  -0.067  0.00  0.00    +0.134 A 
ATOM     28  C   UNL     1       8.942   6.233   0.936  0.00  0.00    +0.221 A 
ATOM     29  N   UNL     1       7.783   5.584   0.996  0.00  0.00    -0.197 NA
BRANCH  28  30
ATOM     30  O   UNL     1       9.236   7.200   1.839  0.00  0.00    -0.479 OA
ATOM     31  C   UNL     1       8.252   7.476   2.837  0.00  0.00    +0.279 C 
ENDBRANCH  28  30
BRANCH  26  32
ATOM     32  O   UNL     1      10.348   4.554  -1.965  0.00  0.00    -0.479 OA
ATOM     33  C   UNL     1       9.915   3.519  -2.850  0.00  0.00    +0.279 C 
ENDBRANCH  26  32
ENDBRANCH  23  24
ENDBRANCH  22  23
ENDBRANCH   4  22
TORSDOF 9
