REMARK  Name = ZINC08366119
REMARK  11 active torsions:
REMARK  status: ('A' for Active; 'I' for Inactive)
REMARK    1  A    between atoms: C_1  and  C_2
REMARK    2  A    between atoms: C_2  and  O_3
REMARK    3  A    between atoms: O_3  and  C_4
REMARK    4  A    between atoms: C_4  and  C_6
REMARK    5  A    between atoms: C_7  and  C_13
REMARK    6  A    between atoms: C_13  and  S_14
REMARK    7  A    between atoms: S_14  and  C_15
REMARK    8  A    between atoms: N_25  and  C_26
REMARK    9  A    between atoms: C_26  and  C_27
REMARK   10  A    between atoms: C_27  and  C_28
REMARK   11  A    between atoms: C_28  and  O_29
REMARK                            x       y       z     vdW  Elec       q    Type
REMARK                         _______ _______ _______ _____ _____    ______ ____
ROOT
ATOM      1  S   UNL     1      -1.294   2.349  -0.241  0.00  0.00    -0.082 S 
ENDROOT
BRANCH   1   2
ATOM      2  C   UNL     1       0.328   1.660  -0.237  0.00  0.00    +0.172 A 
ATOM      3  N   UNL     1       1.349   2.468  -0.090  0.00  0.00    -0.223 NA
ATOM      4  C   UNL     1       2.617   2.010  -0.083  0.00  0.00    +0.079 A 
ATOM      5  C   UNL     1       3.707   2.872   0.074  0.00  0.00    +0.028 A 
ATOM      6  C   UNL     1       4.976   2.365   0.075  0.00  0.00    +0.002 A 
ATOM      7  C   UNL     1       5.201   1.002  -0.079  0.00  0.00    +0.001 A 
ATOM      8  C   UNL     1       4.156   0.134  -0.234  0.00  0.00    +0.015 A 
ATOM      9  C   UNL     1       2.851   0.624  -0.239  0.00  0.00    +0.065 A 
ATOM     10  C   UNL     1       1.690  -0.261  -0.402  0.00  0.00    +0.262 A 
ATOM     11  O   UNL     1       1.826  -1.462  -0.541  0.00  0.00    -0.267 OA
ATOM     12  N   UNL     1       0.463   0.310  -0.394  0.00  0.00    -0.287 N 
BRANCH  12  13
ATOM     13  C   UNL     1      -0.730  -0.526  -0.553  0.00  0.00    +0.129 C 
BRANCH  13  14
ATOM     14  C   UNL     1      -1.075  -0.644  -2.039  0.00  0.00    +0.049 C 
BRANCH  14  15
ATOM     15  C   UNL     1      -2.320  -1.517  -2.205  0.00  0.00    +0.157 C 
BRANCH  15  16
ATOM     16  O   UNL     1      -2.643  -1.628  -3.593  0.00  0.00    -0.395 OA
ATOM     17  H   UNL     1      -3.424  -2.169  -3.774  0.00  0.00    +0.209 HD
ENDBRANCH  15  16
ENDBRANCH  14  15
ENDBRANCH  13  14
ENDBRANCH  12  13
ENDBRANCH   1   2
BRANCH   1  18
ATOM     18  C   UNL     1      -0.893   4.098  -0.007  0.00  0.00    +0.128 C 
BRANCH  18  20
ATOM     19  C   UNL     1      -2.628   5.373   1.202  0.00  0.00    +0.071 C 
ATOM     20  C   UNL     1      -2.165   4.906   0.022  0.00  0.00    +0.034 C 
ATOM     21  N   UNL     1      -2.828   5.158  -1.145  0.00  0.00    -0.272 N 
ATOM     22  C   UNL     1      -3.966   5.859  -1.216  0.00  0.00    +0.304 C 
ATOM     23  O   UNL     1      -4.487   6.027  -2.302  0.00  0.00    -0.253 OA
ATOM     24  N   UNL     1      -4.551   6.390  -0.124  0.00  0.00    -0.295 N 
ATOM     25  C   UNL     1      -3.911   6.180   1.186  0.00  0.00    +0.150 C 
ATOM     26  H   UNL     1      -2.455   4.805  -1.968  0.00  0.00    +0.156 HD
ATOM     27  H   UNL     1      -5.374   6.898  -0.199  0.00  0.00    +0.151 HD
BRANCH  19  28
ATOM     28  C   UNL     1      -1.940   5.117   2.410  0.00  0.00    +0.338 C 
ATOM     29  O   UNL     1      -2.326   4.237   3.156  0.00  0.00    -0.245 OA
BRANCH  28  30
ATOM     30  O   UNL     1      -0.855   5.850   2.737  0.00  0.00    -0.462 OA
BRANCH  30  32
ATOM     31  C   UNL     1       0.992   6.467   4.169  0.00  0.00    +0.048 C 
ATOM     32  C   UNL     1      -0.208   5.538   3.972  0.00  0.00    +0.229 C 
ENDBRANCH  30  32
ENDBRANCH  28  30
ENDBRANCH  19  28
ENDBRANCH  18  20
ENDBRANCH   1  18
TORSDOF 10
