REMARK  Name = ZINC51186845
REMARK  7 active torsions:
REMARK  status: ('A' for Active; 'I' for Inactive)
REMARK    1  A    between atoms: C_1  and  C_2
REMARK    2  A    between atoms: C_4  and  N_24
REMARK    3  A    between atoms: C_7  and  N_8
REMARK    4  A    between atoms: N_8  and  C_9
REMARK    5  A    between atoms: C_9  and  C_11
REMARK    6  A    between atoms: C_9  and  C_12
REMARK    7  A    between atoms: N_14  and  C_15
REMARK                            x       y       z     vdW  Elec       q    Type
REMARK                         _______ _______ _______ _____ _____    ______ ____
ROOT
ATOM      1  N   UNL     1      -0.410   0.051   2.537  0.00  0.00    -0.333 N 
ATOM      2  H   UNL     1      -0.537   1.008   2.627  0.00  0.00    +0.147 HD
ENDROOT
BRANCH   1   9
ATOM      3  C   UNL     1      -0.903   1.718   0.287  0.00  0.00    +0.046 C 
ATOM      4  C   UNL     1      -0.706   0.231   0.147  0.00  0.00    -0.028 A 
ATOM      5  C   UNL     1      -0.756  -0.358  -1.102  0.00  0.00    +0.028 A 
ATOM      6  C   UNL     1      -0.573  -1.728  -1.231  0.00  0.00    +0.030 A 
ATOM      7  C   UNL     1      -0.340  -2.507  -0.104  0.00  0.00    +0.025 A 
ATOM      8  C   UNL     1      -0.290  -1.918   1.143  0.00  0.00    +0.025 A 
ATOM      9  C   UNL     1      -0.467  -0.547   1.272  0.00  0.00    +0.031 A 
BRANCH   6  10
ATOM     10  N   UNL     1      -0.625  -2.325  -2.496  0.00  0.00    -0.328 N 
ATOM     11  C   UNL     1      -0.307  -3.747  -2.638  0.00  0.00    +0.116 C 
ATOM     12  C   UNL     1      -1.563  -4.510  -3.075  0.00  0.00    +0.088 C 
ATOM     13  S   UNL     1      -2.174  -3.783  -4.626  0.00  0.00    -0.158 S 
ATOM     14  C   UNL     1      -2.334  -2.018  -4.220  0.00  0.00    +0.088 C 
ATOM     15  C   UNL     1      -1.001  -1.522  -3.660  0.00  0.00    +0.116 C 
ENDBRANCH   6  10
ENDBRANCH   1   9
BRANCH   1  16
ATOM     16  C   UNL     1      -0.158  -0.769   3.724  0.00  0.00    +0.154 C 
ATOM     17  C   UNL     1      -1.478  -1.361   4.224  0.00  0.00    +0.038 C 
BRANCH  16  18
ATOM     18  C   UNL     1       0.451   0.085   4.805  0.00  0.00    +0.237 C 
ATOM     19  O   UNL     1       0.655   1.264   4.604  0.00  0.00    -0.273 OA
ATOM     20  N   UNL     1       0.770  -0.460   5.996  0.00  0.00    -0.284 N 
ATOM     21  H   UNL     1       0.669  -1.415   6.135  0.00  0.00    +0.155 HD
BRANCH  20  22
ATOM     22  C   UNL     1       1.246   0.352   7.033  0.00  0.00    +0.037 A 
ATOM     23  C   UNL     1       0.905   0.070   8.349  0.00  0.00    +0.027 A 
ATOM     24  C   UNL     1       1.375   0.870   9.373  0.00  0.00    +0.051 A 
ATOM     25  C   UNL     1       2.187   1.956   9.090  0.00  0.00    +0.166 A 
ATOM     26  C   UNL     1       2.531   2.242   7.771  0.00  0.00    +0.168 A 
ATOM     27  C   UNL     1       2.064   1.436   6.746  0.00  0.00    +0.072 A 
ATOM     28  O   UNL     1       3.329   3.349   7.759  0.00  0.00    -0.453 OA
ATOM     29  C   UNL     1       3.136   3.977   9.040  0.00  0.00    +0.466 C 
ATOM     30  O   UNL     1       2.770   2.885   9.904  0.00  0.00    -0.453 OA
ENDBRANCH  20  22
ENDBRANCH  16  18
ENDBRANCH   1  16
TORSDOF 5
