REMARK  Name = ZINC03200733
REMARK  10 active torsions:
REMARK  status: ('A' for Active; 'I' for Inactive)
REMARK    1  A    between atoms: C_1  and  C_2
REMARK    2  A    between atoms: C_3  and  C_25
REMARK    3  A    between atoms: C_4  and  C_19
REMARK    4  A    between atoms: C_9  and  C_17
REMARK    5  A    between atoms: C_9  and  C_18
REMARK    6  A    between atoms: C_11  and  N_12
REMARK    7  A    between atoms: N_12  and  N_13
REMARK    8  A    between atoms: C_14  and  C_16
REMARK    9  A    between atoms: N_27  and  N_28
REMARK   10  A    between atoms: C_29  and  C_31
REMARK                            x       y       z     vdW  Elec       q    Type
REMARK                         _______ _______ _______ _____ _____    ______ ____
ROOT
ATOM      1  C   UNL     1      -0.891   1.413  -0.243  0.00  0.00    +0.066 C 
ATOM      2  C   UNL     1      -0.645  -0.073  -0.184  0.00  0.00    +0.051 A 
ATOM      3  C   UNL     1      -0.662  -0.817  -1.364  0.00  0.00    +0.067 A 
ATOM      4  C   UNL     1      -0.429  -2.207  -1.293  0.00  0.00    +0.007 A 
ATOM      5  C   UNL     1      -0.192  -2.764  -0.026  0.00  0.00    +0.027 A 
ATOM      6  C   UNL     1      -0.194  -1.939   1.098  0.00  0.00    +0.052 A 
ATOM      7  N   UNL     1      -0.412  -0.644   0.980  0.00  0.00    -0.255 NA
ATOM      8  C   UNL     1       0.066  -2.548   2.453  0.00  0.00    +0.066 C 
ATOM      9  C   UNL     1      -0.537  -3.950   2.517  0.00  0.00    -0.009 C 
ATOM     10  C   UNL     1      -0.100  -4.772   1.336  0.00  0.00    +0.005 C 
ATOM     11  C   UNL     1       0.057  -4.212   0.135  0.00  0.00    +0.050 C 
ATOM     12  C   UNL     1      -0.079  -4.636   3.806  0.00  0.00    +0.015 C 
ATOM     13  C   UNL     1      -2.063  -3.842   2.520  0.00  0.00    +0.015 C 
ENDROOT
BRANCH   4  14
ATOM     14  C   UNL     1      -0.436  -3.048  -2.510  0.00  0.00    -0.016 A 
ATOM     15  C   UNL     1      -1.416  -4.027  -2.680  0.00  0.00    +0.008 A 
ATOM     16  C   UNL     1      -1.416  -4.807  -3.818  0.00  0.00    +0.001 A 
ATOM     17  C   UNL     1      -0.449  -4.621  -4.789  0.00  0.00    +0.000 A 
ATOM     18  C   UNL     1       0.525  -3.652  -4.626  0.00  0.00    +0.001 A 
ATOM     19  C   UNL     1       0.534  -2.861  -3.496  0.00  0.00    +0.008 A 
ENDBRANCH   4  14
BRANCH   3  20
ATOM     20  C   UNL     1      -0.919  -0.163  -2.662  0.00  0.00    +0.262 C 
ATOM     21  O   UNL     1       0.008   0.274  -3.317  0.00  0.00    -0.269 OA
ATOM     22  N   UNL     1      -2.181  -0.049  -3.122  0.00  0.00    -0.230 N 
ATOM     23  H   UNL     1      -2.920  -0.397  -2.599  0.00  0.00    +0.173 HD
BRANCH  22  24
ATOM     24  N   UNL     1      -2.424   0.572  -4.354  0.00  0.00    -0.234 N 
ATOM     25  C   UNL     1      -3.686   0.686  -4.813  0.00  0.00    +0.226 C 
ATOM     26  O   UNL     1      -4.611   0.251  -4.160  0.00  0.00    -0.275 OA
ATOM     27  C   UNL     1      -3.948   1.354  -6.138  0.00  0.00    +0.110 C 
ATOM     28  H   UNL     1      -1.685   0.920  -4.876  0.00  0.00    +0.173 HD
ENDBRANCH  22  24
ENDBRANCH   3  20
BRANCH  11  29
ATOM     29  N   UNL     1       0.454  -4.985  -0.957  0.00  0.00    -0.264 N 
ATOM     30  H   UNL     1       0.650  -4.560  -1.807  0.00  0.00    +0.170 HD
BRANCH  29  31
ATOM     31  N   UNL     1       0.569  -6.375  -0.827  0.00  0.00    -0.237 N 
ATOM     32  C   UNL     1       0.953  -7.122  -1.881  0.00  0.00    +0.226 C 
ATOM     33  O   UNL     1       1.198  -6.590  -2.943  0.00  0.00    -0.275 OA
ATOM     34  C   UNL     1       1.076  -8.617  -1.741  0.00  0.00    +0.110 C 
ATOM     35  H   UNL     1       0.373  -6.800   0.023  0.00  0.00    +0.173 HD
ENDBRANCH  29  31
ENDBRANCH  11  29
TORSDOF 5
