REMARK  Name = ZINC15080349
REMARK  11 active torsions:
REMARK  status: ('A' for Active; 'I' for Inactive)
REMARK    1  A    between atoms: C_1  and  N_68
REMARK    2  A    between atoms: C_2  and  C_3
REMARK    3  A    between atoms: C_2  and  N_68
REMARK    4  A    between atoms: C_6  and  C_8
REMARK    5  A    between atoms: C_15  and  C_16
REMARK    6  A    between atoms: C_15  and  N_68
REMARK    7  A    between atoms: C_21  and  C_22
REMARK    8  A    between atoms: C_21  and  N_70
REMARK    9  A    between atoms: C_22  and  C_23
REMARK   10  A    between atoms: C_26  and  O_29
REMARK   11  A    between atoms: O_29  and  C_30
REMARK                            x       y       z     vdW  Elec       q    Type
REMARK                         _______ _______ _______ _____ _____    ______ ____
ROOT
ATOM      1  C   UNL     1       2.164  -6.794  -2.201  0.00  0.00    -0.031 C 
ATOM      2  C   UNL     1       0.870  -6.205  -2.769  0.00  0.00    -0.017 C 
ATOM      3  C   UNL     1       0.989  -4.681  -2.824  0.00  0.00    -0.079 C 
ATOM      4  C   UNL     1       2.496  -4.673  -0.926  0.00  0.00    -0.079 C 
ATOM      5  C   UNL     1       2.421  -6.197  -0.814  0.00  0.00    -0.017 C 
ATOM      6  N   UNL     1       1.212  -4.167  -1.456  0.00  0.00    +0.380 N 
ATOM      7  H   UNL     1       0.450  -4.494  -0.849  0.00  0.00    -0.082 HD
ENDROOT
BRANCH   1   8
ATOM      8  C   UNL     1       2.028  -8.314  -2.086  0.00  0.00    -0.075 C 
BRANCH   8  10
ATOM      9  C   UNL     1       4.340  -8.708  -2.685  0.00  0.00    -0.096 C 
ATOM     10  N   UNL     1       3.317  -8.875  -1.632  0.00  0.00    +0.381 N 
ATOM     11  H   UNL     1       3.621  -8.373  -0.789  0.00  0.00    -0.082 HD
BRANCH  10  12
ATOM     12  C   UNL     1       3.157 -10.308  -1.306  0.00  0.00    -0.036 C 
BRANCH  12  13
ATOM     13  C   UNL     1       4.418 -10.799  -0.641  0.00  0.00    -0.026 A 
ATOM     14  C   UNL     1       4.742 -10.804   0.675  0.00  0.00    +0.009 A 
ATOM     15  C   UNL     1       5.969 -11.311   1.061  0.00  0.00    +0.014 A 
ATOM     16  C   UNL     1       6.811 -11.787   0.112  0.00  0.00    +0.019 A 
ATOM     17  S   UNL     1       5.867 -11.531  -1.382  0.00  0.00    -0.097 S 
BRANCH  16  18
ATOM     18  C   UNL     1       8.186 -12.383   0.275  0.00  0.00    +0.155 C 
ATOM     19  C   UNL     1       9.242 -11.294   0.068  0.00  0.00    +0.037 C 
ATOM     20  C   UNL     1      10.636 -11.919   0.176  0.00  0.00    +0.005 C 
ATOM     21  C   UNL     1      10.758 -13.050  -0.850  0.00  0.00    +0.028 C 
ATOM     22  C   UNL     1       9.643 -14.071  -0.607  0.00  0.00    +0.160 C 
ATOM     23  O   UNL     1       8.375 -13.418  -0.691  0.00  0.00    -0.371 OA
ENDBRANCH  16  18
ENDBRANCH  12  13
ENDBRANCH  10  12
ENDBRANCH   8  10
ENDBRANCH   1   8
BRANCH   6  24
ATOM     24  C   UNL     1       1.217  -2.690  -1.466  0.00  0.00    -0.074 C 
BRANCH  24  25
ATOM     25  C   UNL     1       1.226  -2.187  -0.021  0.00  0.00    +0.016 C 
BRANCH  25  26
ATOM     26  C   UNL     1       1.208  -0.680  -0.013  0.00  0.00    -0.049 A 
ATOM     27  C   UNL     1       0.002  -0.004   0.002  0.00  0.00    +0.007 A 
ATOM     28  C   UNL     1      -0.017   1.377   0.010  0.00  0.00    +0.046 A 
ATOM     29  C   UNL     1       1.176   2.086   0.002  0.00  0.00    +0.120 A 
ATOM     30  C   UNL     1       2.385   1.405  -0.013  0.00  0.00    +0.046 A 
ATOM     31  C   UNL     1       2.398   0.024  -0.021  0.00  0.00    +0.007 A 
BRANCH  29  32
ATOM     32  O   UNL     1       1.160   3.445   0.009  0.00  0.00    -0.495 OA
ATOM     33  C   UNL     1       2.426   4.108   0.001  0.00  0.00    +0.277 C 
ENDBRANCH  29  32
ENDBRANCH  25  26
ENDBRANCH  24  25
ENDBRANCH   6  24
TORSDOF 9
