REMARK  Name = ZINC44167952
REMARK  13 active torsions:
REMARK  status: ('A' for Active; 'I' for Inactive)
REMARK    1  A    between atoms: C_1  and  C_2
REMARK    2  A    between atoms: C_2  and  C_3
REMARK    3  A    between atoms: C_3  and  C_4
REMARK    4  A    between atoms: C_4  and  N_5
REMARK    5  A    between atoms: C_6  and  C_8
REMARK    6  A    between atoms: C_13  and  O_14
REMARK    7  A    between atoms: O_14  and  C_15
REMARK    8  A    between atoms: C_17  and  N_30
REMARK    9  A    between atoms: C_19  and  O_29
REMARK   10  A    between atoms: C_21  and  O_28
REMARK   11  A    between atoms: C_23  and  C_26
REMARK   12  A    between atoms: C_26  and  O_27
REMARK   13  A    between atoms: C_31  and  C_33
REMARK                            x       y       z     vdW  Elec       q    Type
REMARK                         _______ _______ _______ _____ _____    ______ ____
ROOT
ATOM      1  C   UNL     1       2.096  -7.954  -3.558  0.00  0.00    +0.331 C 
ATOM      2  C   UNL     1       1.589  -8.808  -2.393  0.00  0.00    +0.173 C 
ATOM      3  C   UNL     1       0.087  -8.571  -2.212  0.00  0.00    +0.172 C 
ATOM      4  C   UNL     1      -0.632  -8.895  -3.525  0.00  0.00    +0.176 C 
ATOM      5  C   UNL     1      -0.040  -8.038  -4.647  0.00  0.00    +0.179 C 
ATOM      6  O   UNL     1       1.365  -8.284  -4.742  0.00  0.00    -0.332 OA
ENDROOT
BRANCH   2   7
ATOM      7  N   UNL     1       1.832 -10.223  -2.681  0.00  0.00    -0.304 N 
ATOM      8  C   UNL     1       3.028 -10.774  -2.395  0.00  0.00    +0.210 C 
ATOM      9  O   UNL     1       3.904 -10.098  -1.899  0.00  0.00    -0.276 OA
ATOM     10  C   UNL     1       3.278 -12.230  -2.692  0.00  0.00    +0.109 C 
ATOM     11  H   UNL     1       1.131 -10.764  -3.078  0.00  0.00    +0.149 HD
ENDBRANCH   2   7
BRANCH   4  12
ATOM     12  O   UNL     1      -2.026  -8.610  -3.389  0.00  0.00    -0.387 OA
ATOM     13  H   UNL     1      -2.544  -8.793  -4.185  0.00  0.00    +0.210 HD
ENDBRANCH   4  12
BRANCH   3  14
ATOM     14  O   UNL     1      -0.143  -7.204  -1.863  0.00  0.00    -0.387 OA
ATOM     15  H   UNL     1      -1.075  -6.983  -1.733  0.00  0.00    +0.210 HD
ENDBRANCH   3  14
BRANCH   1  16
ATOM     16  O   UNL     1       1.908  -6.571  -3.253  0.00  0.00    -0.461 OA
BRANCH  16  22
ATOM     17  C   UNL     1       2.254  -4.298  -3.906  0.00  0.00    +0.078 A 
ATOM     18  C   UNL     1       2.771  -3.381  -4.825  0.00  0.00    +0.017 A 
ATOM     19  C   UNL     1       3.415  -3.832  -5.957  0.00  0.00    +0.001 A 
ATOM     20  C   UNL     1       3.554  -5.191  -6.188  0.00  0.00    +0.004 A 
ATOM     21  C   UNL     1       3.048  -6.107  -5.288  0.00  0.00    +0.046 A 
ATOM     22  C   UNL     1       2.401  -5.671  -4.141  0.00  0.00    +0.136 A 
BRANCH  17  24
ATOM     23  N   UNL     1       1.425  -2.500  -2.470  0.00  0.00    -0.311 N 
ATOM     24  C   UNL     1       1.564  -3.822  -2.692  0.00  0.00    +0.248 C 
ATOM     25  O   UNL     1       1.120  -4.622  -1.892  0.00  0.00    -0.270 OA
ATOM     26  H   UNL     1       1.779  -1.861  -3.109  0.00  0.00    +0.149 HD
BRANCH  23  27
ATOM     27  C   UNL     1       0.739  -2.027  -1.265  0.00  0.00    +0.104 C 
BRANCH  27  28
ATOM     28  C   UNL     1       0.718  -0.497  -1.257  0.00  0.00    +0.018 C 
BRANCH  28  30
ATOM     29  C   UNL     1      -0.019   1.526   0.010  0.00  0.00    +0.004 C 
ATOM     30  C   UNL     1       0.002  -0.004   0.002  0.00  0.00    -0.002 C 
ENDBRANCH  28  30
ENDBRANCH  27  28
ENDBRANCH  23  27
ENDBRANCH  17  24
ENDBRANCH  16  22
ENDBRANCH   1  16
BRANCH   5  31
ATOM     31  C   UNL     1      -0.712  -8.399  -5.973  0.00  0.00    +0.190 C 
BRANCH  31  32
ATOM     32  O   UNL     1      -0.244  -7.521  -6.998  0.00  0.00    -0.392 OA
ATOM     33  H   UNL     1      -0.629  -7.692  -7.869  0.00  0.00    +0.210 HD
ENDBRANCH  31  32
ENDBRANCH   5  31
TORSDOF 11
