REMARK  Name = ZINC08961860
REMARK  4 active torsions:
REMARK  status: ('A' for Active; 'I' for Inactive)
REMARK    1  A    between atoms: C_10  and  C_11
REMARK    2  A    between atoms: C_11  and  S_12
REMARK    3  A    between atoms: S_12  and  N_15
REMARK    4  A    between atoms: N_15  and  C_16
REMARK                            x       y       z     vdW  Elec       q    Type
REMARK                         _______ _______ _______ _____ _____    ______ ____
ROOT
ATOM      1  N   UNL     1       0.670  -0.413  -1.457  0.00  0.00    -0.220 N 
ATOM      2  H   UNL     1       0.106  -0.755  -2.167  0.00  0.00    +0.173 HD
ENDROOT
BRANCH   1   3
ATOM      3  C   UNL     1       2.028  -0.172  -1.697  0.00  0.00    +0.049 A 
ATOM      4  C   UNL     1       2.415   0.941  -2.436  0.00  0.00    +0.028 A 
ATOM      5  C   UNL     1       3.752   1.193  -2.673  0.00  0.00    +0.048 A 
ATOM      6  C   UNL     1       4.717   0.329  -2.184  0.00  0.00    +0.133 A 
ATOM      7  C   UNL     1       4.332  -0.800  -1.444  0.00  0.00    +0.080 A 
ATOM      8  C   UNL     1       2.982  -1.046  -1.202  0.00  0.00    +0.041 A 
ATOM      9  C   UNL     1       5.376  -1.714  -0.940  0.00  0.00    +0.248 C 
ATOM     10  O   UNL     1       5.273  -2.916  -1.094  0.00  0.00    -0.270 OA
ATOM     11  N   UNL     1       6.449  -1.190  -0.301  0.00  0.00    -0.308 N 
ATOM     12  C   UNL     1       6.498   0.249  -0.032  0.00  0.00    +0.145 C 
ATOM     13  C   UNL     1       6.809   1.026  -1.305  0.00  0.00    +0.247 C 
ATOM     14  O   UNL     1       6.037   0.559  -2.405  0.00  0.00    -0.490 OA
ATOM     15  H   UNL     1       7.180  -1.763  -0.024  0.00  0.00    +0.149 HD
ENDBRANCH   1   3
BRANCH   1  16
ATOM     16  S   UNL     1       0.028  -0.112   0.039  0.00  0.00    +0.047 S 
ATOM     17  O   UNL     1       0.870  -0.814   0.943  0.00  0.00    -0.155 OA
ATOM     18  O   UNL     1      -1.347  -0.451  -0.082  0.00  0.00    -0.155 OA
BRANCH  16  19
ATOM     19  C   UNL     1       0.212   1.677   0.275  0.00  0.00    +0.224 C 
BRANCH  19  29
ATOM     20  C   UNL     1      -4.428   3.186   1.823  0.00  0.00    +0.001 A 
ATOM     21  C   UNL     1      -3.874   2.820   0.598  0.00  0.00    +0.001 A 
ATOM     22  C   UNL     1      -2.567   2.456   0.500  0.00  0.00    +0.009 A 
ATOM     23  C   UNL     1      -1.758   2.452   1.650  0.00  0.00    -0.013 A 
ATOM     24  C   UNL     1      -2.323   2.820   2.897  0.00  0.00    -0.018 A 
ATOM     25  C   UNL     1      -3.677   3.190   2.958  0.00  0.00    +0.008 A 
ATOM     26  C   UNL     1      -1.516   2.812   4.048  0.00  0.00    +0.008 A 
ATOM     27  C   UNL     1      -0.208   2.448   3.950  0.00  0.00    +0.001 A 
ATOM     28  C   UNL     1       0.345   2.081   2.725  0.00  0.00    +0.006 A 
ATOM     29  C   UNL     1      -0.406   2.077   1.590  0.00  0.00    -0.017 A 
ENDBRANCH  19  29
ENDBRANCH  16  19
ENDBRANCH   1  16
TORSDOF 4
