REMARK  Name = ZINC64623246
REMARK  9 active torsions:
REMARK  status: ('A' for Active; 'I' for Inactive)
REMARK    1  A    between atoms: C_1  and  C_2
REMARK    2  A    between atoms: C_2  and  O_3
REMARK    3  A    between atoms: O_3  and  C_4
REMARK    4  A    between atoms: C_4  and  C_6
REMARK    5  A    between atoms: C_9  and  N_12
REMARK    6  A    between atoms: C_21  and  O_37
REMARK    7  A    between atoms: C_28  and  C_30
REMARK    8  A    between atoms: C_33  and  C_36
REMARK    9  A    between atoms: O_37  and  C_38
REMARK                            x       y       z     vdW  Elec       q    Type
REMARK                         _______ _______ _______ _____ _____    ______ ____
ROOT
ATOM      1  N   UNL     1       5.190  -4.373   5.203  0.00  0.00    -0.269 N 
ATOM      2  C   UNL     1       4.622  -5.535   5.583  0.00  0.00    +0.307 C 
ATOM      3  O   UNL     1       4.042  -6.224   4.766  0.00  0.00    -0.252 OA
ATOM      4  N   UNL     1       4.698  -5.933   6.869  0.00  0.00    -0.276 N 
ATOM      5  C   UNL     1       5.292  -5.042   7.870  0.00  0.00    +0.114 C 
ATOM      6  C   UNL     1       4.268  -4.772   8.988  0.00  0.00    +0.052 C 
ATOM      7  C   UNL     1       3.660  -6.105   9.348  0.00  0.00    -0.035 C 
ATOM      8  C   UNL     1       3.513  -6.716  10.517  0.00  0.00    +0.003 A 
ATOM      9  C   UNL     1       3.787  -6.279  11.895  0.00  0.00    +0.055 A 
ATOM     10  C   UNL     1       3.535  -7.182  12.883  0.00  0.00    +0.121 A 
ATOM     11  C   UNL     1       3.042  -8.475  12.656  0.00  0.00    +0.047 A 
ATOM     12  C   UNL     1       2.748  -8.977  11.429  0.00  0.00    +0.029 A 
ATOM     13  C   UNL     1       2.970  -8.089  10.279  0.00  0.00    +0.043 A 
ATOM     14  N   UNL     1       2.761  -8.283   9.012  0.00  0.00    -0.375 N 
ATOM     15  C   UNL     1       3.083  -7.048   8.298  0.00  0.00    +0.131 C 
ATOM     16  C   UNL     1       4.178  -7.255   7.253  0.00  0.00    +0.134 C 
ATOM     17  H   UNL     1       5.702  -3.852   5.841  0.00  0.00    +0.156 HD
ATOM     18  H   UNL     1       2.446  -9.107   8.609  0.00  0.00    +0.160 HD
ENDROOT
BRANCH  16  19
ATOM     19  C   UNL     1       3.602  -7.948   6.045  0.00  0.00    -0.025 A 
ATOM     20  C   UNL     1       2.390  -7.535   5.524  0.00  0.00    +0.006 A 
ATOM     21  C   UNL     1       1.861  -8.170   4.415  0.00  0.00    +0.004 A 
ATOM     22  C   UNL     1       2.545  -9.218   3.828  0.00  0.00    -0.050 A 
ATOM     23  C   UNL     1       3.757  -9.631   4.349  0.00  0.00    +0.004 A 
ATOM     24  C   UNL     1       4.288  -8.993   5.455  0.00  0.00    +0.006 A 
ATOM     25  C   UNL     1       1.968  -9.912   2.621  0.00  0.00    +0.044 C 
ENDBRANCH  16  19
BRANCH   1  29
ATOM     26  C   UNL     1       4.751  -3.023   1.287  0.00  0.00    +0.059 A 
ATOM     27  C   UNL     1       4.729  -2.114   2.349  0.00  0.00    +0.017 A 
ATOM     28  C   UNL     1       4.875  -2.563   3.641  0.00  0.00    +0.024 A 
ATOM     29  C   UNL     1       5.043  -3.922   3.893  0.00  0.00    +0.035 A 
ATOM     30  C   UNL     1       5.066  -4.830   2.838  0.00  0.00    +0.024 A 
ATOM     31  C   UNL     1       4.916  -4.388   1.544  0.00  0.00    +0.017 A 
BRANCH  26  32
ATOM     32  C   UNL     1       4.595  -2.546  -0.099  0.00  0.00    +0.339 C 
ATOM     33  O   UNL     1       4.609  -3.338  -1.020  0.00  0.00    -0.245 OA
BRANCH  32  34
ATOM     34  O   UNL     1       4.437  -1.230  -0.344  0.00  0.00    -0.461 OA
BRANCH  34  36
ATOM     35  C   UNL     1       4.124   0.681  -1.790  0.00  0.00    +0.048 C 
ATOM     36  C   UNL     1       4.291  -0.838  -1.711  0.00  0.00    +0.229 C 
ENDBRANCH  34  36
ENDBRANCH  32  34
ENDBRANCH  26  32
ENDBRANCH   1  29
BRANCH  10  37
ATOM     37  O   UNL     1       3.778  -6.808  14.166  0.00  0.00    -0.495 OA
ATOM     38  C   UNL     1       3.507  -7.772  15.186  0.00  0.00    +0.277 C 
ENDBRANCH  10  37
TORSDOF 6
