REMARK  Name = ZINC46877790
REMARK  7 active torsions:
REMARK  status: ('A' for Active; 'I' for Inactive)
REMARK    1  A    between atoms: C_3  and  O_11
REMARK    2  A    between atoms: C_6  and  N_7
REMARK    3  A    between atoms: O_11  and  C_12
REMARK    4  A    between atoms: C_12  and  C_13
REMARK    5  A    between atoms: N_15  and  C_16
REMARK    6  A    between atoms: C_18  and  C_25
REMARK    7  A    between atoms: C_20  and  C_22
REMARK                            x       y       z     vdW  Elec       q    Type
REMARK                         _______ _______ _______ _____ _____    ______ ____
ROOT
ATOM      1  C   UNL     1       4.838   4.129  -0.021  0.00  0.00    +0.255 C 
ATOM      2  O   UNL     1       5.810   3.403  -0.026  0.00  0.00    -0.272 OA
ATOM      3  N   UNL     1       4.997   5.467  -0.018  0.00  0.00    -0.283 N 
ATOM      4  H   UNL     1       4.222   6.047  -0.082  0.00  0.00    +0.155 HD
ENDROOT
BRANCH   3   5
ATOM      5  C   UNL     1       6.279   6.020   0.078  0.00  0.00    +0.035 A 
ATOM      6  C   UNL     1       7.353   5.388  -0.532  0.00  0.00    +0.036 A 
ATOM      7  C   UNL     1       8.633   5.936  -0.439  0.00  0.00    +0.039 A 
ATOM      8  C   UNL     1       8.832   7.120   0.269  0.00  0.00    +0.026 A 
ATOM      9  C   UNL     1       7.752   7.752   0.881  0.00  0.00    +0.039 A 
ATOM     10  C   UNL     1       6.473   7.201   0.778  0.00  0.00    +0.036 A 
BRANCH   9  11
ATOM     11  C   UNL     1       7.958   9.008   1.633  0.00  0.00    +0.242 C 
ATOM     12  O   UNL     1       7.016   9.559   2.166  0.00  0.00    -0.270 OA
ATOM     13  N   UNL     1       9.192   9.542   1.727  0.00  0.00    -0.325 N 
ATOM     14  H   UNL     1       9.945   9.102   1.302  0.00  0.00    +0.145 HD
ATOM     15  H   UNL     1       9.328  10.366   2.221  0.00  0.00    +0.145 HD
ENDBRANCH   9  11
BRANCH   7  16
ATOM     16  C   UNL     1       9.777   5.261  -1.089  0.00  0.00    +0.242 C 
ATOM     17  O   UNL     1       9.602   4.228  -1.706  0.00  0.00    -0.270 OA
ATOM     18  N   UNL     1      11.012   5.791  -0.998  0.00  0.00    -0.325 N 
ATOM     19  H   UNL     1      11.152   6.615  -0.506  0.00  0.00    +0.145 HD
ATOM     20  H   UNL     1      11.763   5.348  -1.425  0.00  0.00    +0.145 HD
ENDBRANCH   7  16
ENDBRANCH   3   5
BRANCH   1  21
ATOM     21  C   UNL     1       3.454   3.534  -0.020  0.00  0.00    +0.325 C 
BRANCH  21  22
ATOM     22  O   UNL     1       3.548   2.108  -0.024  0.00  0.00    -0.480 OA
BRANCH  22  25
ATOM     23  C   UNL     1      -0.017   1.379  -0.017  0.00  0.00    +0.036 A 
ATOM     24  C   UNL     1       1.169   2.088  -0.018  0.00  0.00    +0.051 A 
ATOM     25  C   UNL     1       2.380   1.412  -0.023  0.00  0.00    +0.156 A 
ATOM     26  C   UNL     1       2.397   0.023  -0.027  0.00  0.00    +0.167 A 
ATOM     27  C   UNL     1       1.207  -0.681  -0.027  0.00  0.00    +0.074 A 
ATOM     28  C   UNL     1       0.001  -0.003  -0.022  0.00  0.00    +0.129 A 
ATOM     29  F   UNL     1       3.575  -0.639  -0.032  0.00  0.00    -0.202 F 
BRANCH  28  30
ATOM     30  N   UNL     1      -1.271  -0.759  -0.021  0.00  0.00    +0.057 N 
ATOM     31  O   UNL     1      -2.326  -0.168  -0.017  0.00  0.00    -0.126 OA
ATOM     32  O   UNL     1      -1.256  -1.968  -0.025  0.00  0.00    -0.126 OA
ENDBRANCH  28  30
ENDBRANCH  22  25
ENDBRANCH  21  22
ENDBRANCH   1  21
TORSDOF 7
