REMARK  Name = ZINC36848372
REMARK  6 active torsions:
REMARK  status: ('A' for Active; 'I' for Inactive)
REMARK    1  A    between atoms: C_1  and  C_2
REMARK    2  A    between atoms: C_2  and  C_21
REMARK    3  A    between atoms: N_5  and  C_9
REMARK    4  A    between atoms: C_9  and  C_10
REMARK    5  A    between atoms: N_12  and  C_13
REMARK    6  A    between atoms: C_24  and  C_27
REMARK                            x       y       z     vdW  Elec       q    Type
REMARK                         _______ _______ _______ _____ _____    ______ ____
ROOT
ATOM      1  C   UNL     1      -0.014   1.516   0.033  0.00  0.00    +0.047 C 
ATOM      2  C   UNL     1       0.012  -0.014   0.029  0.00  0.00    +0.135 C 
ATOM      3  C   UNL     1       0.819  -0.531  -1.145  0.00  0.00    +0.251 C 
ATOM      4  O   UNL     1       0.591  -0.357  -2.323  0.00  0.00    -0.272 OA
ATOM      5  N   UNL     1       1.843  -1.223  -0.607  0.00  0.00    -0.215 N 
ATOM      6  C   UNL     1       1.795  -1.216   0.730  0.00  0.00    +0.310 C 
ATOM      7  O   UNL     1       2.611  -1.772   1.438  0.00  0.00    -0.252 OA
ATOM      8  N   UNL     1       0.744  -0.523   1.203  0.00  0.00    -0.281 N 
ATOM      9  H   UNL     1       0.512  -0.385   2.135  0.00  0.00    +0.152 HD
ENDROOT
BRANCH   2  10
ATOM     10  C   UNL     1      -1.390  -0.567  -0.002  0.00  0.00    -0.015 A 
ATOM     11  C   UNL     1      -1.997  -0.835  -1.216  0.00  0.00    +0.007 A 
ATOM     12  C   UNL     1      -3.280  -1.341  -1.252  0.00  0.00    +0.019 A 
ATOM     13  C   UNL     1      -3.965  -1.582  -0.060  0.00  0.00    +0.052 A 
ATOM     14  C   UNL     1      -3.346  -1.310   1.162  0.00  0.00    +0.019 A 
ATOM     15  C   UNL     1      -2.061  -0.809   1.183  0.00  0.00    +0.007 A 
BRANCH  13  16
ATOM     16  C   UNL     1      -5.298  -2.107  -0.090  0.00  0.00    +0.099 C 
ATOM     17  N   UNL     1      -6.354  -2.523  -0.113  0.00  0.00    -0.191 NA
ENDBRANCH  13  16
ENDBRANCH   2  10
BRANCH   5  18
ATOM     18  C   UNL     1       2.879  -1.901  -1.390  0.00  0.00    +0.214 C 
BRANCH  18  19
ATOM     19  C   UNL     1       4.023  -0.952  -1.638  0.00  0.00    +0.235 C 
ATOM     20  O   UNL     1       3.977   0.180  -1.204  0.00  0.00    -0.274 OA
ATOM     21  N   UNL     1       5.097  -1.360  -2.343  0.00  0.00    -0.283 N 
ATOM     22  H   UNL     1       5.163  -2.282  -2.634  0.00  0.00    +0.155 HD
BRANCH  21  23
ATOM     23  C   UNL     1       6.116  -0.452  -2.654  0.00  0.00    +0.053 A 
ATOM     24  C   UNL     1       6.450   0.554  -1.756  0.00  0.00    +0.025 A 
ATOM     25  C   UNL     1       7.456   1.448  -2.065  0.00  0.00    +0.003 A 
ATOM     26  C   UNL     1       8.132   1.343  -3.267  0.00  0.00    +0.021 A 
ATOM     27  C   UNL     1       7.803   0.343  -4.164  0.00  0.00    +0.061 A 
ATOM     28  C   UNL     1       6.800  -0.559  -3.858  0.00  0.00    +0.080 A 
ATOM     29 CL   UNL     1       6.392  -1.819  -4.981  0.00  0.00    -0.080 Cl
ATOM     30 CL   UNL     1       8.654   0.216  -5.672  0.00  0.00    -0.082 Cl
ENDBRANCH  21  23
ENDBRANCH  18  19
ENDBRANCH   5  18
TORSDOF 5
