REMARK  Name = ZINC65760707
REMARK  8 active torsions:
REMARK  status: ('A' for Active; 'I' for Inactive)
REMARK    1  A    between atoms: C_1  and  C_2
REMARK    2  A    between atoms: C_3  and  C_13
REMARK    3  A    between atoms: N_15  and  C_16
REMARK    4  A    between atoms: C_16  and  C_17
REMARK    5  A    between atoms: C_16  and  C_18
REMARK    6  A    between atoms: C_18  and  N_19
REMARK    7  A    between atoms: C_21  and  C_26
REMARK    8  A    between atoms: C_23  and  C_25
REMARK                            x       y       z     vdW  Elec       q    Type
REMARK                         _______ _______ _______ _____ _____    ______ ____
ROOT
ATOM      1  C   UNL     1      -2.172  -0.084   0.438  0.00  0.00    +0.248 C 
ATOM      2  O   UNL     1      -2.600   0.077  -0.690  0.00  0.00    -0.270 OA
ATOM      3  N   UNL     1      -3.009  -0.010   1.492  0.00  0.00    -0.310 N 
ATOM      4  H   UNL     1      -2.668  -0.139   2.391  0.00  0.00    +0.149 HD
ENDROOT
BRANCH   1   7
ATOM      5  C   UNL     1       0.064   2.047   0.888  0.00  0.00    +0.087 C 
ATOM      6  C   UNL     1       0.251   0.552   0.849  0.00  0.00    +0.117 A 
ATOM      7  C   UNL     1      -0.742  -0.358   0.650  0.00  0.00    +0.092 A 
ATOM      8  C   UNL     1      -0.085  -1.675   0.694  0.00  0.00    +0.116 A 
ATOM      9  C   UNL     1      -0.518  -3.012   0.564  0.00  0.00    +0.263 A 
ATOM     10  O   UNL     1      -1.692  -3.274   0.367  0.00  0.00    -0.267 OA
ATOM     11  N   UNL     1       0.407  -3.994   0.665  0.00  0.00    -0.313 N 
ATOM     12  H   UNL     1       0.140  -4.922   0.581  0.00  0.00    +0.170 HD
ATOM     13  C   UNL     1       1.708  -3.680   0.885  0.00  0.00    +0.203 A 
ATOM     14  N   UNL     1       2.119  -2.450   1.006  0.00  0.00    -0.202 NA
ATOM     15  C   UNL     1       1.268  -1.416   0.919  0.00  0.00    +0.235 A 
ATOM     16  O   UNL     1       1.420  -0.084   0.998  0.00  0.00    -0.441 OA
ENDBRANCH   1   7
BRANCH   3  17
ATOM     17  C   UNL     1      -4.432   0.263   1.280  0.00  0.00    +0.054 C 
ATOM     18  C   UNL     1      -4.656   1.775   1.207  0.00  0.00    +0.026 C 
BRANCH  17  19
ATOM     19  C   UNL     1      -5.241  -0.316   2.443  0.00  0.00    -0.057 C 
BRANCH  19  20
ATOM     20  N   UNL     1      -4.968  -1.755   2.560  0.00  0.00    +0.381 N 
ATOM     21  C   UNL     1      -5.624  -2.279   3.764  0.00  0.00    -0.076 C 
ATOM     22  C   UNL     1      -5.277  -3.760   3.935  0.00  0.00    -0.031 C 
ATOM     23  C   UNL     1      -5.762  -4.537   2.708  0.00  0.00    +0.003 C 
ATOM     24  C   UNL     1      -5.129  -3.934   1.451  0.00  0.00    -0.031 C 
ATOM     25  C   UNL     1      -5.482  -2.447   1.372  0.00  0.00    -0.076 C 
ATOM     26  C   UNL     1      -5.668  -4.654   0.213  0.00  0.00    +0.005 C 
ATOM     27  C   UNL     1      -5.963  -4.304   5.190  0.00  0.00    +0.005 C 
ATOM     28  H   UNL     1      -3.973  -1.903   2.630  0.00  0.00    -0.082 HD
ENDBRANCH  19  20
ENDBRANCH  17  19
ENDBRANCH   3  17
TORSDOF 4
