REMARK  Name = ZINC39849948
REMARK  9 active torsions:
REMARK  status: ('A' for Active; 'I' for Inactive)
REMARK    1  A    between atoms: C_1  and  O_2
REMARK    2  A    between atoms: O_2  and  C_3
REMARK    3  A    between atoms: C_6  and  N_9
REMARK    4  A    between atoms: N_17  and  C_20
REMARK    5  A    between atoms: C_20  and  C_21
REMARK    6  A    between atoms: N_23  and  C_24
REMARK    7  A    between atoms: C_27  and  C_30
REMARK    8  A    between atoms: C_30  and  O_32
REMARK    9  A    between atoms: O_32  and  C_33
REMARK                            x       y       z     vdW  Elec       q    Type
REMARK                         _______ _______ _______ _____ _____    ______ ____
ROOT
ATOM      1  N   UNL     1       2.540  -2.466   4.210  0.00  0.00    -0.228 N 
ATOM      2  C   UNL     1       2.492  -3.808   4.295  0.00  0.00    +0.270 A 
ATOM      3  O   UNL     1       1.908  -4.458   3.448  0.00  0.00    -0.266 OA
ATOM      4  C   UNL     1       3.158  -4.484   5.429  0.00  0.00    +0.074 A 
ATOM      5  C   UNL     1       3.233  -5.915   5.721  0.00  0.00    -0.023 A 
ATOM      6  C   UNL     1       3.916  -6.230   6.840  0.00  0.00    -0.004 A 
ATOM      7  S   UNL     1       4.449  -4.675   7.493  0.00  0.00    -0.075 S 
ATOM      8  C   UNL     1       3.799  -3.650   6.343  0.00  0.00    +0.097 A 
ATOM      9  N   UNL     1       3.799  -2.288   6.181  0.00  0.00    -0.278 N 
ATOM     10  C   UNL     1       3.182  -1.723   5.127  0.00  0.00    +0.338 A 
ATOM     11  O   UNL     1       3.201  -0.513   5.004  0.00  0.00    -0.246 OA
ATOM     12  C   UNL     1       4.158  -7.601   7.392  0.00  0.00    +0.043 C 
ATOM     13  C   UNL     1       3.192  -8.575   6.701  0.00  0.00    +0.005 C 
ATOM     14  C   UNL     1       3.246  -8.337   5.189  0.00  0.00    +0.005 C 
ATOM     15  C   UNL     1       2.600  -6.991   4.851  0.00  0.00    +0.037 C 
ENDROOT
BRANCH   1  19
ATOM     16  C   UNL     1       0.660  -0.564   1.009  0.00  0.00    +0.120 A 
ATOM     17  C   UNL     1      -0.067  -1.403   1.841  0.00  0.00    +0.047 A 
ATOM     18  C   UNL     1       0.555  -2.033   2.900  0.00  0.00    +0.030 A 
ATOM     19  C   UNL     1       1.908  -1.827   3.133  0.00  0.00    +0.055 A 
ATOM     20  C   UNL     1       2.635  -0.987   2.301  0.00  0.00    +0.030 A 
ATOM     21  C   UNL     1       2.014  -0.362   1.238  0.00  0.00    +0.047 A 
BRANCH  16  23
ATOM     22  C   UNL     1      -1.347  -0.198  -0.211  0.00  0.00    +0.277 C 
ATOM     23  O   UNL     1       0.048   0.056  -0.035  0.00  0.00    -0.495 OA
ENDBRANCH  16  23
ENDBRANCH   1  19
BRANCH   9  24
ATOM     24  C   UNL     1       4.483  -1.441   7.161  0.00  0.00    +0.223 C 
BRANCH  24  25
ATOM     25  C   UNL     1       5.916  -1.241   6.740  0.00  0.00    +0.237 C 
ATOM     26  O   UNL     1       6.325  -1.755   5.721  0.00  0.00    -0.274 OA
ATOM     27  N   UNL     1       6.742  -0.490   7.495  0.00  0.00    -0.284 N 
ATOM     28  H   UNL     1       6.439  -0.147   8.351  0.00  0.00    +0.155 HD
BRANCH  27  29
ATOM     29  C   UNL     1       8.030  -0.205   7.046  0.00  0.00    +0.033 A 
ATOM     30  C   UNL     1       8.267  -0.015   5.689  0.00  0.00    +0.024 A 
ATOM     31  C   UNL     1       9.538   0.266   5.242  0.00  0.00    +0.017 A 
ATOM     32  C   UNL     1      10.593   0.361   6.155  0.00  0.00    +0.059 A 
ATOM     33  C   UNL     1      10.352   0.169   7.519  0.00  0.00    +0.017 A 
ATOM     34  C   UNL     1       9.077  -0.107   7.958  0.00  0.00    +0.024 A 
BRANCH  32  35
ATOM     35  C   UNL     1      11.956   0.661   5.680  0.00  0.00    +0.339 C 
ATOM     36  O   UNL     1      12.164   0.827   4.495  0.00  0.00    -0.245 OA
BRANCH  35  37
ATOM     37  O   UNL     1      12.972   0.752   6.562  0.00  0.00    -0.464 OA
ATOM     38  C   UNL     1      14.266   1.045   6.032  0.00  0.00    +0.280 C 
ENDBRANCH  35  37
ENDBRANCH  32  35
ENDBRANCH  27  29
ENDBRANCH  24  25
ENDBRANCH   9  24
TORSDOF 7
