REMARK  Name = ZINC09580148
REMARK  8 active torsions:
REMARK  status: ('A' for Active; 'I' for Inactive)
REMARK    1  A    between atoms: C_1  and  C_2
REMARK    2  A    between atoms: C_2  and  O_3
REMARK    3  A    between atoms: O_3  and  C_4
REMARK    4  A    between atoms: C_4  and  C_6
REMARK    5  A    between atoms: C_9  and  N_12
REMARK    6  A    between atoms: C_22  and  N_23
REMARK    7  A    between atoms: N_23  and  C_24
REMARK    8  A    between atoms: C_28  and  O_30
REMARK                            x       y       z     vdW  Elec       q    Type
REMARK                         _______ _______ _______ _____ _____    ______ ____
ROOT
ATOM      1  N   UNL     1       3.463  -3.889  -5.837  0.00  0.00    -0.202 N 
ATOM      2  C   UNL     1       3.830  -3.040  -6.811  0.00  0.00    +0.258 C 
ATOM      3  O   UNL     1       3.658  -1.845  -6.659  0.00  0.00    -0.269 OA
ATOM      4  C   UNL     1       4.438  -3.530  -8.054  0.00  0.00    +0.046 A 
ATOM      5  C   UNL     1       4.823  -2.654  -9.070  0.00  0.00    +0.014 A 
ATOM      6  C   UNL     1       5.391  -3.153 -10.222  0.00  0.00    +0.001 A 
ATOM      7  C   UNL     1       5.583  -4.517 -10.384  0.00  0.00    +0.001 A 
ATOM      8  C   UNL     1       5.209  -5.401  -9.393  0.00  0.00    +0.009 A 
ATOM      9  C   UNL     1       4.635  -4.916  -8.223  0.00  0.00    +0.000 A 
ATOM     10  C   UNL     1       4.218  -5.819  -7.130  0.00  0.00    +0.059 C 
ATOM     11  C   UNL     1       4.383  -7.182  -7.233  0.00  0.00    +0.085 C 
ATOM     12  C   UNL     1       3.627  -5.218  -5.928  0.00  0.00    +0.259 C 
ATOM     13  O   UNL     1       3.277  -5.933  -5.007  0.00  0.00    -0.269 OA
ENDROOT
BRANCH   1  17
ATOM     14  C   UNL     1       1.756  -2.325  -2.371  0.00  0.00    +0.059 A 
ATOM     15  C   UNL     1       2.922  -3.091  -2.293  0.00  0.00    +0.017 A 
ATOM     16  C   UNL     1       3.483  -3.607  -3.440  0.00  0.00    +0.025 A 
ATOM     17  C   UNL     1       2.891  -3.365  -4.675  0.00  0.00    +0.045 A 
ATOM     18  C   UNL     1       1.730  -2.602  -4.757  0.00  0.00    +0.025 A 
ATOM     19  C   UNL     1       1.161  -2.088  -3.614  0.00  0.00    +0.017 A 
BRANCH  14  20
ATOM     20  C   UNL     1       1.152  -1.771  -1.145  0.00  0.00    +0.339 C 
ATOM     21  O   UNL     1       0.135  -1.109  -1.213  0.00  0.00    -0.245 OA
BRANCH  20  22
ATOM     22  O   UNL     1       1.727  -2.000   0.052  0.00  0.00    -0.461 OA
BRANCH  22  24
ATOM     23  C   UNL     1       1.879  -1.798   2.456  0.00  0.00    +0.048 C 
ATOM     24  C   UNL     1       1.088  -1.434   1.198  0.00  0.00    +0.229 C 
ENDBRANCH  22  24
ENDBRANCH  20  22
ENDBRANCH  14  20
ENDBRANCH   1  17
BRANCH  11  25
ATOM     25  N   UNL     1       3.848  -8.006  -6.293  0.00  0.00    -0.320 N 
ATOM     26  H   UNL     1       3.280  -7.641  -5.596  0.00  0.00    +0.152 HD
BRANCH  25  27
ATOM     27  C   UNL     1       4.114  -9.377  -6.332  0.00  0.00    +0.034 A 
ATOM     28  C   UNL     1       4.931  -9.899  -7.327  0.00  0.00    +0.023 A 
ATOM     29  C   UNL     1       5.193 -11.255  -7.365  0.00  0.00    +0.005 A 
ATOM     30  C   UNL     1       4.645 -12.095  -6.415  0.00  0.00    +0.045 A 
ATOM     31  C   UNL     1       3.828 -11.579  -5.418  0.00  0.00    +0.119 A 
ATOM     32  C   UNL     1       3.567 -10.218  -5.373  0.00  0.00    +0.068 A 
BRANCH  31  33
ATOM     33  O   UNL     1       3.289 -12.406  -4.485  0.00  0.00    -0.507 OA
ATOM     34  H   UNL     1       3.839 -12.524  -3.699  0.00  0.00    +0.292 HD
ENDBRANCH  31  33
ENDBRANCH  25  27
ENDBRANCH  11  25
TORSDOF 7
