REMARK  Name = ZINC09524329
REMARK  9 active torsions:
REMARK  status: ('A' for Active; 'I' for Inactive)
REMARK    1  A    between atoms: C_1  and  C_2
REMARK    2  A    between atoms: C_2  and  C_32
REMARK    3  A    between atoms: C_6  and  C_22
REMARK    4  A    between atoms: C_11  and  S_15
REMARK    5  A    between atoms: S_15  and  C_16
REMARK    6  A    between atoms: C_16  and  C_17
REMARK    7  A    between atoms: C_25  and  N_28
REMARK    8  A    between atoms: N_28  and  C_29
REMARK    9  A    between atoms: N_28  and  C_30
REMARK                            x       y       z     vdW  Elec       q    Type
REMARK                         _______ _______ _______ _____ _____    ______ ____
ROOT
ATOM      1  C   UNL     1      -0.019   1.526   0.010  0.00  0.00    +0.011 C 
ATOM      2  C   UNL     1       0.002  -0.004   0.002  0.00  0.00    -0.023 C 
ATOM      3  C   UNL     1      -1.433  -0.539   0.038  0.00  0.00    +0.086 C 
ATOM      4  C   UNL     1      -1.395  -2.040   0.123  0.00  0.00    +0.162 C 
ATOM      5  C   UNL     1      -0.317  -2.709   0.727  0.00  0.00    +0.024 C 
ATOM      6  C   UNL     1      -0.352  -4.216   0.769  0.00  0.00    +0.092 C 
ATOM      7  C   UNL     1       1.009  -4.786   1.041  0.00  0.00    +0.069 A 
ATOM      8  C   UNL     1       2.001  -4.011   1.556  0.00  0.00    +0.111 A 
ATOM      9  N   UNL     1       3.230  -4.568   1.796  0.00  0.00    -0.322 N 
ATOM     10  C   UNL     1       3.450  -5.883   1.518  0.00  0.00    +0.172 A 
ATOM     11  N   UNL     1       2.498  -6.643   1.017  0.00  0.00    -0.185 NA
ATOM     12  C   UNL     1       1.279  -6.144   0.764  0.00  0.00    +0.280 A 
ATOM     13  O   UNL     1       0.406  -6.861   0.296  0.00  0.00    -0.265 OA
ATOM     14  N   UNL     1       1.772  -2.683   1.830  0.00  0.00    -0.304 N 
ATOM     15  C   UNL     1       0.718  -2.024   1.258  0.00  0.00    +0.017 C 
ATOM     16  C   UNL     1       0.742  -0.515   1.240  0.00  0.00    +0.058 C 
ATOM     17  O   UNL     1      -2.315  -2.686  -0.338  0.00  0.00    -0.292 OA
ATOM     18  C   UNL     1       0.709  -0.502  -1.260  0.00  0.00    +0.011 C 
ATOM     19  H   UNL     1       2.363  -2.209   2.436  0.00  0.00    +0.153 HD
ATOM     20  H   UNL     1       3.944  -4.024   2.164  0.00  0.00    +0.169 HD
ENDROOT
BRANCH   6  21
ATOM     21  C   UNL     1      -1.296  -4.657   1.858  0.00  0.00    -0.035 A 
ATOM     22  C   UNL     1      -1.062  -4.280   3.168  0.00  0.00    +0.006 A 
ATOM     23  C   UNL     1      -1.926  -4.683   4.168  0.00  0.00    +0.023 A 
ATOM     24  C   UNL     1      -3.030  -5.466   3.857  0.00  0.00    +0.029 A 
ATOM     25  C   UNL     1      -3.261  -5.843   2.540  0.00  0.00    +0.023 A 
ATOM     26  C   UNL     1      -2.397  -5.432   1.544  0.00  0.00    +0.006 A 
BRANCH  24  27
ATOM     27  N   UNL     1      -3.904  -5.875   4.866  0.00  0.00    -0.336 N 
ATOM     28  C   UNL     1      -3.658  -5.478   6.255  0.00  0.00    +0.129 C 
ATOM     29  C   UNL     1      -5.068  -6.702   4.537  0.00  0.00    +0.129 C 
ENDBRANCH  24  27
ENDBRANCH   6  21
BRANCH  10  30
ATOM     30  S   UNL     1       5.037  -6.582   1.836  0.00  0.00    -0.084 S 
BRANCH  30  31
ATOM     31  C   UNL     1       4.865  -8.313   1.324  0.00  0.00    +0.104 C 
BRANCH  31  32
ATOM     32  C   UNL     1       6.169  -9.035   1.546  0.00  0.00    -0.023 C 
ATOM     33  C   UNL     1       6.240 -10.004   2.425  0.00  0.00    +0.005 C 
ENDBRANCH  31  32
ENDBRANCH  30  31
ENDBRANCH  10  30
TORSDOF 5
