REMARK  Name = ZINC03578829
REMARK  6 active torsions:
REMARK  status: ('A' for Active; 'I' for Inactive)
REMARK    1  A    between atoms: C_1  and  N_2
REMARK    2  A    between atoms: C_10  and  C_11
REMARK    3  A    between atoms: C_11  and  C_12
REMARK    4  A    between atoms: N_14  and  N_15
REMARK    5  A    between atoms: C_16  and  C_17
REMARK    6  A    between atoms: C_22  and  O_23
REMARK                            x       y       z     vdW  Elec       q    Type
REMARK                         _______ _______ _______ _____ _____    ______ ____
ROOT
ATOM      1  C   UNL     1      -2.419  -4.128   0.004  0.00  0.00    +0.240 C 
ATOM      2  O   UNL     1      -1.358  -4.717  -0.010  0.00  0.00    -0.274 OA
ATOM      3  N   UNL     1      -2.441  -2.781   0.011  0.00  0.00    -0.207 N 
ATOM      4  H   UNL     1      -3.289  -2.310   0.022  0.00  0.00    +0.177 HD
ENDROOT
BRANCH   3   5
ATOM      5  N   UNL     1      -1.240  -2.060   0.003  0.00  0.00    -0.188 NA
ATOM      6  C   UNL     1      -1.262  -0.762   0.011  0.00  0.00    +0.142 C 
BRANCH   6   7
ATOM      7  C   UNL     1       0.002  -0.004   0.002  0.00  0.00    +0.037 A 
ATOM      8  C   UNL     1      -0.017   1.393   0.010  0.00  0.00    +0.028 A 
ATOM      9  C   UNL     1       1.170   2.096   0.002  0.00  0.00    +0.019 A 
ATOM     10  C   UNL     1       2.381   1.423  -0.013  0.00  0.00    +0.019 A 
ATOM     11  C   UNL     1       2.412   0.041  -0.021  0.00  0.00    +0.047 A 
ATOM     12  C   UNL     1       1.229  -0.680  -0.013  0.00  0.00    +0.126 A 
ATOM     13 BR   UNL     1       1.144   3.987   0.012  0.00  0.00    -0.050 Br
BRANCH  12  14
ATOM     14  O   UNL     1       1.260  -2.038  -0.021  0.00  0.00    -0.506 OA
ATOM     15  H   UNL     1       1.260  -2.427  -0.906  0.00  0.00    +0.292 HD
ENDBRANCH  12  14
ENDBRANCH   6   7
ENDBRANCH   3   5
BRANCH   1  16
ATOM     16  C   UNL     1      -3.711  -4.904   0.013  0.00  0.00    +0.171 C 
BRANCH  16  26
ATOM     17  C   UNL     1      -3.323  -6.697   2.502  0.00  0.00    +0.150 C 
ATOM     18  N   UNL     1      -3.244  -7.150   1.111  0.00  0.00    -0.330 N 
ATOM     19  C   UNL     1      -2.987  -8.437   0.683  0.00  0.00    +0.069 A 
ATOM     20  C   UNL     1      -2.737  -9.640   1.330  0.00  0.00    +0.028 A 
ATOM     21  C   UNL     1      -2.513 -10.780   0.590  0.00  0.00    +0.002 A 
ATOM     22  C   UNL     1      -2.535 -10.734  -0.797  0.00  0.00    +0.002 A 
ATOM     23  C   UNL     1      -2.780  -9.560  -1.451  0.00  0.00    +0.030 A 
ATOM     24  C   UNL     1      -3.010  -8.391  -0.721  0.00  0.00    +0.089 A 
ATOM     25  N   UNL     1      -3.279  -7.106  -1.070  0.00  0.00    -0.232 NA
ATOM     26  C   UNL     1      -3.411  -6.380   0.002  0.00  0.00    +0.119 A 
ENDBRANCH  16  26
ENDBRANCH   1  16
TORSDOF 5
