REMARK  Name = ZINC01442161
REMARK  4 active torsions:
REMARK  status: ('A' for Active; 'I' for Inactive)
REMARK    1  A    between atoms: C_4  and  N_7
REMARK    2  A    between atoms: C_11  and  N_14
REMARK    3  A    between atoms: N_17  and  C_20
REMARK    4  A    between atoms: C_25  and  O_26
REMARK                            x       y       z     vdW  Elec       q    Type
REMARK                         _______ _______ _______ _____ _____    ______ ____
ROOT
ATOM      1  N   UNL     1      -3.053   4.188   0.003  0.00  0.00    -0.323 N 
ATOM      2  C   UNL     1      -2.768   3.512   1.278  0.00  0.00    +0.124 C 
ATOM      3  C   UNL     1      -1.355   2.923   1.212  0.00  0.00    +0.124 C 
ATOM      4  N   UNL     1      -1.237   2.074   0.019  0.00  0.00    -0.324 N 
ATOM      5  C   UNL     1      -1.411   2.857  -1.212  0.00  0.00    +0.124 C 
ATOM      6  C   UNL     1      -2.826   3.443  -1.245  0.00  0.00    +0.124 C 
ENDROOT
BRANCH   1  11
ATOM      7  N   UNL     1      -4.270   7.500  -0.818  0.00  0.00    -0.202 N 
ATOM      8  C   UNL     1      -4.247   7.561   0.525  0.00  0.00    +0.252 C 
ATOM      9  O   UNL     1      -4.570   8.523   1.194  0.00  0.00    -0.270 OA
ATOM     10  C   UNL     1      -3.769   6.279   1.050  0.00  0.00    +0.096 C 
ATOM     11  C   UNL     1      -3.519   5.484  -0.021  0.00  0.00    +0.098 C 
ATOM     12  C   UNL     1      -3.843   6.292  -1.228  0.00  0.00    +0.272 C 
ATOM     13  O   UNL     1      -3.743   5.925  -2.380  0.00  0.00    -0.268 OA
BRANCH   7  17
ATOM     14  C   UNL     1      -5.467  10.600  -3.336  0.00  0.00    +0.000 A 
ATOM     15  C   UNL     1      -5.486  10.778  -1.964  0.00  0.00    +0.002 A 
ATOM     16  C   UNL     1      -5.090   9.753  -1.128  0.00  0.00    +0.024 A 
ATOM     17  C   UNL     1      -4.673   8.542  -1.665  0.00  0.00    +0.045 A 
ATOM     18  C   UNL     1      -4.650   8.368  -3.042  0.00  0.00    +0.024 A 
ATOM     19  C   UNL     1      -5.052   9.395  -3.873  0.00  0.00    +0.002 A 
ENDBRANCH   7  17
ENDBRANCH   1  11
BRANCH   4  20
ATOM     20  C   UNL     1      -0.017   1.389   0.010  0.00  0.00    +0.072 A 
ATOM     21  C   UNL     1       1.177   2.095   0.002  0.00  0.00    +0.027 A 
ATOM     22  C   UNL     1       2.381   1.416  -0.013  0.00  0.00    +0.002 A 
ATOM     23  C   UNL     1       2.399   0.034  -0.021  0.00  0.00    +0.004 A 
ATOM     24  C   UNL     1       1.213  -0.677  -0.013  0.00  0.00    +0.047 A 
ATOM     25  C   UNL     1       0.002  -0.004   0.002  0.00  0.00    +0.138 A 
BRANCH  25  26
ATOM     26  O   UNL     1      -1.165  -0.702   0.009  0.00  0.00    -0.505 OA
ATOM     27  H   UNL     1      -1.511  -0.899  -0.872  0.00  0.00    +0.292 HD
ENDBRANCH  25  26
ENDBRANCH   4  20
TORSDOF 4
