REMARK  Name = ZINC10519034
REMARK  7 active torsions:
REMARK  status: ('A' for Active; 'I' for Inactive)
REMARK    1  A    between atoms: C_1  and  C_2
REMARK    2  A    between atoms: C_7  and  S_24
REMARK    3  A    between atoms: N_11  and  S_12
REMARK    4  A    between atoms: S_12  and  C_15
REMARK    5  A    between atoms: C_18  and  C_21
REMARK    6  A    between atoms: C_21  and  C_23
REMARK    7  A    between atoms: S_24  and  N_27
REMARK                            x       y       z     vdW  Elec       q    Type
REMARK                         _______ _______ _______ _____ _____    ______ ____
ROOT
ATOM      1  C   UNL     1      -1.134   4.314  -1.014  0.00  0.00    +0.030 C 
ATOM      2  C   UNL     1      -0.780   3.183  -1.982  0.00  0.00    +0.099 C 
ATOM      3  C   UNL     1      -1.792   3.133  -3.138  0.00  0.00    +0.061 C 
ATOM      4  C   UNL     1      -2.426   1.765  -3.029  0.00  0.00    -0.021 A 
ATOM      5  C   UNL     1      -3.403   1.154  -3.792  0.00  0.00    +0.034 A 
ATOM      6  C   UNL     1      -3.812  -0.132  -3.496  0.00  0.00    +0.105 A 
ATOM      7  C   UNL     1      -3.252  -0.803  -2.424  0.00  0.00    +0.030 A 
ATOM      8  C   UNL     1      -2.281  -0.197  -1.657  0.00  0.00    +0.027 A 
ATOM      9  C   UNL     1      -1.856   1.100  -1.955  0.00  0.00    +0.055 A 
ATOM     10  N   UNL     1      -0.897   1.885  -1.312  0.00  0.00    -0.200 N 
ENDROOT
BRANCH  10  11
ATOM     11  S   UNL     1      -0.017   1.417   0.010  0.00  0.00    +0.075 S 
ATOM     12  O   UNL     1       0.002  -0.004   0.002  0.00  0.00    -0.150 OA
ATOM     13  O   UNL     1       1.172   2.195   0.003  0.00  0.00    -0.150 OA
BRANCH  11  14
ATOM     14  C   UNL     1      -0.927   1.900   1.439  0.00  0.00    +0.109 A 
ATOM     15  C   UNL     1      -0.714   3.147   2.002  0.00  0.00    +0.029 A 
ATOM     16  C   UNL     1      -1.425   3.534   3.117  0.00  0.00    +0.013 A 
ATOM     17  C   UNL     1      -2.356   2.660   3.687  0.00  0.00    +0.017 A 
ATOM     18  C   UNL     1      -2.562   1.400   3.116  0.00  0.00    +0.013 A 
ATOM     19  C   UNL     1      -1.846   1.029   1.998  0.00  0.00    +0.029 A 
BRANCH  17  20
ATOM     20  C   UNL     1      -3.116   3.064   4.881  0.00  0.00    +0.160 C 
ATOM     21  O   UNL     1      -3.923   2.304   5.372  0.00  0.00    -0.292 OA
ATOM     22  C   UNL     1      -2.892   4.423   5.493  0.00  0.00    +0.091 C 
ENDBRANCH  17  20
ENDBRANCH  11  14
ENDBRANCH  10  11
BRANCH   6  23
ATOM     23  S   UNL     1      -5.054  -0.911  -4.474  0.00  0.00    +0.056 S 
ATOM     24  O   UNL     1      -5.025  -0.278  -5.746  0.00  0.00    -0.153 OA
ATOM     25  O   UNL     1      -4.876  -2.312  -4.316  0.00  0.00    -0.153 OA
BRANCH  23  26
ATOM     26  N   UNL     1      -6.518  -0.540  -3.794  0.00  0.00    -0.204 NA
ATOM     27  H   UNL     1      -6.556   0.015  -2.999  0.00  0.00    +0.144 HD
ATOM     28  H   UNL     1      -7.336  -0.878  -4.189  0.00  0.00    +0.144 HD
ENDBRANCH  23  26
ENDBRANCH   6  23
TORSDOF 5
