REMARK  Name = ZINC11912653
REMARK  8 active torsions:
REMARK  status: ('A' for Active; 'I' for Inactive)
REMARK    1  A    between atoms: C_6  and  C_7
REMARK    2  A    between atoms: C_7  and  C_8
REMARK    3  A    between atoms: C_8  and  N_59
REMARK    4  A    between atoms: C_9  and  N_59
REMARK    5  A    between atoms: N_20  and  C_23
REMARK    6  A    between atoms: C_23  and  C_24
REMARK    7  A    between atoms: C_24  and  C_25
REMARK    8  A    between atoms: C_25  and  C_26
REMARK                            x       y       z     vdW  Elec       q    Type
REMARK                         _______ _______ _______ _____ _____    ______ ____
ROOT
ATOM      1  C   UNL     1      -3.955   3.060   0.452  0.00  0.00    -0.067 C 
ATOM      2  C   UNL     1      -2.959   3.858  -0.394  0.00  0.00    -0.011 C 
ATOM      3  C   UNL     1      -1.530   3.536   0.043  0.00  0.00    +0.035 C 
ATOM      4  C   UNL     1      -1.340   2.022   0.032  0.00  0.00    -0.023 A 
ATOM      5  C   UNL     1      -2.406   1.194   0.031  0.00  0.00    -0.006 A 
ATOM      6  S   UNL     1      -1.718  -0.440   0.015  0.00  0.00    -0.073 S 
ATOM      7  C   UNL     1       0.002  -0.004   0.002  0.00  0.00    +0.116 A 
ATOM      8  C   UNL     1      -0.017   1.400   0.010  0.00  0.00    +0.076 A 
ATOM      9  C   UNL     1       1.267   2.037   0.001  0.00  0.00    +0.262 A 
ATOM     10  O   UNL     1       1.355   3.253   0.007  0.00  0.00    -0.267 OA
ATOM     11  N   UNL     1       2.373   1.271  -0.014  0.00  0.00    -0.299 N 
ATOM     12  C   UNL     1       2.294  -0.085  -0.019  0.00  0.00    +0.203 A 
ATOM     13  N   UNL     1       1.139  -0.694  -0.012  0.00  0.00    -0.230 NA
ATOM     14  C   UNL     1      -3.854   1.578   0.048  0.00  0.00    +0.027 C 
ENDROOT
BRANCH   1  15
ATOM     15  N   UNL     1      -5.322   3.549   0.187  0.00  0.00    +0.381 N 
ATOM     16  H   UNL     1      -5.293   4.562   0.021  0.00  0.00    -0.086 HD
ATOM     17  H   UNL     1      -5.695   3.076  -0.644  0.00  0.00    -0.086 HD
BRANCH  15  18
ATOM     18  C   UNL     1      -6.198   3.269   1.340  0.00  0.00    -0.078 C 
BRANCH  18  19
ATOM     19  C   UNL     1      -7.606   3.787   1.037  0.00  0.00    +0.016 C 
BRANCH  19  25
ATOM     20  C   UNL     1      -9.214   2.318   2.270  0.00  0.00    +0.006 A 
ATOM     21  C   UNL     1     -10.038   2.056   3.348  0.00  0.00    +0.038 A 
ATOM     22  C   UNL     1     -10.165   2.989   4.364  0.00  0.00    +0.123 A 
ATOM     23  C   UNL     1      -9.462   4.180   4.300  0.00  0.00    +0.038 A 
ATOM     24  C   UNL     1      -8.634   4.437   3.224  0.00  0.00    +0.006 A 
ATOM     25  C   UNL     1      -8.508   3.505   2.210  0.00  0.00    -0.049 A 
ATOM     26  F   UNL     1     -10.974   2.736   5.416  0.00  0.00    -0.205 F 
ENDBRANCH  19  25
ENDBRANCH  18  19
ENDBRANCH  15  18
ENDBRANCH   1  15
BRANCH  11  27
ATOM     27  C   UNL     1       3.691   1.912  -0.024  0.00  0.00    +0.126 C 
BRANCH  27  28
ATOM     28  C   UNL     1       4.135   2.143  -1.469  0.00  0.00    +0.026 C 
BRANCH  28  29
ATOM     29  C   UNL     1       5.510   2.813  -1.480  0.00  0.00    +0.037 C 
BRANCH  29  30
ATOM     30  C   UNL     1       5.948   3.039  -2.904  0.00  0.00    -0.044 A 
ATOM     31  C   UNL     1       6.681   2.078  -3.583  0.00  0.00    +0.023 A 
ATOM     32  C   UNL     1       7.061   2.319  -4.889  0.00  0.00    +0.111 A 
ATOM     33  N   UNL     1       6.743   3.451  -5.486  0.00  0.00    -0.263 NA
ATOM     34  C   UNL     1       6.051   4.390  -4.870  0.00  0.00    +0.111 A 
ATOM     35  C   UNL     1       5.633   4.217  -3.564  0.00  0.00    +0.023 A 
ENDBRANCH  29  30
ENDBRANCH  28  29
ENDBRANCH  27  28
ENDBRANCH  11  27
TORSDOF 8
