REMARK  Name = ZINC12152988
REMARK  11 active torsions:
REMARK  status: ('A' for Active; 'I' for Inactive)
REMARK    1  A    between atoms: C_1  and  O_2
REMARK    2  A    between atoms: O_2  and  C_3
REMARK    3  A    between atoms: C_7  and  C_9
REMARK    4  A    between atoms: C_12  and  O_31
REMARK    5  A    between atoms: C_13  and  C_15
REMARK    6  A    between atoms: C_15  and  N_59
REMARK    7  A    between atoms: C_16  and  C_17
REMARK    8  A    between atoms: C_16  and  N_59
REMARK    9  A    between atoms: C_17  and  C_18
REMARK   10  A    between atoms: C_18  and  C_19
REMARK   11  A    between atoms: C_18  and  C_25
REMARK                            x       y       z     vdW  Elec       q    Type
REMARK                         _______ _______ _______ _____ _____    ______ ____
ROOT
ATOM      1  N   UNL     1      -0.033   1.294   3.500  0.00  0.00    +0.382 N 
ATOM      2  H   UNL     1       0.111   1.871   2.663  0.00  0.00    -0.085 HD
ATOM      3  H   UNL     1       0.369   0.362   3.345  0.00  0.00    -0.085 HD
ENDROOT
BRANCH   1   4
ATOM      4  C   UNL     1      -1.479   1.163   3.758  0.00  0.00    -0.043 C 
BRANCH   4   9
ATOM      5  C   UNL     1      -3.142  -1.406   1.534  0.00  0.00    +0.001 A 
ATOM      6  C   UNL     1      -3.347  -0.671   0.367  0.00  0.00    +0.013 A 
ATOM      7  C   UNL     1      -2.953   0.649   0.308  0.00  0.00    +0.046 A 
ATOM      8  C   UNL     1      -2.342   1.243   1.404  0.00  0.00    +0.118 A 
ATOM      9  C   UNL     1      -2.136   0.513   2.568  0.00  0.00    -0.022 A 
ATOM     10  C   UNL     1      -2.534  -0.806   2.635  0.00  0.00    +0.015 A 
BRANCH   5  15
ATOM     11  C   UNL     1      -3.738  -4.783   2.820  0.00  0.00    +0.215 A 
ATOM     12  C   UNL     1      -4.349  -5.433   1.754  0.00  0.00    +0.067 A 
ATOM     13  C   UNL     1      -4.573  -4.742   0.575  0.00  0.00    +0.007 A 
ATOM     14  C   UNL     1      -4.177  -3.416   0.499  0.00  0.00    +0.028 A 
ATOM     15  C   UNL     1      -3.570  -2.824   1.603  0.00  0.00    +0.075 A 
ATOM     16  N   UNL     1      -3.366  -3.519   2.716  0.00  0.00    -0.213 NA
BRANCH  11  18
ATOM     17  C   UNL     1      -2.885  -4.732   5.036  0.00  0.00    +0.279 C 
ATOM     18  O   UNL     1      -3.516  -5.455   3.977  0.00  0.00    -0.480 OA
ENDBRANCH  11  18
ENDBRANCH   5  15
BRANCH   8  19
ATOM     19  O   UNL     1      -1.949   2.542   1.341  0.00  0.00    -0.507 OA
ATOM     20  H   UNL     1      -1.044   2.664   1.023  0.00  0.00    +0.292 HD
ENDBRANCH   8  19
ENDBRANCH   4   9
ENDBRANCH   1   4
BRANCH   1  21
ATOM     21  C   UNL     1       0.638   1.928   4.650  0.00  0.00    -0.081 C 
BRANCH  21  22
ATOM     22  C   UNL     1       2.134   2.050   4.354  0.00  0.00    -0.006 C 
BRANCH  22  23
ATOM     23  C   UNL     1       2.837   2.708   5.543  0.00  0.00    +0.047 C 
BRANCH  23  24
ATOM     24  C   UNL     1       2.741   1.804   6.746  0.00  0.00    -0.040 A 
ATOM     25  C   UNL     1       2.264   2.299   7.945  0.00  0.00    +0.004 A 
ATOM     26  C   UNL     1       2.172   1.470   9.047  0.00  0.00    +0.000 A 
ATOM     27  C   UNL     1       2.565   0.148   8.952  0.00  0.00    +0.000 A 
ATOM     28  C   UNL     1       3.047  -0.345   7.754  0.00  0.00    +0.000 A 
ATOM     29  C   UNL     1       3.135   0.483   6.651  0.00  0.00    +0.004 A 
ENDBRANCH  23  24
BRANCH  23  30
ATOM     30  C   UNL     1       4.287   2.940   5.204  0.00  0.00    -0.040 A 
ATOM     31  C   UNL     1       5.061   1.897   4.729  0.00  0.00    +0.004 A 
ATOM     32  C   UNL     1       6.390   2.111   4.413  0.00  0.00    +0.000 A 
ATOM     33  C   UNL     1       6.947   3.365   4.582  0.00  0.00    +0.000 A 
ATOM     34  C   UNL     1       6.175   4.406   5.062  0.00  0.00    +0.000 A 
ATOM     35  C   UNL     1       4.844   4.193   5.373  0.00  0.00    +0.004 A 
ENDBRANCH  23  30
ENDBRANCH  22  23
ENDBRANCH  21  22
ENDBRANCH   1  21
TORSDOF 10
