REMARK  Name = ZINC48255100
REMARK  4 active torsions:
REMARK  status: ('A' for Active; 'I' for Inactive)
REMARK    1  A    between atoms: C_1  and  N_2
REMARK    2  A    between atoms: C_5  and  C_7
REMARK    3  A    between atoms: C_15  and  C_17
REMARK    4  A    between atoms: C_22  and  C_23
REMARK                            x       y       z     vdW  Elec       q    Type
REMARK                         _______ _______ _______ _____ _____    ______ ____
ROOT
ATOM      1  C   UNL     1      -0.018   1.461   0.010  0.00  0.00    +0.174 C 
ATOM      2  N   UNL     1       0.002  -0.004   0.002  0.00  0.00    -0.248 N 
ATOM      3  C   UNL     1       0.008  -0.802  -1.113  0.00  0.00    +0.177 A 
ATOM      4  C   UNL     1       0.029  -2.119  -0.667  0.00  0.00    +0.113 A 
ATOM      5  C   UNL     1       0.035  -2.088   0.743  0.00  0.00    +0.120 A 
ATOM      6  N   UNL     1       0.025  -0.832   1.131  0.00  0.00    -0.167 NA
ATOM      7  N   UNL     1       0.034  -2.913  -1.798  0.00  0.00    -0.335 N 
ATOM      8  H   UNL     1       0.048  -3.883  -1.823  0.00  0.00    +0.167 HD
ATOM      9  C   UNL     1       0.017  -2.071  -2.877  0.00  0.00    +0.142 A 
ATOM     10  N   UNL     1       0.002  -0.827  -2.454  0.00  0.00    -0.209 NA
ENDROOT
BRANCH   5  11
ATOM     11  C   UNL     1       0.056  -3.272   1.637  0.00  0.00    +0.022 A 
ATOM     12  C   UNL     1       0.747  -3.233   2.851  0.00  0.00    +0.013 A 
ATOM     13  C   UNL     1       0.737  -4.364   3.649  0.00  0.00    +0.020 A 
ATOM     14  C   UNL     1       0.049  -5.486   3.223  0.00  0.00    +0.111 A 
ATOM     15  N   UNL     1      -0.595  -5.492   2.072  0.00  0.00    -0.263 NA
ATOM     16  C   UNL     1      -0.618  -4.439   1.282  0.00  0.00    +0.120 A 
ENDBRANCH   5  11
BRANCH   9  17
ATOM     17  C   UNL     1       0.016  -2.494  -4.291  0.00  0.00    +0.028 A 
ATOM     18  C   UNL     1       0.028  -3.849  -4.619  0.00  0.00    +0.012 A 
ATOM     19  C   UNL     1       0.027  -4.238  -5.942  0.00  0.00    +0.001 A 
ATOM     20  C   UNL     1       0.014  -3.291  -6.953  0.00  0.00    +0.001 A 
ATOM     21  C   UNL     1       0.002  -1.945  -6.650  0.00  0.00    +0.012 A 
ATOM     22  C   UNL     1      -0.002  -1.530  -5.318  0.00  0.00    +0.028 A 
BRANCH  22  23
ATOM     23  C   UNL     1      -0.021  -0.093  -4.988  0.00  0.00    +0.135 A 
ATOM     24  C   UNL     1       0.804   0.857  -5.508  0.00  0.00    +0.050 A 
ATOM     25  C   UNL     1       0.437   2.081  -4.917  0.00  0.00    +0.042 A 
ATOM     26  C   UNL     1      -0.583   1.823  -4.074  0.00  0.00    +0.196 A 
ATOM     27  O   UNL     1      -0.860   0.510  -4.124  0.00  0.00    -0.463 OA
ENDBRANCH  22  23
ENDBRANCH   9  17
TORSDOF 3
