REMARK  Name = ZINC39548615
REMARK  4 active torsions:
REMARK  status: ('A' for Active; 'I' for Inactive)
REMARK    1  A    between atoms: C_7  and  C_13
REMARK    2  A    between atoms: C_13  and  C_14
REMARK    3  A    between atoms: N_16  and  C_17
REMARK    4  A    between atoms: C_17  and  C_18
REMARK                            x       y       z     vdW  Elec       q    Type
REMARK                         _______ _______ _______ _____ _____    ______ ____
ROOT
ATOM      1  C   UNL     1       0.387  -4.425  -0.026  0.00  0.00    +0.219 C 
ATOM      2  O   UNL     1       1.550  -4.770  -0.040  0.00  0.00    -0.275 OA
ATOM      3  N   UNL     1      -0.591  -5.352  -0.022  0.00  0.00    -0.311 N 
ATOM      4  H   UNL     1      -1.521  -5.077  -0.011  0.00  0.00    +0.149 HD
ENDROOT
BRANCH   1   5
ATOM      5  C   UNL     1       0.036  -2.959  -0.014  0.00  0.00    +0.153 C 
BRANCH   5  12
ATOM      6  C   UNL     1      -0.017   1.363   0.009  0.00  0.00    +0.001 A 
ATOM      7  C   UNL     1       1.165   2.092   0.002  0.00  0.00    +0.001 A 
ATOM      8  C   UNL     1       2.386   1.454  -0.013  0.00  0.00    +0.014 A 
ATOM      9  C   UNL     1       2.429   0.060  -0.021  0.00  0.00    +0.050 A 
ATOM     10  C   UNL     1       1.224  -0.679  -0.013  0.00  0.00    +0.011 A 
ATOM     11  C   UNL     1       0.002  -0.004   0.002  0.00  0.00    +0.010 A 
ATOM     12  C   UNL     1       1.300  -2.140  -0.022  0.00  0.00    +0.078 A 
ATOM     13  N   UNL     1       2.458  -2.731  -0.037  0.00  0.00    -0.175 NA
ATOM     14  N   UNL     1       3.663  -2.028  -0.045  0.00  0.00    -0.242 N 
ATOM     15  H   UNL     1       4.497  -2.522  -0.056  0.00  0.00    +0.192 HD
ATOM     16  C   UNL     1       3.698  -0.679  -0.038  0.00  0.00    +0.272 A 
ATOM     17  O   UNL     1       4.762  -0.086  -0.046  0.00  0.00    -0.266 OA
ENDBRANCH   5  12
ENDBRANCH   1   5
BRANCH   3  18
ATOM     18  C   UNL     1      -0.249  -6.777  -0.033  0.00  0.00    +0.141 C 
BRANCH  18  19
ATOM     19  C   UNL     1      -1.514  -7.597  -0.025  0.00  0.00    -0.012 A 
ATOM     20  C   UNL     1      -2.093  -7.980   1.176  0.00  0.00    +0.010 A 
ATOM     21  C   UNL     1      -3.254  -8.733   1.139  0.00  0.00    +0.048 A 
ATOM     22  C   UNL     1      -3.797  -9.076  -0.093  0.00  0.00    +0.154 A 
ATOM     23  N   UNL     1      -3.215  -8.691  -1.217  0.00  0.00    -0.236 NA
ATOM     24  C   UNL     1      -2.111  -7.970  -1.213  0.00  0.00    +0.118 A 
ATOM     25  N   UNL     1      -4.970  -9.836  -0.145  0.00  0.00    -0.222 N 
ATOM     26  C   UNL     1      -5.607 -10.248  -1.272  0.00  0.00    +0.116 A 
ATOM     27  C   UNL     1      -6.697 -10.954  -0.891  0.00  0.00    +0.041 A 
ATOM     28  C   UNL     1      -6.729 -10.977   0.507  0.00  0.00    +0.135 A 
ATOM     29  N   UNL     1      -5.694 -10.314   0.955  0.00  0.00    -0.173 NA
ENDBRANCH  18  19
ENDBRANCH   3  18
TORSDOF 4
