REMARK  Name = ZINC39955363
REMARK  6 active torsions:
REMARK  status: ('A' for Active; 'I' for Inactive)
REMARK    1  A    between atoms: C_1  and  C_2
REMARK    2  A    between atoms: C_2  and  C_3
REMARK    3  A    between atoms: C_2  and  C_4
REMARK    4  A    between atoms: C_4  and  C_5
REMARK    5  A    between atoms: C_7  and  C_11
REMARK    6  A    between atoms: C_15  and  C_20
REMARK                            x       y       z     vdW  Elec       q    Type
REMARK                         _______ _______ _______ _____ _____    ______ ____
ROOT
ATOM      1  C   UNL     1       5.053   0.283   0.435  0.00  0.00    +0.182 C 
ATOM      2  N   UNL     1       6.196   1.227   0.317  0.00  0.00    -0.265 N 
ATOM      3  N   UNL     1       5.878   2.542   0.486  0.00  0.00    -0.221 N 
ATOM      4  C   UNL     1       6.425   3.770   0.159  0.00  0.00    +0.195 A 
ATOM      5  N   UNL     1       5.654   4.695   0.649  0.00  0.00    -0.128 NA
ATOM      6  N   UNL     1       4.650   4.162   1.250  0.00  0.00    -0.121 NA
ATOM      7  C   UNL     1       4.731   2.871   1.162  0.00  0.00    +0.211 A 
ATOM      8  S   UNL     1       3.971   1.301   1.530  0.00  0.00    -0.058 S 
ATOM      9  H   UNL     1       6.953   0.956   0.927  0.00  0.00    +0.168 HD
ENDROOT
BRANCH   4  10
ATOM     10  C   UNL     1       7.691   3.995  -0.626  0.00  0.00    +0.280 C 
ATOM     11  C   UNL     1       8.814   4.443   0.320  0.00  0.00    +0.281 C 
ATOM     12  O   UNL     1       9.995   4.661  -0.458  0.00  0.00    -0.484 OA
ATOM     13  C   UNL     1       9.848   5.376  -1.607  0.00  0.00    +0.162 A 
ATOM     14  C   UNL     1      10.966   5.931  -2.212  0.00  0.00    +0.049 A 
ATOM     15  C   UNL     1      10.832   6.657  -3.380  0.00  0.00    +0.004 A 
ATOM     16  C   UNL     1       9.584   6.832  -3.949  0.00  0.00    +0.004 A 
ATOM     17  C   UNL     1       8.466   6.284  -3.350  0.00  0.00    +0.049 A 
ATOM     18  C   UNL     1       8.593   5.555  -2.177  0.00  0.00    +0.163 A 
ATOM     19  O   UNL     1       7.481   5.027  -1.595  0.00  0.00    -0.474 OA
ENDBRANCH   4  10
BRANCH   1  22
ATOM     20  C   UNL     1       2.165  -0.079  -1.208  0.00  0.00    +0.062 C 
ATOM     21  C   UNL     1       3.162  -0.848  -0.763  0.00  0.00    +0.029 C 
ATOM     22  C   UNL     1       4.395   0.024  -0.922  0.00  0.00    +0.185 C 
ATOM     23  N   UNL     1       3.849   1.269  -1.487  0.00  0.00    -0.177 NA
ATOM     24  N   UNL     1       2.631   1.122  -1.615  0.00  0.00    -0.159 NA
BRANCH  20  25
ATOM     25  C   UNL     1       0.718  -0.497  -1.257  0.00  0.00    +0.060 C 
BRANCH  25  27
ATOM     26  C   UNL     1      -0.019   1.526   0.010  0.00  0.00    +0.007 C 
ATOM     27  C   UNL     1       0.002  -0.004   0.002  0.00  0.00    -0.011 C 
ATOM     28  C   UNL     1      -1.433  -0.534   0.013  0.00  0.00    +0.007 C 
ENDBRANCH  25  27
ENDBRANCH  20  25
ENDBRANCH   1  22
TORSDOF 4
