REMARK  Name = ZINC14458962
REMARK  6 active torsions:
REMARK  status: ('A' for Active; 'I' for Inactive)
REMARK    1  A    between atoms: C_1  and  C_2
REMARK    2  A    between atoms: C_5  and  N_27
REMARK    3  A    between atoms: C_9  and  C_18
REMARK    4  A    between atoms: C_21  and  O_26
REMARK    5  A    between atoms: C_22  and  O_24
REMARK    6  A    between atoms: O_24  and  C_25
REMARK                            x       y       z     vdW  Elec       q    Type
REMARK                         _______ _______ _______ _____ _____    ______ ____
ROOT
ATOM      1  C   UNL     1      -2.384   5.848  -3.292  0.00  0.00    +0.045 C 
ATOM      2  C   UNL     1      -2.465   5.105  -1.983  0.00  0.00    -0.029 A 
ATOM      3  C   UNL     1      -3.687   4.935  -1.366  0.00  0.00    +0.007 A 
ATOM      4  C   UNL     1      -3.760   4.253  -0.165  0.00  0.00    +0.033 A 
ATOM      5  C   UNL     1      -2.614   3.745   0.412  0.00  0.00    +0.132 A 
ATOM      6  C   UNL     1      -1.380   3.910  -0.202  0.00  0.00    +0.011 A 
ATOM      7  C   UNL     1      -1.305   4.594  -1.403  0.00  0.00    +0.037 A 
ATOM      8  N   UNL     1      -0.096   4.799  -2.067  0.00  0.00    -0.336 N 
ATOM      9  C   UNL     1       0.895   3.773  -1.741  0.00  0.00    +0.105 C 
ATOM     10  C   UNL     1       1.132   3.756  -0.229  0.00  0.00    +0.029 C 
ATOM     11  C   UNL     1      -0.174   3.332   0.477  0.00  0.00    +0.051 C 
ATOM     12  C   UNL     1      -0.177   1.824   0.369  0.00  0.00    -0.023 C 
ATOM     13  C   UNL     1       1.036   1.377   0.161  0.00  0.00    -0.030 C 
ATOM     14  C   UNL     1       2.023   2.525   0.099  0.00  0.00    +0.033 C 
ATOM     15  H   UNL     1      -0.237   4.861  -3.064  0.00  0.00    +0.147 HD
ENDROOT
BRANCH   9  16
ATOM     16  C   UNL     1       0.389   2.425  -2.186  0.00  0.00    -0.023 A 
ATOM     17  C   UNL     1      -0.965   2.231  -2.391  0.00  0.00    +0.009 A 
ATOM     18  C   UNL     1      -1.434   0.997  -2.804  0.00  0.00    +0.049 A 
ATOM     19  C   UNL     1      -0.548  -0.050  -3.002  0.00  0.00    +0.158 A 
ATOM     20  C   UNL     1       0.813   0.145  -2.791  0.00  0.00    +0.162 A 
ATOM     21  C   UNL     1       1.278   1.385  -2.382  0.00  0.00    +0.054 A 
BRANCH  20  22
ATOM     22  O   UNL     1       1.687  -0.880  -2.984  0.00  0.00    -0.491 OA
ATOM     23  C   UNL     1       3.069  -0.607  -2.747  0.00  0.00    +0.277 C 
ENDBRANCH  20  22
BRANCH  19  24
ATOM     24  O   UNL     1      -1.008  -1.265  -3.404  0.00  0.00    -0.503 OA
ATOM     25  H   UNL     1      -1.238  -1.858  -2.676  0.00  0.00    +0.292 HD
ENDBRANCH  19  24
ENDBRANCH   9  16
BRANCH   5  26
ATOM     26  N   UNL     1      -2.702   3.017   1.697  0.00  0.00    +0.057 N 
ATOM     27  O   UNL     1      -3.782   2.868   2.240  0.00  0.00    -0.126 OA
ATOM     28  O   UNL     1      -1.694   2.565   2.211  0.00  0.00    -0.126 OA
ENDBRANCH   5  26
TORSDOF 4
