REMARK  Name = ZINC20710498
REMARK  6 active torsions:
REMARK  status: ('A' for Active; 'I' for Inactive)
REMARK    1  A    between atoms: C_1  and  C_2
REMARK    2  A    between atoms: C_5  and  O_32
REMARK    3  A    between atoms: C_15  and  C_18
REMARK    4  A    between atoms: C_23  and  O_24
REMARK    5  A    between atoms: O_24  and  C_25
REMARK    6  A    between atoms: C_25  and  C_26
REMARK                            x       y       z     vdW  Elec       q    Type
REMARK                         _______ _______ _______ _____ _____    ______ ____
ROOT
ATOM      1  C   UNL     1       2.486   6.629  -3.664  0.00  0.00    +0.044 C 
ATOM      2  C   UNL     1       2.279   6.851  -2.188  0.00  0.00    -0.045 A 
ATOM      3  C   UNL     1       3.023   7.810  -1.533  0.00  0.00    +0.007 A 
ATOM      4  C   UNL     1       2.842   8.021  -0.178  0.00  0.00    +0.047 A 
ATOM      5  C   UNL     1       1.910   7.270   0.514  0.00  0.00    +0.138 A 
ATOM      6  C   UNL     1       1.155   6.298  -0.149  0.00  0.00    +0.074 A 
ATOM      7  C   UNL     1       1.342   6.087  -1.503  0.00  0.00    -0.013 A 
ATOM      8  C   UNL     1       0.574   5.056  -2.276  0.00  0.00    +0.049 C 
ATOM      9  C   UNL     1       1.466   3.893  -2.644  0.00  0.00    -0.023 C 
ATOM     10  C   UNL     1       0.817   2.762  -2.528  0.00  0.00    -0.030 C 
ATOM     11  C   UNL     1      -0.607   3.010  -2.073  0.00  0.00    +0.033 C 
ATOM     12  C   UNL     1      -0.541   4.420  -1.420  0.00  0.00    +0.029 C 
ATOM     13  C   UNL     1      -0.034   4.250   0.013  0.00  0.00    +0.109 C 
ATOM     14  N   UNL     1       0.226   5.567   0.596  0.00  0.00    -0.334 N 
ATOM     15  H   UNL     1      -0.291   5.872   1.518  0.00  0.00    +0.147 HD
ENDROOT
BRANCH  13  16
ATOM     16  C   UNL     1       1.240   3.444   0.003  0.00  0.00    +0.015 A 
ATOM     17  C   UNL     1       2.463   4.085  -0.063  0.00  0.00    +0.009 A 
ATOM     18  C   UNL     1       3.631   3.346  -0.078  0.00  0.00    +0.001 A 
ATOM     19  C   UNL     1       3.580   1.965  -0.022  0.00  0.00    +0.004 A 
ATOM     20  C   UNL     1       2.361   1.321   0.050  0.00  0.00    +0.046 A 
ATOM     21  C   UNL     1       1.186   2.059   0.065  0.00  0.00    +0.126 A 
BRANCH  21  22
ATOM     22  O   UNL     1      -0.015   1.427   0.135  0.00  0.00    -0.487 OA
BRANCH  22  23
ATOM     23  C   UNL     1       0.006  -0.000   0.191  0.00  0.00    +0.264 C 
BRANCH  23  24
ATOM     24  C   UNL     1      -1.407  -0.521   0.265  0.00  0.00    -0.010 A 
ATOM     25  C   UNL     1      -2.007  -0.718   1.494  0.00  0.00    +0.007 A 
ATOM     26  C   UNL     1      -3.304  -1.191   1.562  0.00  0.00    +0.000 A 
ATOM     27  C   UNL     1      -3.998  -1.475   0.400  0.00  0.00    +0.000 A 
ATOM     28  C   UNL     1      -3.395  -1.283  -0.829  0.00  0.00    +0.000 A 
ATOM     29  C   UNL     1      -2.099  -0.806  -0.897  0.00  0.00    +0.007 A 
ENDBRANCH  23  24
ENDBRANCH  22  23
ENDBRANCH  21  22
ENDBRANCH  13  16
BRANCH   5  30
ATOM     30  O   UNL     1       1.728   7.476   1.846  0.00  0.00    -0.505 OA
ATOM     31  H   UNL     1       0.987   6.880   2.399  0.00  0.00    +0.292 HD
ENDBRANCH   5  30
TORSDOF 5
