REMARK  Name = ZINC14300383
REMARK  7 active torsions:
REMARK  status: ('A' for Active; 'I' for Inactive)
REMARK    1  A    between atoms: C_1  and  C_2
REMARK    2  A    between atoms: C_2  and  N_3
REMARK    3  A    between atoms: C_7  and  C_27
REMARK    4  A    between atoms: C_8  and  C_26
REMARK    5  A    between atoms: C_12  and  S_13
REMARK    6  A    between atoms: S_13  and  C_14
REMARK    7  A    between atoms: C_14  and  C_15
REMARK                            x       y       z     vdW  Elec       q    Type
REMARK                         _______ _______ _______ _____ _____    ______ ____
ROOT
ATOM      1  N   UNL     1       0.956   8.427   4.735  0.00  0.00    -0.288 N 
ATOM      2  C   UNL     1      -0.169   8.921   5.282  0.00  0.00    +0.264 A 
ATOM      3  O   UNL     1      -0.112   9.794   6.131  0.00  0.00    -0.267 OA
ATOM      4  C   UNL     1      -1.434   8.410   4.856  0.00  0.00    +0.080 A 
ATOM      5  C   UNL     1      -2.775   8.783   5.296  0.00  0.00    +0.007 A 
ATOM      6  C   UNL     1      -3.839   8.155   4.744  0.00  0.00    -0.003 A 
ATOM      7  S   UNL     1      -3.097   7.016   3.591  0.00  0.00    -0.073 S 
ATOM      8  C   UNL     1      -1.389   7.405   3.873  0.00  0.00    +0.117 A 
ATOM      9  N   UNL     1      -0.242   6.963   3.370  0.00  0.00    -0.216 NA
ATOM     10  C   UNL     1       0.911   7.449   3.784  0.00  0.00    +0.173 A 
ATOM     11  C   UNL     1      -5.302   8.368   5.034  0.00  0.00    +0.052 C 
ENDROOT
BRANCH   5  12
ATOM     12  C   UNL     1      -2.967   9.829   6.328  0.00  0.00    -0.016 A 
ATOM     13  C   UNL     1      -2.513   9.619   7.630  0.00  0.00    +0.011 A 
ATOM     14  C   UNL     1      -2.690  10.598   8.586  0.00  0.00    +0.039 A 
ATOM     15  C   UNL     1      -3.326  11.784   8.257  0.00  0.00    +0.123 A 
ATOM     16  C   UNL     1      -3.783  11.995   6.966  0.00  0.00    +0.039 A 
ATOM     17  C   UNL     1      -3.607  11.024   6.002  0.00  0.00    +0.011 A 
ATOM     18  F   UNL     1      -3.502  12.737   9.198  0.00  0.00    -0.205 F 
ENDBRANCH   5  12
BRANCH   1  20
ATOM     19  C   UNL     1       2.648  10.136   4.288  0.00  0.00    +0.027 C 
ATOM     20  C   UNL     1       2.255   8.949   5.169  0.00  0.00    +0.124 C 
ENDBRANCH   1  20
BRANCH  10  21
ATOM     21  S   UNL     1       2.412   6.834   3.097  0.00  0.00    -0.078 S 
BRANCH  21  22
ATOM     22  C   UNL     1       1.749   5.609   1.941  0.00  0.00    +0.173 C 
BRANCH  22  23
ATOM     23  C   UNL     1       2.886   4.934   1.218  0.00  0.00    +0.226 C 
ATOM     24  O   UNL     1       4.032   5.250   1.460  0.00  0.00    -0.275 OA
ATOM     25  N   UNL     1       2.630   3.979   0.302  0.00  0.00    -0.296 N 
ATOM     26  C   UNL     1       3.731   3.314  -0.410  0.00  0.00    +0.113 C 
ATOM     27  C   UNL     1       3.736   1.830  -0.013  0.00  0.00    +0.061 C 
ATOM     28  C   UNL     1       2.328   1.330  -0.009  0.00  0.00    -0.004 A 
ATOM     29  C   UNL     1       1.181   2.062   0.002  0.00  0.00    -0.020 A 
ATOM     30  C   UNL     1      -0.016   1.349   0.009  0.00  0.00    +0.013 A 
ATOM     31  C   UNL     1       0.002  -0.004   0.002  0.00  0.00    +0.046 A 
ATOM     32  S   UNL     1       1.755  -0.348  -0.015  0.00  0.00    -0.101 S 
ATOM     33  C   UNL     1       1.246   3.588   0.000  0.00  0.00    +0.143 C 
ENDBRANCH  22  23
ENDBRANCH  21  22
ENDBRANCH  10  21
TORSDOF 5
