REMARK  Name = ZINC67438290
REMARK  9 active torsions:
REMARK  status: ('A' for Active; 'I' for Inactive)
REMARK    1  A    between atoms: C_1  and  C_2
REMARK    2  A    between atoms: C_3  and  C_27
REMARK    3  A    between atoms: C_8  and  C_10
REMARK    4  A    between atoms: N_12  and  C_13
REMARK    5  A    between atoms: C_13  and  C_15
REMARK    6  A    between atoms: C_13  and  C_16
REMARK    7  A    between atoms: C_16  and  N_17
REMARK    8  A    between atoms: C_19  and  C_26
REMARK    9  A    between atoms: C_22  and  C_25
REMARK                            x       y       z     vdW  Elec       q    Type
REMARK                         _______ _______ _______ _____ _____    ______ ____
ROOT
ATOM      1  C   UNL     1      -0.255  -4.519   3.687  0.00  0.00    +0.300 C 
ATOM      2  O   UNL     1      -0.307  -5.673   3.315  0.00  0.00    -0.265 OA
ATOM      3  N   UNL     1      -0.071  -4.239   4.993  0.00  0.00    -0.307 N 
ATOM      4  H   UNL     1      -0.030  -3.317   5.290  0.00  0.00    +0.149 HD
ENDROOT
BRANCH   1  12
ATOM      5  C   UNL     1      -0.857   0.813  -0.523  0.00  0.00    +0.069 C 
ATOM      6  C   UNL     1      -0.837  -0.688  -0.389  0.00  0.00    +0.081 A 
ATOM      7  C   UNL     1      -0.978  -1.574  -1.388  0.00  0.00    +0.127 A 
ATOM      8  O   UNL     1      -0.899  -2.807  -0.844  0.00  0.00    -0.429 OA
ATOM      9  C   UNL     1      -0.712  -2.660   0.477  0.00  0.00    +0.295 A 
ATOM     10  N   UNL     1      -0.670  -1.380   0.753  0.00  0.00    -0.200 NA
ATOM     11  N   UNL     1      -0.581  -3.689   1.393  0.00  0.00    -0.232 N 
ATOM     12  C   UNL     1      -0.397  -3.409   2.699  0.00  0.00    +0.306 C 
ATOM     13  O   UNL     1      -0.345  -2.255   3.071  0.00  0.00    -0.265 OA
ATOM     14  C   UNL     1      -1.185  -1.251  -2.845  0.00  0.00    +0.088 C 
ATOM     15  H   UNL     1      -0.622  -4.612   1.096  0.00  0.00    +0.160 HD
ENDBRANCH   1  12
BRANCH   3  16
ATOM     16  C   UNL     1       0.068  -5.329   5.963  0.00  0.00    +0.054 C 
ATOM     17  C   UNL     1       1.533  -5.765   6.034  0.00  0.00    +0.026 C 
BRANCH  16  18
ATOM     18  C   UNL     1      -0.388  -4.845   7.341  0.00  0.00    -0.057 C 
BRANCH  18  19
ATOM     19  N   UNL     1      -1.759  -4.328   7.250  0.00  0.00    +0.381 N 
ATOM     20  C   UNL     1      -2.141  -3.727   8.534  0.00  0.00    -0.076 C 
ATOM     21  C   UNL     1      -3.538  -3.115   8.419  0.00  0.00    -0.031 C 
ATOM     22  C   UNL     1      -4.541  -4.211   8.049  0.00  0.00    +0.003 C 
ATOM     23  C   UNL     1      -4.093  -4.880   6.747  0.00  0.00    -0.031 C 
ATOM     24  C   UNL     1      -2.675  -5.427   6.923  0.00  0.00    -0.076 C 
ATOM     25  C   UNL     1      -5.046  -6.029   6.408  0.00  0.00    +0.005 C 
ATOM     26  C   UNL     1      -3.934  -2.491   9.759  0.00  0.00    +0.005 C 
ATOM     27  H   UNL     1      -1.806  -3.626   6.526  0.00  0.00    -0.082 HD
ENDBRANCH  18  19
ENDBRANCH  16  18
ENDBRANCH   3  16
TORSDOF 4
