REMARK  Name = ZINC48440677
REMARK  6 active torsions:
REMARK  status: ('A' for Active; 'I' for Inactive)
REMARK    1  A    between atoms: C_1  and  N_2
REMARK    2  A    between atoms: N_2  and  C_3
REMARK    3  A    between atoms: N_2  and  C_4
REMARK    4  A    between atoms: C_7  and  N_10
REMARK    5  A    between atoms: N_10  and  S_11
REMARK    6  A    between atoms: S_11  and  C_14
REMARK                            x       y       z     vdW  Elec       q    Type
REMARK                         _______ _______ _______ _____ _____    ______ ____
ROOT
ATOM      1  N   UNL     1      -0.005  -2.755  -4.834  0.00  0.00    -0.216 N 
ATOM      2  H   UNL     1       0.627  -3.477  -4.977  0.00  0.00    +0.174 HD
ENDROOT
BRANCH   1   6
ATOM      3  C   UNL     1       0.074  -0.591  -1.271  0.00  0.00    +0.029 A 
ATOM      4  C   UNL     1       0.136  -1.978  -1.242  0.00  0.00    +0.025 A 
ATOM      5  C   UNL     1       0.110  -2.695  -2.422  0.00  0.00    +0.026 A 
ATOM      6  C   UNL     1       0.021  -2.029  -3.638  0.00  0.00    +0.048 A 
ATOM      7  C   UNL     1      -0.041  -0.642  -3.666  0.00  0.00    +0.026 A 
ATOM      8  C   UNL     1      -0.021   0.075  -2.486  0.00  0.00    +0.025 A 
BRANCH   3  10
ATOM      9  C   UNL     1       0.029   1.599  -0.105  0.00  0.00    +0.129 C 
ATOM     10  N   UNL     1       0.101   0.136  -0.075  0.00  0.00    -0.336 N 
ATOM     11  C   UNL     1       0.201  -0.566   1.207  0.00  0.00    +0.129 C 
ENDBRANCH   3  10
ENDBRANCH   1   6
BRANCH   1  12
ATOM     12  S   UNL     1      -1.115  -2.383  -6.005  0.00  0.00    +0.080 S 
ATOM     13  O   UNL     1      -1.004  -0.986  -6.241  0.00  0.00    -0.149 OA
ATOM     14  O   UNL     1      -0.954  -3.346  -7.038  0.00  0.00    -0.149 OA
BRANCH  12  15
ATOM     15  C   UNL     1      -2.713  -2.651  -5.312  0.00  0.00    +0.160 A 
ATOM     16  C   UNL     1      -3.927  -2.571  -5.910  0.00  0.00    +0.052 A 
ATOM     17  C   UNL     1      -5.061  -2.826  -5.160  0.00  0.00    +0.025 A 
ATOM     18  C   UNL     1      -4.925  -3.148  -3.851  0.00  0.00    +0.048 A 
ATOM     19  S   UNL     1      -3.152  -3.104  -3.642  0.00  0.00    -0.076 S 
ATOM     20 BR   UNL     1      -4.068  -2.119  -7.740  0.00  0.00    -0.048 Br
ENDBRANCH  12  15
ENDBRANCH   1  12
TORSDOF 4
