REMARK  Name = ZINC40290090
REMARK  6 active torsions:
REMARK  status: ('A' for Active; 'I' for Inactive)
REMARK    1  A    between atoms: C_1  and  C_2
REMARK    2  A    between atoms: C_5  and  O_19
REMARK    3  A    between atoms: C_6  and  C_8
REMARK    4  A    between atoms: C_8  and  C_10
REMARK    5  A    between atoms: C_13  and  N_15
REMARK    6  A    between atoms: O_19  and  C_20
REMARK                            x       y       z     vdW  Elec       q    Type
REMARK                         _______ _______ _______ _____ _____    ______ ____
ROOT
ATOM      1  C   UNL     1       0.052  -2.841   2.493  0.00  0.00    +0.156 C 
ATOM      2 BR   UNL     1       1.136  -4.468   2.290  0.00  0.00    -0.075 Br
ENDROOT
BRANCH   1   8
ATOM      3  C   UNL     1      -0.018   1.503   0.010  0.00  0.00    +0.044 C 
ATOM      4  C   UNL     1       0.002  -0.004   0.002  0.00  0.00    -0.050 A 
ATOM      5  C   UNL     1       0.006  -0.688  -1.200  0.00  0.00    +0.007 A 
ATOM      6  C   UNL     1       0.024  -2.069  -1.210  0.00  0.00    +0.046 A 
ATOM      7  C   UNL     1       0.039  -2.770  -0.013  0.00  0.00    +0.125 A 
ATOM      8  C   UNL     1       0.036  -2.082   1.191  0.00  0.00    +0.015 A 
ATOM      9  C   UNL     1       0.023  -0.701   1.196  0.00  0.00    +0.012 A 
BRANCH   7  10
ATOM     10  O   UNL     1       0.057  -4.129  -0.021  0.00  0.00    -0.495 OA
ATOM     11  C   UNL     1       0.058  -4.771  -1.298  0.00  0.00    +0.277 C 
ENDBRANCH   7  10
ENDBRANCH   1   8
BRANCH   1  12
ATOM     12  C   UNL     1      -1.356  -3.219   2.872  0.00  0.00    +0.126 A 
ATOM     13  C   UNL     1      -2.031  -2.768   3.945  0.00  0.00    +0.048 A 
ATOM     14  C   UNL     1      -3.306  -3.377   3.912  0.00  0.00    +0.076 A 
ATOM     15  C   UNL     1      -3.335  -4.164   2.822  0.00  0.00    +0.280 A 
ATOM     16  O   UNL     1      -2.153  -4.060   2.192  0.00  0.00    -0.438 OA
BRANCH  15  17
ATOM     17  N   UNL     1      -4.478  -4.998   2.386  0.00  0.00    +0.093 N 
ATOM     18  O   UNL     1      -5.500  -5.009   3.032  0.00  0.00    -0.123 OA
ATOM     19  O   UNL     1      -4.389  -5.668   1.384  0.00  0.00    -0.123 OA
ENDBRANCH  15  17
ENDBRANCH   1  12
TORSDOF 4
