REMARK  Name = ZINC09286427
REMARK  11 active torsions:
REMARK  status: ('A' for Active; 'I' for Inactive)
REMARK    1  A    between atoms: C_1  and  C_2
REMARK    2  A    between atoms: C_2  and  O_3
REMARK    3  A    between atoms: O_3  and  C_4
REMARK    4  A    between atoms: C_4  and  C_6
REMARK    5  A    between atoms: C_10  and  N_11
REMARK    6  A    between atoms: C_12  and  C_14
REMARK    7  A    between atoms: C_14  and  C_16
REMARK    8  A    between atoms: C_14  and  O_17
REMARK    9  A    between atoms: O_17  and  C_18
REMARK   10  A    between atoms: C_21  and  C_25
REMARK   11  A    between atoms: C_25  and  N_26
REMARK                            x       y       z     vdW  Elec       q    Type
REMARK                         _______ _______ _______ _____ _____    ______ ____
ROOT
ATOM      1  C   UNL     1      -0.079  -2.702   0.098  0.00  0.00    +0.256 C 
ATOM      2  C   UNL     1      -0.449  -2.833   1.577  0.00  0.00    +0.062 C 
ENDROOT
BRANCH   1   4
ATOM      3  N   UNL     1      -1.091  -4.843  -0.615  0.00  0.00    -0.276 N 
ATOM      4  C   UNL     1       0.011  -4.073  -0.520  0.00  0.00    +0.258 C 
ATOM      5  O   UNL     1       1.075  -4.484  -0.933  0.00  0.00    -0.271 OA
ATOM      6  H   UNL     1      -1.942  -4.515  -0.285  0.00  0.00    +0.155 HD
BRANCH   3  11
ATOM      7  C   UNL     1      -2.021  -7.038  -1.364  0.00  0.00    +0.091 A 
ATOM      8  C   UNL     1      -1.667  -8.297  -1.999  0.00  0.00    -0.021 A 
ATOM      9  C   UNL     1      -0.367  -8.425  -2.339  0.00  0.00    -0.004 A 
ATOM     10  S   UNL     1       0.384  -6.902  -1.837  0.00  0.00    -0.077 S 
ATOM     11  C   UNL     1      -1.009  -6.104  -1.184  0.00  0.00    +0.086 A 
ATOM     12  C   UNL     1       0.284  -9.603  -2.995  0.00  0.00    +0.043 C 
ATOM     13  C   UNL     1      -0.669 -10.803  -2.889  0.00  0.00    +0.005 C 
ATOM     14  C   UNL     1      -2.070 -10.360  -3.320  0.00  0.00    +0.005 C 
ATOM     15  C   UNL     1      -2.663  -9.418  -2.271  0.00  0.00    +0.037 C 
BRANCH   7  16
ATOM     16  C   UNL     1      -3.393  -6.763  -0.934  0.00  0.00    +0.342 C 
ATOM     17  O   UNL     1      -4.177  -6.236  -1.701  0.00  0.00    -0.245 OA
BRANCH  16  18
ATOM     18  O   UNL     1      -3.789  -7.094   0.312  0.00  0.00    -0.461 OA
BRANCH  18  20
ATOM     19  C   UNL     1      -5.426  -7.235   2.110  0.00  0.00    +0.048 C 
ATOM     20  C   UNL     1      -5.164  -6.792   0.669  0.00  0.00    +0.229 C 
ENDBRANCH  18  20
ENDBRANCH  16  18
ENDBRANCH   7  16
ENDBRANCH   3  11
ENDBRANCH   1   4
BRANCH   1  21
ATOM     21  O   UNL     1       1.183  -2.042  -0.021  0.00  0.00    -0.473 OA
BRANCH  21  22
ATOM     22  C   UNL     1       1.171  -0.681  -0.011  0.00  0.00    +0.203 A 
ATOM     23  C   UNL     1       0.024  -0.005   0.218  0.00  0.00    +0.244 A 
ATOM     24  O   UNL     1       0.006   1.335   0.229  0.00  0.00    -0.462 OA
ATOM     25  C   UNL     1       1.109   2.061   0.017  0.00  0.00    +0.126 A 
ATOM     26  C   UNL     1       2.297   1.469  -0.219  0.00  0.00    +0.098 A 
ATOM     27  C   UNL     1       2.367   0.053  -0.240  0.00  0.00    +0.227 A 
ATOM     28  O   UNL     1       3.425  -0.520  -0.451  0.00  0.00    -0.284 OA
BRANCH  25  29
ATOM     29  C   UNL     1       1.023   3.566   0.042  0.00  0.00    +0.179 C 
BRANCH  29  30
ATOM     30  N   UNL     1       0.729   4.062  -1.309  0.00  0.00    -0.322 N 
ATOM     31  C   UNL     1       1.651   3.472  -2.303  0.00  0.00    +0.110 C 
ATOM     32  C   UNL     1       0.782   3.417  -3.580  0.00  0.00    +0.056 C 
ATOM     33  C   UNL     1      -0.627   3.355  -3.026  0.00  0.00    -0.025 A 
ATOM     34  C   UNL     1      -0.579   3.736  -1.690  0.00  0.00    +0.033 A 
ATOM     35  C   UNL     1      -1.757   3.746  -0.945  0.00  0.00    +0.023 A 
ATOM     36  C   UNL     1      -2.953   3.388  -1.533  0.00  0.00    +0.002 A 
ATOM     37  C   UNL     1      -2.991   3.017  -2.865  0.00  0.00    +0.000 A 
ATOM     38  C   UNL     1      -1.825   3.001  -3.609  0.00  0.00    +0.005 A 
ENDBRANCH  29  30
ENDBRANCH  25  29
ENDBRANCH  21  22
ENDBRANCH   1  21
TORSDOF 9
