REMARK  Name = ZINC39007486
REMARK  9 active torsions:
REMARK  status: ('A' for Active; 'I' for Inactive)
REMARK    1  A    between atoms: C_1  and  C_2
REMARK    2  A    between atoms: C_6  and  C_28
REMARK    3  A    between atoms: C_7  and  N_8
REMARK    4  A    between atoms: C_9  and  C_11
REMARK    5  A    between atoms: C_11  and  S_12
REMARK    6  A    between atoms: S_12  and  C_13
REMARK    7  A    between atoms: C_17  and  C_21
REMARK    8  A    between atoms: N_19  and  N_20
REMARK    9  A    between atoms: C_24  and  C_27
REMARK                            x       y       z     vdW  Elec       q    Type
REMARK                         _______ _______ _______ _____ _____    ______ ____
ROOT
ATOM      1  C   UNL     1      -0.774   0.103   7.959  0.00  0.00    +0.214 C 
ATOM      2  N   UNL     1      -2.165   0.553   8.229  0.00  0.00    -0.228 NA
ATOM      3  N   UNL     1      -2.159   0.796   9.680  0.00  0.00    -0.234 NA
ATOM      4  C   UNL     1      -1.310  -0.283  10.233  0.00  0.00    +0.185 C 
ATOM      5  N   UNL     1      -0.421  -0.724   9.136  0.00  0.00    -0.197 NA
ATOM      6  H   UNL     1      -2.831  -0.165   7.985  0.00  0.00    +0.143 HD
ATOM      7  H   UNL     1      -3.094   0.751  10.058  0.00  0.00    +0.143 HD
ENDROOT
BRANCH   4   8
ATOM      8  C   UNL     1      -0.475   0.252  11.399  0.00  0.00    +0.186 C 
ATOM      9  C   UNL     1      -1.371   0.684  12.546  0.00  0.00    +0.029 C 
ATOM     10  C   UNL     1      -1.121   1.989  12.674  0.00  0.00    +0.058 C 
ATOM     11  N   UNL     1      -0.206   2.394  11.767  0.00  0.00    -0.159 NA
ATOM     12  N   UNL     1       0.209   1.499  11.020  0.00  0.00    -0.177 NA
ATOM     13  C   UNL     1      -1.773   2.889  13.693  0.00  0.00    +0.067 C 
ENDBRANCH   4   8
BRANCH   5  14
ATOM     14  N   UNL     1      -0.607  -2.139   8.852  0.00  0.00    -0.264 NA
ATOM     15  H   UNL     1       0.046  -2.455   8.151  0.00  0.00    +0.137 HD
ATOM     16  H   UNL     1      -0.529  -2.689   9.694  0.00  0.00    +0.137 HD
ENDBRANCH   5  14
BRANCH   1  17
ATOM     17  S   UNL     1      -0.712  -0.890   6.442  0.00  0.00    -0.115 S 
BRANCH  17  18
ATOM     18  C   UNL     1      -0.703   0.342   5.111  0.00  0.00    +0.168 C 
BRANCH  18  20
ATOM     19  N   UNL     1      -0.493   0.368   2.646  0.00  0.00    -0.284 N 
ATOM     20  C   UNL     1      -0.529  -0.353   3.785  0.00  0.00    +0.227 C 
ATOM     21  O   UNL     1      -0.420  -1.560   3.742  0.00  0.00    -0.275 OA
ATOM     22  H   UNL     1      -0.530   1.336   2.684  0.00  0.00    +0.155 HD
BRANCH  19  29
ATOM     23  C   UNL     1       1.374   1.360   0.741  0.00  0.00    +0.045 C 
ATOM     24  C   UNL     1       0.496   0.170   0.452  0.00  0.00    -0.029 A 
ATOM     25  C   UNL     1       0.588  -0.477  -0.765  0.00  0.00    +0.005 A 
ATOM     26  C   UNL     1      -0.217  -1.569  -1.032  0.00  0.00    +0.001 A 
ATOM     27  C   UNL     1      -1.117  -2.017  -0.082  0.00  0.00    +0.005 A 
ATOM     28  C   UNL     1      -1.213  -1.375   1.137  0.00  0.00    -0.029 A 
ATOM     29  C   UNL     1      -0.402  -0.282   1.410  0.00  0.00    +0.039 A 
ATOM     30  C   UNL     1      -2.193  -1.864   2.172  0.00  0.00    +0.045 C 
ENDBRANCH  19  29
ENDBRANCH  18  20
ENDBRANCH  17  18
ENDBRANCH   1  17
TORSDOF 6
