REMARK  Name = ZINC63842525
REMARK  6 active torsions:
REMARK  status: ('A' for Active; 'I' for Inactive)
REMARK    1  A    between atoms: C_1  and  C_2
REMARK    2  A    between atoms: C_2  and  C_4
REMARK    3  A    between atoms: C_2  and  O_20
REMARK    4  A    between atoms: N_9  and  C_10
REMARK    5  A    between atoms: O_20  and  C_21
REMARK    6  A    between atoms: C_21  and  C_23
REMARK                            x       y       z     vdW  Elec       q    Type
REMARK                         _______ _______ _______ _____ _____    ______ ____
ROOT
ATOM      1  C   UNL     1       0.731  -0.503   1.223  0.00  0.00    +0.261 C 
ATOM      2  O   UNL     1       0.135  -1.137   2.068  0.00  0.00    -0.271 OA
ATOM      3  N   UNL     1       2.045  -0.246   1.375  0.00  0.00    -0.237 N 
ATOM      4  C   UNL     1       2.697  -0.692   2.467  0.00  0.00    +0.306 C 
ATOM      5  O   UNL     1       2.100  -1.327   3.314  0.00  0.00    -0.252 OA
ATOM      6  N   UNL     1       4.011  -0.435   2.620  0.00  0.00    -0.294 N 
ATOM      7  H   UNL     1       2.522   0.261   0.699  0.00  0.00    +0.159 HD
ATOM      8  H   UNL     1       4.488   0.072   1.944  0.00  0.00    +0.151 HD
ENDROOT
BRANCH   6   9
ATOM      9  C   UNL     1       4.720  -0.920   3.807  0.00  0.00    +0.037 C 
ATOM     10  C   UNL     1       4.078  -0.326   5.062  0.00  0.00    +0.029 C 
ATOM     11  C   UNL     1       4.818  -0.833   6.302  0.00  0.00    -0.008 C 
ATOM     12  C   UNL     1       6.286  -0.407   6.229  0.00  0.00    +0.007 C 
ATOM     13  C   UNL     1       6.928  -1.002   4.973  0.00  0.00    -0.008 C 
ATOM     14  C   UNL     1       6.188  -0.495   3.734  0.00  0.00    +0.029 C 
ATOM     15  C   UNL     1       6.841  -2.528   5.030  0.00  0.00    +0.007 C 
ATOM     16  C   UNL     1       5.373  -2.954   5.103  0.00  0.00    -0.008 C 
ATOM     17  C   UNL     1       4.732  -2.359   6.359  0.00  0.00    +0.007 C 
ATOM     18  C   UNL     1       4.633  -2.447   3.864  0.00  0.00    +0.029 C 
ENDBRANCH   6   9
BRANCH   1  20
ATOM     19  C   UNL     1      -0.019   1.526   0.010  0.00  0.00    +0.062 C 
ATOM     20  C   UNL     1       0.002  -0.004   0.002  0.00  0.00    +0.259 C 
BRANCH  20  21
ATOM     21  O   UNL     1      -1.339  -0.499   0.012  0.00  0.00    -0.448 OA
BRANCH  21  22
ATOM     22  C   UNL     1      -1.924  -0.704  -1.185  0.00  0.00    +0.355 C 
ATOM     23  O   UNL     1      -1.313  -0.470  -2.208  0.00  0.00    -0.244 OA
BRANCH  22  24
ATOM     24  C   UNL     1      -3.303  -1.212  -1.251  0.00  0.00    +0.129 C 
ATOM     25  N   UNL     1      -4.080  -1.501  -0.248  0.00  0.00    -0.253 NA
ATOM     26  C   UNL     1      -5.286  -1.944  -0.615  0.00  0.00    +0.107 C 
ATOM     27  C   UNL     1      -5.431  -1.993  -1.943  0.00  0.00    -0.001 C 
ATOM     28  C   UNL     1      -4.110  -1.499  -2.503  0.00  0.00    +0.091 C 
ENDBRANCH  22  24
ENDBRANCH  21  22
ENDBRANCH  20  21
ENDBRANCH   1  20
TORSDOF 5
