REMARK  Name = ZINC06009138
REMARK  4 active torsions:
REMARK  status: ('A' for Active; 'I' for Inactive)
REMARK    1  A    between atoms: C_1  and  C_2
REMARK    2  A    between atoms: C_5  and  C_8
REMARK    3  A    between atoms: N_10  and  N_11
REMARK    4  A    between atoms: C_15  and  C_16
REMARK                            x       y       z     vdW  Elec       q    Type
REMARK                         _______ _______ _______ _____ _____    ______ ____
ROOT
ATOM      1  N   UNL     1      -5.206   3.499   0.280  0.00  0.00    -0.169 N 
ATOM      2  C   UNL     1      -3.942   3.130   0.162  0.00  0.00    +0.275 C 
ATOM      3  O   UNL     1      -3.042   3.946   0.082  0.00  0.00    -0.267 OA
ATOM      4  C   UNL     1      -3.677   1.676   0.131  0.00  0.00    +0.079 C 
ATOM      5  C   UNL     1      -2.499   1.013   0.019  0.00  0.00    +0.028 C 
ATOM      6  S   UNL     1      -5.338   1.031   0.273  0.00  0.00    -0.059 S 
ATOM      7  C   UNL     1      -6.200   2.592   0.367  0.00  0.00    +0.138 C 
ATOM      8  S   UNL     1      -7.882   2.870   0.521  0.00  0.00    -0.026 S 
ENDROOT
BRANCH   5   9
ATOM      9  C   UNL     1      -1.231   1.753   0.091  0.00  0.00    -0.021 A 
ATOM     10  C   UNL     1      -0.162   1.398  -0.740  0.00  0.00    +0.008 A 
ATOM     11  C   UNL     1       1.023   2.099  -0.672  0.00  0.00    +0.003 A 
ATOM     12  C   UNL     1       1.160   3.149   0.219  0.00  0.00    +0.038 A 
ATOM     13  C   UNL     1       0.109   3.504   1.050  0.00  0.00    +0.124 A 
ATOM     14  C   UNL     1      -1.084   2.811   0.993  0.00  0.00    +0.046 A 
ATOM     15  F   UNL     1       0.252   4.531   1.917  0.00  0.00    -0.205 F 
ENDBRANCH   5   9
BRANCH   1  18
ATOM     16  C   UNL     1      -6.068   5.457  -0.765  0.00  0.00    +0.261 C 
ATOM     17  O   UNL     1      -6.289   4.808  -1.769  0.00  0.00    -0.269 OA
ATOM     18  N   UNL     1      -5.520   4.864   0.314  0.00  0.00    -0.222 N 
ATOM     19  H   UNL     1      -5.344   5.382   1.115  0.00  0.00    +0.174 HD
BRANCH  16  24
ATOM     20  C   UNL     1      -7.359  11.063  -0.624  0.00  0.00    +0.044 C 
ATOM     21  C   UNL     1      -7.021   9.595  -0.661  0.00  0.00    -0.050 A 
ATOM     22  C   UNL     1      -7.274   8.859  -1.804  0.00  0.00    +0.004 A 
ATOM     23  C   UNL     1      -6.967   7.514  -1.845  0.00  0.00    +0.013 A 
ATOM     24  C   UNL     1      -6.400   6.897  -0.729  0.00  0.00    +0.038 A 
ATOM     25  C   UNL     1      -6.152   7.644   0.424  0.00  0.00    +0.013 A 
ATOM     26  C   UNL     1      -6.459   8.989   0.449  0.00  0.00    +0.004 A 
ENDBRANCH  16  24
ENDBRANCH   1  18
TORSDOF 3
