REMARK  Name = ZINC67479362
REMARK  7 active torsions:
REMARK  status: ('A' for Active; 'I' for Inactive)
REMARK    1  A    between atoms: C_1  and  C_2
REMARK    2  A    between atoms: C_6  and  C_7
REMARK    3  A    between atoms: N_9  and  N_10
REMARK    4  A    between atoms: N_13  and  C_14
REMARK    5  A    between atoms: C_14  and  C_15
REMARK    6  A    between atoms: C_15  and  C_17
REMARK    7  A    between atoms: C_15  and  O_27
REMARK                            x       y       z     vdW  Elec       q    Type
REMARK                         _______ _______ _______ _____ _____    ______ ____
ROOT
ATOM      1  N   UNL     1       0.058  -0.732   4.900  0.00  0.00    -0.218 N 
ATOM      2  C   UNL     1       0.080  -1.625   5.909  0.00  0.00    +0.316 C 
ATOM      3  O   UNL     1       0.086  -1.239   7.062  0.00  0.00    -0.251 OA
ATOM      4  N   UNL     1       0.096  -2.945   5.640  0.00  0.00    -0.295 N 
ATOM      5  H   UNL     1       0.047   0.219   5.094  0.00  0.00    +0.174 HD
ATOM      6  H   UNL     1       0.091  -3.253   4.720  0.00  0.00    +0.150 HD
ENDROOT
BRANCH   1   9
ATOM      7  C   UNL     1       0.030  -0.283   2.562  0.00  0.00    +0.267 C 
ATOM      8  O   UNL     1       0.016   0.910   2.805  0.00  0.00    -0.268 OA
ATOM      9  N   UNL     1       0.052  -1.176   3.571  0.00  0.00    -0.229 N 
ATOM     10  H   UNL     1       0.063  -2.126   3.378  0.00  0.00    +0.173 HD
BRANCH   7  16
ATOM     11  C   UNL     1      -0.018   1.503   0.010  0.00  0.00    +0.045 C 
ATOM     12  C   UNL     1       0.002  -0.004   0.002  0.00  0.00    -0.031 A 
ATOM     13  C   UNL     1       0.007  -0.729  -1.166  0.00  0.00    +0.011 A 
ATOM     14  C   UNL     1       0.026  -2.083  -1.101  0.00  0.00    +0.046 A 
ATOM     15  S   UNL     1       0.038  -2.416   0.545  0.00  0.00    -0.092 S 
ATOM     16  C   UNL     1       0.023  -0.748   1.172  0.00  0.00    +0.078 A 
ENDBRANCH   7  16
ENDBRANCH   1   9
BRANCH   4  17
ATOM     17  C   UNL     1       0.119  -3.916   6.737  0.00  0.00    +0.142 C 
BRANCH  17  18
ATOM     18  C   UNL     1       0.133  -5.334   6.163  0.00  0.00    +0.162 C 
BRANCH  18  19
ATOM     19  C   UNL     1       0.157  -6.333   7.291  0.00  0.00    -0.017 A 
ATOM     20  C   UNL     1      -1.041  -6.729   7.883  0.00  0.00    +0.007 A 
ATOM     21  C   UNL     1      -1.054  -7.629   8.904  0.00  0.00    +0.009 A 
ATOM     22  C   UNL     1       0.157  -8.168   9.371  0.00  0.00    -0.018 A 
ATOM     23  C   UNL     1       0.183  -9.100  10.423  0.00  0.00    +0.008 A 
ATOM     24  C   UNL     1       1.375  -9.602  10.848  0.00  0.00    +0.001 A 
ATOM     25  C   UNL     1       2.572  -9.206  10.257  0.00  0.00    +0.001 A 
ATOM     26  C   UNL     1       2.586  -8.306   9.236  0.00  0.00    +0.008 A 
ATOM     27  C   UNL     1       1.375  -7.766   8.769  0.00  0.00    -0.018 A 
ATOM     28  C   UNL     1       1.348  -6.838   7.713  0.00  0.00    +0.014 A 
ENDBRANCH  18  19
BRANCH  18  29
ATOM     29  O   UNL     1      -1.039  -5.539   5.371  0.00  0.00    -0.386 OA
ATOM     30  H   UNL     1      -1.867  -5.437   5.860  0.00  0.00    +0.210 HD
ENDBRANCH  18  29
ENDBRANCH  17  18
ENDBRANCH   4  17
TORSDOF 6
