REMARK  Name = ZINC67292746
REMARK  5 active torsions:
REMARK  status: ('A' for Active; 'I' for Inactive)
REMARK    1  A    between atoms: C_1  and  C_2
REMARK    2  A    between atoms: C_6  and  N_8
REMARK    3  A    between atoms: C_10  and  C_20
REMARK    4  A    between atoms: N_22  and  C_23
REMARK    5  A    between atoms: C_23  and  C_24
REMARK                            x       y       z     vdW  Elec       q    Type
REMARK                         _______ _______ _______ _____ _____    ______ ____
ROOT
ATOM      1  N   UNL     1       0.050  -2.785   2.367  0.00  0.00    -0.325 N 
ATOM      2  C   UNL     1      -0.740  -3.824   2.526  0.00  0.00    +0.212 A 
ATOM      3  C   UNL     1      -0.668  -4.656   3.744  0.00  0.00    +0.097 A 
ATOM      4  C   UNL     1      -1.822  -5.332   4.117  0.00  0.00    +0.030 A 
ATOM      5  C   UNL     1      -3.006  -5.160   3.272  0.00  0.00    +0.020 A 
ATOM      6  C   UNL     1      -4.267  -5.581   3.712  0.00  0.00    +0.031 A 
ATOM      7  C   UNL     1      -5.365  -5.405   2.899  0.00  0.00    +0.042 A 
ATOM      8  C   UNL     1      -5.226  -4.814   1.650  0.00  0.00    +0.023 A 
ATOM      9  C   UNL     1      -3.989  -4.396   1.203  0.00  0.00    +0.048 A 
ATOM     10  C   UNL     1      -2.869  -4.565   2.004  0.00  0.00    +0.138 A 
ATOM     11  O   UNL     1      -1.651  -4.162   1.578  0.00  0.00    -0.439 OA
ATOM     12 CL   UNL     1      -6.931  -5.925   3.439  0.00  0.00    -0.084 Cl
ATOM     13  H   UNL     1       0.633  -2.504   3.090  0.00  0.00    +0.169 HD
ENDROOT
BRANCH   1  19
ATOM     14  C   UNL     1       0.000   1.489  -0.019  0.00  0.00    +0.044 C 
ATOM     15  C   UNL     1       0.024  -0.018  -0.015  0.00  0.00    -0.049 A 
ATOM     16  C   UNL     1       0.046  -0.711  -1.213  0.00  0.00    +0.003 A 
ATOM     17  C   UNL     1       0.068  -2.094  -1.218  0.00  0.00    +0.002 A 
ATOM     18  C   UNL     1       0.070  -2.792  -0.029  0.00  0.00    +0.026 A 
ATOM     19  C   UNL     1       0.048  -2.099   1.184  0.00  0.00    +0.042 A 
ATOM     20  C   UNL     1       0.031  -0.702   1.182  0.00  0.00    +0.029 A 
ENDBRANCH   1  19
BRANCH   3  21
ATOM     21  C   UNL     1       0.574  -4.764   4.528  0.00  0.00    +0.249 C 
ATOM     22  O   UNL     1       1.543  -4.093   4.228  0.00  0.00    -0.270 OA
ATOM     23  N   UNL     1       0.637  -5.606   5.578  0.00  0.00    -0.309 N 
ATOM     24  H   UNL     1      -0.109  -6.195   5.773  0.00  0.00    +0.149 HD
BRANCH  23  25
ATOM     25  C   UNL     1       1.832  -5.633   6.426  0.00  0.00    +0.136 C 
BRANCH  25  26
ATOM     26  C   UNL     1       1.646  -6.668   7.537  0.00  0.00    +0.135 C 
ATOM     27  C   UNL     1       2.886  -6.687   8.466  0.00  0.00    +0.035 C 
ATOM     28  C   UNL     1       2.263  -7.241   9.777  0.00  0.00    +0.031 C 
ATOM     29  C   UNL     1       0.842  -6.639   9.744  0.00  0.00    +0.160 C 
ATOM     30  O   UNL     1       0.546  -6.299   8.383  0.00  0.00    -0.375 OA
ENDBRANCH  25  26
ENDBRANCH  23  25
ENDBRANCH   3  21
TORSDOF 4
