REMARK  Name = ZINC43516438
REMARK  5 active torsions:
REMARK  status: ('A' for Active; 'I' for Inactive)
REMARK    1  A    between atoms: C_1  and  C_2
REMARK    2  A    between atoms: C_2  and  C_4
REMARK    3  A    between atoms: C_2  and  N_8
REMARK    4  A    between atoms: N_5  and  O_6
REMARK    5  A    between atoms: C_11  and  C_13
REMARK                            x       y       z     vdW  Elec       q    Type
REMARK                         _______ _______ _______ _____ _____    ______ ____
ROOT
ATOM      1  C   UNL     1      -0.019   1.526   0.010  0.00  0.00    +0.041 C 
ATOM      2  C   UNL     1       0.002  -0.004   0.002  0.00  0.00    +0.170 C 
ENDROOT
BRANCH   2   3
ATOM      3  C   UNL     1       0.707  -0.490  -1.238  0.00  0.00    +0.156 C 
ATOM      4  N   UNL     1       1.575   0.266  -1.826  0.00  0.00    -0.075 NA
ATOM      5  N   UNL     1       0.428  -1.740  -1.744  0.00  0.00    -0.342 N 
ATOM      6  H   UNL     1      -0.224  -2.307  -1.303  0.00  0.00    +0.144 HD
ATOM      7  H   UNL     1       0.882  -2.053  -2.542  0.00  0.00    +0.144 HD
BRANCH   4   8
ATOM      8  O   UNL     1       2.237  -0.191  -2.991  0.00  0.00    -0.408 OA
ATOM      9  H   UNL     1       2.868   0.443  -3.359  0.00  0.00    +0.328 HD
ENDBRANCH   4   8
ENDBRANCH   2   3
BRANCH   2  10
ATOM     10  N   UNL     1       0.711  -0.489   1.189  0.00  0.00    -0.261 N 
ATOM     11  C   UNL     1       1.770   0.103   1.778  0.00  0.00    +0.109 A 
ATOM     12  C   UNL     1       2.129  -0.656   2.840  0.00  0.00    +0.053 A 
ATOM     13  C   UNL     1       1.258  -1.749   2.902  0.00  0.00    +0.165 A 
ATOM     14  N   UNL     1       0.404  -1.647   1.916  0.00  0.00    -0.167 NA
BRANCH  13  15
ATOM     15  C   UNL     1       1.294  -2.850   3.930  0.00  0.00    +0.436 C 
ATOM     16  F   UNL     1       0.489  -2.498   5.018  0.00  0.00    -0.164 F 
ATOM     17  F   UNL     1       0.816  -4.035   3.361  0.00  0.00    -0.164 F 
ATOM     18  F   UNL     1       2.610  -3.039   4.365  0.00  0.00    -0.164 F 
ENDBRANCH  13  15
ENDBRANCH   2  10
TORSDOF 4
