REMARK  Name = ZINC13409304
REMARK  10 active torsions:
REMARK  status: ('A' for Active; 'I' for Inactive)
REMARK    1  A    between atoms: C_1  and  C_2
REMARK    2  A    between atoms: C_2  and  C_4
REMARK    3  A    between atoms: C_2  and  C_10
REMARK    4  A    between atoms: C_4  and  C_5
REMARK    5  A    between atoms: C_5  and  C_6
REMARK    6  A    between atoms: C_6  and  O_8
REMARK    7  A    between atoms: O_8  and  C_9
REMARK    8  A    between atoms: C_16  and  C_38
REMARK    9  A    between atoms: C_27  and  C_37
REMARK   10  A    between atoms: N_31  and  N_32
REMARK                            x       y       z     vdW  Elec       q    Type
REMARK                         _______ _______ _______ _____ _____    ______ ____
ROOT
ATOM      1  C   UNL     1      -9.138  -2.985  -1.120  0.00  0.00    -0.002 C 
ATOM      2  C   UNL     1      -9.833  -1.794  -1.753  0.00  0.00    +0.004 C 
ATOM      3  C   UNL     1      -8.924  -0.494  -1.464  0.00  0.00    +0.004 C 
ATOM      4  C   UNL     1      -7.626  -1.168  -0.977  0.00  0.00    -0.001 C 
ATOM      5  C   UNL     1      -8.116  -2.394  -0.137  0.00  0.00    -0.026 C 
ATOM      6  C   UNL     1      -6.935  -3.234   0.186  0.00  0.00    +0.007 C 
ATOM      7  C   UNL     1      -5.707  -2.426   0.469  0.00  0.00    +0.005 C 
ATOM      8  C   UNL     1      -5.969  -1.006   0.827  0.00  0.00    -0.001 C 
ATOM      9  C   UNL     1      -6.674  -0.288  -0.332  0.00  0.00    -0.004 C 
ATOM     10  C   UNL     1      -7.206   1.044   0.233  0.00  0.00    +0.004 C 
ATOM     11  C   UNL     1      -5.970   1.930   0.394  0.00  0.00    +0.005 C 
ATOM     12  C   UNL     1      -4.731   1.290   1.010  0.00  0.00    +0.001 C 
ATOM     13  C   UNL     1      -4.716  -0.227   1.315  0.00  0.00    -0.025 C 
ATOM     14  C   UNL     1      -3.486  -0.982   1.285  0.00  0.00    +0.013 C 
ATOM     15  C   UNL     1      -2.312  -0.503   0.464  0.00  0.00    +0.053 C 
ATOM     16  C   UNL     1      -2.316   1.025   0.458  0.00  0.00    +0.037 C 
ATOM     17  N   UNL     1      -1.216   1.658   0.619  0.00  0.00    -0.188 NA
ATOM     18  C   UNL     1      -3.528   1.763   0.279  0.00  0.00    +0.056 C 
ATOM     19  C   UNL     1      -4.997  -0.212   2.825  0.00  0.00    +0.012 C 
ATOM     20  C   UNL     1      -8.871  -1.974   1.125  0.00  0.00    +0.012 C 
ENDROOT
BRANCH  17  21
ATOM     21  N   UNL     1      -0.004   0.957   0.661  0.00  0.00    -0.191 N 
ATOM     22  C   UNL     1       1.161   1.629   0.749  0.00  0.00    +0.317 C 
ATOM     23  O   UNL     1       2.213   1.020   0.781  0.00  0.00    -0.251 OA
ATOM     24  N   UNL     1       1.159   2.975   0.802  0.00  0.00    -0.312 N 
ATOM     25  H   UNL     1      -0.003  -0.013   0.624  0.00  0.00    +0.179 HD
ATOM     26  H   UNL     1       0.320   3.461   0.776  0.00  0.00    +0.147 HD
ATOM     27  H   UNL     1       1.997   3.459   0.865  0.00  0.00    +0.147 HD
ENDBRANCH  17  21
BRANCH   1  29
ATOM     28  C   UNL     1     -11.249  -4.304  -1.305  0.00  0.00    +0.008 C 
ATOM     29  C   UNL     1     -10.144  -3.840  -0.353  0.00  0.00    -0.010 C 
BRANCH  29  30
ATOM     30  C   UNL     1      -9.432  -5.060   0.235  0.00  0.00    +0.014 C 
BRANCH  30  31
ATOM     31  C   UNL     1     -10.415  -5.861   1.091  0.00  0.00    +0.121 C 
BRANCH  31  32
ATOM     32  C   UNL     1      -9.714  -7.062   1.670  0.00  0.00    +0.307 C 
ATOM     33  O   UNL     1      -8.548  -7.258   1.424  0.00  0.00    -0.251 OA
BRANCH  32  34
ATOM     34  O   UNL     1     -10.386  -7.915   2.460  0.00  0.00    -0.468 OA
ATOM     35  C   UNL     1      -9.647  -9.050   2.983  0.00  0.00    +0.280 C 
ENDBRANCH  32  34
ENDBRANCH  31  32
ENDBRANCH  30  31
ENDBRANCH  29  30
ENDBRANCH   1  29
TORSDOF 6
