REMARK  Name = ZINC04189027
REMARK  6 active torsions:
REMARK  status: ('A' for Active; 'I' for Inactive)
REMARK    1  A    between atoms: C_1  and  C_2
REMARK    2  A    between atoms: C_7  and  C_8
REMARK    3  A    between atoms: C_13  and  C_23
REMARK    4  A    between atoms: C_15  and  C_19
REMARK    5  A    between atoms: C_19  and  O_21
REMARK    6  A    between atoms: O_21  and  C_22
REMARK                            x       y       z     vdW  Elec       q    Type
REMARK                         _______ _______ _______ _____ _____    ______ ____
ROOT
ATOM      1  C   UNL     1      -0.262   4.967   4.230  0.00  0.00    +0.136 C 
ATOM      2  C   UNL     1      -0.454   3.475   4.104  0.00  0.00    +0.037 C 
ATOM      3  C   UNL     1       0.395   2.530   4.544  0.00  0.00    +0.017 C 
ATOM      4  C   UNL     1       0.078   1.057   4.347  0.00  0.00    +0.055 C 
ATOM      5  C   UNL     1      -1.433   0.838   4.401  0.00  0.00    +0.013 C 
ATOM      6  C   UNL     1      -2.066   1.673   3.282  0.00  0.00    +0.171 C 
ATOM      7  C   UNL     1      -1.663   3.105   3.469  0.00  0.00    +0.177 C 
ATOM      8  O   UNL     1      -2.401   3.980   3.059  0.00  0.00    -0.291 OA
ATOM      9  C   UNL     1      -1.975   1.293   5.758  0.00  0.00    +0.009 C 
ATOM     10  N   UNL     1       1.574   2.781   5.168  0.00  0.00    -0.316 N 
ATOM     11  C   UNL     1       1.749   3.693   6.203  0.00  0.00    +0.052 A 
ATOM     12  C   UNL     1       2.168   3.308   7.465  0.00  0.00    +0.025 A 
ATOM     13  C   UNL     1       2.433   4.278   8.417  0.00  0.00    +0.002 A 
ATOM     14  C   UNL     1       2.279   5.618   8.109  0.00  0.00    +0.002 A 
ATOM     15  C   UNL     1       1.838   6.003   6.855  0.00  0.00    +0.025 A 
ATOM     16  C   UNL     1       1.556   5.034   5.906  0.00  0.00    +0.049 A 
ATOM     17  N   UNL     1       1.065   5.369   4.645  0.00  0.00    -0.331 N 
ATOM     18  H   UNL     1       2.353   2.286   4.869  0.00  0.00    +0.152 HD
ATOM     19  H   UNL     1       1.622   5.880   4.037  0.00  0.00    +0.147 HD
ENDROOT
BRANCH   1  26
ATOM     20  C   UNL     1      -2.267   6.881   3.415  0.00  0.00    +0.044 C 
ATOM     21  C   UNL     1      -2.213   6.409   4.845  0.00  0.00    -0.045 A 
ATOM     22  C   UNL     1      -3.125   6.888   5.767  0.00  0.00    +0.004 A 
ATOM     23  C   UNL     1      -3.072   6.460   7.080  0.00  0.00    +0.000 A 
ATOM     24  C   UNL     1      -2.109   5.548   7.471  0.00  0.00    +0.000 A 
ATOM     25  C   UNL     1      -1.200   5.065   6.548  0.00  0.00    +0.006 A 
ATOM     26  C   UNL     1      -1.253   5.494   5.235  0.00  0.00    -0.020 A 
ENDBRANCH   1  26
BRANCH   6  27
ATOM     27  C   UNL     1      -1.577   1.180   1.944  0.00  0.00    +0.318 C 
ATOM     28  O   UNL     1      -0.802   0.255   1.888  0.00  0.00    -0.250 OA
BRANCH  27  29
ATOM     29  O   UNL     1      -2.004   1.768   0.816  0.00  0.00    -0.467 OA
ATOM     30  C   UNL     1      -1.492   1.241  -0.436  0.00  0.00    +0.280 C 
ENDBRANCH  27  29
ENDBRANCH   6  27
TORSDOF 3
