REMARK  Name = ZINC39266929
REMARK  7 active torsions:
REMARK  status: ('A' for Active; 'I' for Inactive)
REMARK    1  A    between atoms: C_1  and  C_2
REMARK    2  A    between atoms: C_9  and  C_10
REMARK    3  A    between atoms: C_9  and  C_11
REMARK    4  A    between atoms: C_13  and  N_15
REMARK    5  A    between atoms: C_16  and  C_18
REMARK    6  A    between atoms: N_23  and  C_25
REMARK    7  A    between atoms: C_25  and  C_26
REMARK                            x       y       z     vdW  Elec       q    Type
REMARK                         _______ _______ _______ _____ _____    ______ ____
ROOT
ATOM      1  N   UNL     1       0.141   0.085   2.457  0.00  0.00    -0.312 N 
ATOM      2  C   UNL     1       0.688  -0.160   3.665  0.00  0.00    +0.218 C 
ATOM      3  O   UNL     1       1.596  -0.957   3.769  0.00  0.00    -0.275 OA
ATOM      4  H   UNL     1      -0.585   0.722   2.374  0.00  0.00    +0.149 HD
ENDROOT
BRANCH   1  14
ATOM      5  C   UNL     1      -0.139   1.428   0.044  0.00  0.00    +0.009 C 
ATOM      6  C   UNL     1      -0.089  -0.101   0.023  0.00  0.00    +0.010 C 
ATOM      7  C   UNL     1      -1.520  -0.668   0.041  0.00  0.00    -0.000 C 
ATOM      8  C   UNL     1      -1.931  -1.076   1.471  0.00  0.00    +0.008 C 
ATOM      9  C   UNL     1      -1.124  -2.365   1.207  0.00  0.00    -0.003 C 
ATOM     10  C   UNL     1      -1.527  -2.173  -0.286  0.00  0.00    -0.029 C 
ATOM     11  C   UNL     1      -2.912  -2.725  -0.626  0.00  0.00    +0.011 C 
ATOM     12  C   UNL     1      -0.451  -2.592  -1.290  0.00  0.00    +0.011 C 
ATOM     13  C   UNL     1       0.380  -2.123   1.423  0.00  0.00    +0.026 C 
ATOM     14  C   UNL     1       0.644  -0.613   1.271  0.00  0.00    +0.076 C 
ENDBRANCH   1  14
BRANCH   2  15
ATOM     15  C   UNL     1       0.171   0.557   4.885  0.00  0.00    +0.101 C 
ATOM     16  C   UNL     1      -1.296   0.165   5.177  0.00  0.00    +0.110 C 
ATOM     17  C   UNL     1      -1.373   0.115   6.687  0.00  0.00    +0.217 C 
ATOM     18  O   UNL     1      -2.401   0.119   7.331  0.00  0.00    -0.276 OA
ATOM     19  N   UNL     1      -0.137   0.065   7.212  0.00  0.00    -0.296 N 
ATOM     20  C   UNL     1       0.889   0.066   6.161  0.00  0.00    +0.121 C 
BRANCH  19  21
ATOM     21  C   UNL     1       0.151   0.017   8.647  0.00  0.00    +0.150 C 
BRANCH  21  22
ATOM     22  C   UNL     1       0.210  -1.420   9.100  0.00  0.00    +0.007 A 
ATOM     23  C   UNL     1       1.276  -2.255   9.154  0.00  0.00    +0.013 A 
ATOM     24  C   UNL     1       1.093  -3.547   9.610  0.00  0.00    +0.008 A 
ATOM     25  C   UNL     1      -0.147  -3.941   9.989  0.00  0.00    +0.045 A 
ATOM     26  S   UNL     1      -1.105  -2.460   9.712  0.00  0.00    -0.100 S 
ENDBRANCH  21  22
ENDBRANCH  19  21
ENDBRANCH   2  15
TORSDOF 4
