REMARK  Name = ZINC14755811
REMARK  5 active torsions:
REMARK  status: ('A' for Active; 'I' for Inactive)
REMARK    1  A    between atoms: C_2  and  C_3
REMARK    2  A    between atoms: C_3  and  N_4
REMARK    3  A    between atoms: C_7  and  C_9
REMARK    4  A    between atoms: C_18  and  N_63
REMARK    5  A    between atoms: C_22  and  N_63
REMARK                            x       y       z     vdW  Elec       q    Type
REMARK                         _______ _______ _______ _____ _____    ______ ____
ROOT
ATOM      1  N   UNL     1       2.314   1.554   1.056  0.00  0.00    -0.264 N 
ATOM      2  C   UNL     1       2.986   0.392   1.079  0.00  0.00    +0.043 A 
ATOM      3  C   UNL     1       3.441   0.215   2.344  0.00  0.00    +0.004 A 
ATOM      4  C   UNL     1       3.005   1.337   3.070  0.00  0.00    +0.151 A 
ATOM      5  N   UNL     1       2.337   2.100   2.223  0.00  0.00    -0.166 NA
ATOM      6  C   UNL     1       4.243  -0.969   2.806  0.00  0.00    +0.023 C 
ATOM      7  C   UNL     1       4.102  -2.084   1.761  0.00  0.00    -0.067 C 
ATOM      8  C   UNL     1       4.377  -1.516   0.366  0.00  0.00    -0.009 C 
ATOM      9  C   UNL     1       3.231  -0.582  -0.045  0.00  0.00    +0.054 C 
ENDROOT
BRANCH   4  10
ATOM     10  C   UNL     1       3.251   1.611   4.500  0.00  0.00    +0.267 C 
ATOM     11  O   UNL     1       3.984   0.884   5.142  0.00  0.00    -0.268 OA
ATOM     12  N   UNL     1       2.663   2.668   5.094  0.00  0.00    -0.296 N 
ATOM     13  C   UNL     1       1.663   3.470   4.376  0.00  0.00    +0.108 C 
ATOM     14  C   UNL     1       0.390   3.546   5.231  0.00  0.00    +0.019 C 
ATOM     15  C   UNL     1       0.746   4.083   6.620  0.00  0.00    +0.003 C 
ATOM     16  C   UNL     1       1.728   3.127   7.301  0.00  0.00    +0.019 C 
ATOM     17  C   UNL     1       3.013   3.044   6.471  0.00  0.00    +0.108 C 
ENDBRANCH   4  10
BRANCH   7  18
ATOM     18  N   UNL     1       5.075  -3.152   2.058  0.00  0.00    +0.383 N 
ATOM     19  H   UNL     1       5.183  -3.238   3.075  0.00  0.00    -0.085 HD
ATOM     20  H   UNL     1       5.980  -2.912   1.637  0.00  0.00    -0.085 HD
BRANCH  18  21
ATOM     21  C   UNL     1       4.608  -4.438   1.507  0.00  0.00    -0.071 C 
ATOM     22  C   UNL     1       3.601  -5.068   2.491  0.00  0.00    -0.016 C 
ATOM     23  C   UNL     1       2.768  -6.074   1.744  0.00  0.00    -0.002 C 
ATOM     24  C   UNL     1       3.333  -7.504   1.854  0.00  0.00    -0.000 C 
ATOM     25  C   UNL     1       4.867  -7.552   1.722  0.00  0.00    -0.000 C 
ATOM     26  C   UNL     1       5.381  -6.642   0.639  0.00  0.00    -0.002 C 
ATOM     27  C   UNL     1       5.765  -5.291   1.276  0.00  0.00    -0.016 C 
ENDBRANCH  18  21
ENDBRANCH   7  18
BRANCH   1  28
ATOM     28  C   UNL     1       1.657   2.122  -0.124  0.00  0.00    +0.170 C 
BRANCH  28  30
ATOM     29  C   UNL     1      -0.752   2.490  -0.268  0.00  0.00    +0.006 C 
ATOM     30  C   UNL     1       0.234   1.631  -0.192  0.00  0.00    -0.012 C 
ENDBRANCH  28  30
ENDBRANCH   1  28
TORSDOF 5
