REMARK  Name = ZINC20610301
REMARK  6 active torsions:
REMARK  status: ('A' for Active; 'I' for Inactive)
REMARK    1  A    between atoms: C_1  and  O_2
REMARK    2  A    between atoms: O_2  and  C_3
REMARK    3  A    between atoms: C_6  and  C_11
REMARK    4  A    between atoms: C_8  and  O_9
REMARK    5  A    between atoms: O_9  and  C_10
REMARK    6  A    between atoms: CA_15  and  C_17
REMARK                            x       y       z     vdW  Elec       q    Type
REMARK                         _______ _______ _______ _____ _____    ______ ____
ROOT
ATOM      1  C   UNL     1       3.663   2.166  -0.022  0.00  0.00    +0.071 A 
ATOM      2  C   UNL     1       4.779   1.656   0.665  0.00  0.00    +0.072 A 
ATOM      3  C   UNL     1       5.976   2.391   0.641  0.00  0.00    +0.012 A 
ATOM      4  C   UNL     1       6.013   3.595  -0.060  0.00  0.00    +0.043 A 
ATOM      5  CA  UNL     1       4.863   4.029  -0.713  0.00  0.00    +0.130 A 
ATOM      6  N   UNL     1       3.744   3.309  -0.678  0.00  0.00    -0.347 N 
ATOM      7  C   UNL     1       6.953   1.626   1.432  0.00  0.00    +0.008 A 
ATOM      8  C   UNL     1       8.289   1.830   1.771  0.00  0.00    +0.010 A 
ATOM      9  C   UNL     1       8.947   0.904   2.549  0.00  0.00    +0.001 A 
ATOM     10  C   UNL     1       8.286  -0.231   2.995  0.00  0.00    +0.002 A 
ATOM     11  C   UNL     1       6.966  -0.446   2.667  0.00  0.00    +0.026 A 
ATOM     12  C   UNL     1       6.282   0.478   1.882  0.00  0.00    +0.048 A 
ATOM     13  N   UNL     1       4.983   0.519   1.411  0.00  0.00    -0.353 N 
ATOM     14  H   UNL     1       4.162  -0.199   1.554  0.00  0.00    +0.166 HD
ATOM     15  H   UNL     1       2.869   3.695  -1.221  0.00  0.00    +0.166 HD
ENDROOT
BRANCH   1  19
ATOM     16  C   UNL     1       0.002  -0.004   0.002  0.00  0.00    +0.162 A 
ATOM     17  C   UNL     1       1.211  -0.683  -0.013  0.00  0.00    +0.050 A 
ATOM     18  C   UNL     1       2.399   0.018  -0.021  0.00  0.00    +0.014 A 
ATOM     19  C   UNL     1       2.387   1.412  -0.014  0.00  0.00    +0.004 A 
ATOM     20  C   UNL     1       1.172   2.096   0.002  0.00  0.00    +0.059 A 
ATOM     21  C   UNL     1      -0.017   1.389   0.010  0.00  0.00    +0.162 A 
BRANCH  16  23
ATOM     22  C   UNL     1      -1.074  -2.125   0.001  0.00  0.00    +0.277 C 
ATOM     23  O   UNL     1      -1.167  -0.699   0.009  0.00  0.00    -0.491 OA
ENDBRANCH  16  23
BRANCH  21  24
ATOM     24  O   UNL     1      -1.204   2.053   0.019  0.00  0.00    -0.491 OA
ATOM     25  C   UNL     1      -1.148   3.481   0.026  0.00  0.00    +0.277 C 
ENDBRANCH  21  24
ENDBRANCH   1  19
BRANCH   5  26
ATOM     26  C   UNL     1       4.886   5.303  -1.461  0.00  0.00    +0.402 C 
ATOM     27  O   UNL     1       5.905   5.964  -1.503  0.00  0.00    -0.239 OA
ATOM     28  OXT UNL     1       3.779   5.732  -2.096  0.00  0.00    -0.239 OA
ENDBRANCH   5  26
TORSDOF 4
