REMARK  Name = ZINC12754606
REMARK  8 active torsions:
REMARK  status: ('A' for Active; 'I' for Inactive)
REMARK    1  A    between atoms: C_1  and  C_2
REMARK    2  A    between atoms: C_5  and  C_8
REMARK    3  A    between atoms: C_12  and  C_13
REMARK    4  A    between atoms: N_15  and  N_16
REMARK    5  A    between atoms: N_16  and  S_17
REMARK    6  A    between atoms: S_17  and  C_20
REMARK    7  A    between atoms: C_23  and  C_29
REMARK    8  A    between atoms: C_24  and  N_26
REMARK                            x       y       z     vdW  Elec       q    Type
REMARK                         _______ _______ _______ _____ _____    ______ ____
ROOT
ATOM      1  C   UNL     1      -0.016  -0.479   0.575  0.00  0.00    +0.266 C 
ATOM      2  O   UNL     1      -1.038  -1.133   0.485  0.00  0.00    -0.268 OA
ATOM      3  N   UNL     1       1.181  -1.068   0.381  0.00  0.00    -0.227 N 
ATOM      4  H   UNL     1       1.996  -0.547   0.452  0.00  0.00    +0.171 HD
ENDROOT
BRANCH   1   9
ATOM      5  C   UNL     1      -1.210   1.745   1.123  0.00  0.00    +0.001 A 
ATOM      6  C   UNL     1      -0.976   3.078   1.410  0.00  0.00    +0.017 A 
ATOM      7  C   UNL     1       0.300   3.533   1.442  0.00  0.00    +0.046 A 
ATOM      8  S   UNL     1       1.242   2.124   1.080  0.00  0.00    -0.091 S 
ATOM      9  C   UNL     1      -0.086   0.948   0.893  0.00  0.00    +0.083 A 
BRANCH   5  14
ATOM     10  C   UNL     1      -6.545  -0.408   0.900  0.00  0.00    +0.044 C 
ATOM     11  C   UNL     1      -5.149   0.155   0.959  0.00  0.00    -0.050 A 
ATOM     12  C   UNL     1      -4.755   0.909   2.050  0.00  0.00    +0.004 A 
ATOM     13  C   UNL     1      -3.478   1.428   2.108  0.00  0.00    +0.009 A 
ATOM     14  C   UNL     1      -2.583   1.190   1.066  0.00  0.00    -0.017 A 
ATOM     15  C   UNL     1      -2.987   0.433  -0.033  0.00  0.00    +0.009 A 
ATOM     16  C   UNL     1      -4.266  -0.084  -0.079  0.00  0.00    +0.004 A 
ENDBRANCH   5  14
ENDBRANCH   1   9
BRANCH   3  17
ATOM     17  N   UNL     1       1.248  -2.434   0.076  0.00  0.00    -0.108 NA
ATOM     18  H   UNL     1       0.826  -3.083   0.661  0.00  0.00    +0.172 HD
BRANCH  17  19
ATOM     19  S   UNL     1       2.047  -2.941  -1.283  0.00  0.00    +0.074 S 
ATOM     20  O   UNL     1       2.064  -4.361  -1.238  0.00  0.00    -0.152 OA
ATOM     21  O   UNL     1       1.490  -2.220  -2.374  0.00  0.00    -0.152 OA
BRANCH  19  22
ATOM     22  C   UNL     1       3.721  -2.412  -1.131  0.00  0.00    +0.109 A 
ATOM     23  C   UNL     1       4.103  -1.178  -1.623  0.00  0.00    +0.029 A 
ATOM     24  C   UNL     1       5.415  -0.761  -1.499  0.00  0.00    +0.007 A 
ATOM     25  C   UNL     1       6.347  -1.583  -0.893  0.00  0.00    -0.020 A 
ATOM     26  C   UNL     1       5.966  -2.820  -0.407  0.00  0.00    +0.131 A 
ATOM     27  C   UNL     1       4.653  -3.234  -0.526  0.00  0.00    +0.061 A 
ATOM     28  C   UNL     1       7.779  -1.131  -0.763  0.00  0.00    +0.046 C 
BRANCH  26  29
ATOM     29  N   UNL     1       6.964  -3.700   0.241  0.00  0.00    +0.057 N 
ATOM     30  O   UNL     1       6.608  -4.736   0.773  0.00  0.00    -0.126 OA
ATOM     31  O   UNL     1       8.142  -3.388   0.243  0.00  0.00    -0.126 OA
ENDBRANCH  26  29
ENDBRANCH  19  22
ENDBRANCH  17  19
ENDBRANCH   3  17
TORSDOF 6
