REMARK  Name = ZINC08327848
REMARK  6 active torsions:
REMARK  status: ('A' for Active; 'I' for Inactive)
REMARK    1  A    between atoms: C_1  and  C_2
REMARK    2  A    between atoms: C_3  and  C_12
REMARK    3  A    between atoms: C_12  and  C_14
REMARK    4  A    between atoms: C_14  and  N_15
REMARK    5  A    between atoms: C_18  and  C_22
REMARK    6  A    between atoms: C_18  and  C_23
REMARK                            x       y       z     vdW  Elec       q    Type
REMARK                         _______ _______ _______ _____ _____    ______ ____
ROOT
ATOM      1  N   UNL     1      -1.239   8.715   0.284  0.00  0.00    -0.216 N 
ATOM      2  C   UNL     1      -1.791   9.091   1.455  0.00  0.00    +0.254 C 
ATOM      3  O   UNL     1      -1.462   8.738   2.567  0.00  0.00    -0.272 OA
ATOM      4  C   UNL     1      -2.909  10.048   1.091  0.00  0.00    +0.168 C 
ATOM      5  N   UNL     1      -2.852  10.105  -0.380  0.00  0.00    -0.279 N 
ATOM      6  C   UNL     1      -1.844   9.298  -0.757  0.00  0.00    +0.310 C 
ATOM      7  O   UNL     1      -1.520   9.117  -1.914  0.00  0.00    -0.252 OA
ATOM      8  C   UNL     1      -2.653  11.430   1.697  0.00  0.00    +0.050 C 
ATOM      9  H   UNL     1      -3.427  10.626  -0.962  0.00  0.00    +0.152 HD
ENDROOT
BRANCH   4  10
ATOM     10  C   UNL     1      -4.239   9.508   1.550  0.00  0.00    +0.138 A 
ATOM     11  C   UNL     1      -5.413   9.752   0.952  0.00  0.00    +0.056 A 
ATOM     12  C   UNL     1      -6.426   9.030   1.731  0.00  0.00    +0.020 A 
ATOM     13  C   UNL     1      -7.809   8.879   1.630  0.00  0.00    +0.011 A 
ATOM     14  C   UNL     1      -8.476   8.118   2.549  0.00  0.00    +0.001 A 
ATOM     15  C   UNL     1      -7.787   7.496   3.580  0.00  0.00    +0.004 A 
ATOM     16  C   UNL     1      -6.420   7.633   3.695  0.00  0.00    +0.047 A 
ATOM     17  C   UNL     1      -5.722   8.402   2.772  0.00  0.00    +0.135 A 
ATOM     18  O   UNL     1      -4.420   8.717   2.622  0.00  0.00    -0.457 OA
ENDBRANCH   4  10
BRANCH   1  19
ATOM     19  C   UNL     1      -0.113   7.785   0.167  0.00  0.00    +0.197 C 
BRANCH  19  20
ATOM     20  C   UNL     1      -0.634   6.376   0.050  0.00  0.00    +0.183 C 
ATOM     21  O   UNL     1      -1.828   6.176  -0.034  0.00  0.00    -0.290 OA
BRANCH  20  24
ATOM     22  C   UNL     1       0.503   5.033  -2.502  0.00  0.00    +0.064 C 
ATOM     23  C   UNL     1       0.798   4.660  -1.073  0.00  0.00    +0.024 A 
ATOM     24  C   UNL     1       0.270   5.285   0.037  0.00  0.00    +0.047 A 
ATOM     25  C   UNL     1       0.836   4.589   1.209  0.00  0.00    +0.010 A 
ATOM     26  C   UNL     1       0.696   4.742   2.586  0.00  0.00    +0.011 A 
ATOM     27  C   UNL     1       1.379   3.903   3.439  0.00  0.00    +0.001 A 
ATOM     28  C   UNL     1       2.209   2.914   2.931  0.00  0.00    +0.002 A 
ATOM     29  C   UNL     1       2.357   2.752   1.571  0.00  0.00    +0.026 A 
ATOM     30  C   UNL     1       1.672   3.587   0.693  0.00  0.00    +0.047 A 
ATOM     31  N   UNL     1       1.619   3.666  -0.684  0.00  0.00    -0.358 N 
ATOM     32  H   UNL     1       2.107   3.085  -1.289  0.00  0.00    +0.166 HD
ENDBRANCH  20  24
ENDBRANCH  19  20
ENDBRANCH   1  19
TORSDOF 4
