REMARK  Name = ZINC58246871
REMARK  7 active torsions:
REMARK  status: ('A' for Active; 'I' for Inactive)
REMARK    1  A    between atoms: C_1  and  C_2
REMARK    2  A    between atoms: C_3  and  C_12
REMARK    3  A    between atoms: C_5  and  C_7
REMARK    4  A    between atoms: N_14  and  C_15
REMARK    5  A    between atoms: C_15  and  C_16
REMARK    6  A    between atoms: C_15  and  C_17
REMARK    7  A    between atoms: C_20  and  N_23
REMARK                            x       y       z     vdW  Elec       q    Type
REMARK                         _______ _______ _______ _____ _____    ______ ____
ROOT
ATOM      1  C   UNL     1      -2.493  -0.545  -0.241  0.00  0.00    +0.266 C 
ATOM      2  O   UNL     1      -2.701   0.646  -0.112  0.00  0.00    -0.268 OA
ATOM      3  N   UNL     1      -3.521  -1.416  -0.202  0.00  0.00    -0.303 N 
ATOM      4  H   UNL     1      -3.355  -2.366  -0.304  0.00  0.00    +0.150 HD
ENDROOT
BRANCH   1   7
ATOM      5  C   UNL     1       0.085   1.225  -0.375  0.00  0.00    +0.089 C 
ATOM      6  C   UNL     1       0.011  -0.275  -0.499  0.00  0.00    +0.135 A 
ATOM      7  C   UNL     1      -1.117  -1.036  -0.439  0.00  0.00    +0.167 A 
ATOM      8  N   UNL     1      -0.740  -2.332  -0.596  0.00  0.00    -0.204 NA
ATOM      9  C   UNL     1       0.563  -2.368  -0.746  0.00  0.00    +0.235 A 
ATOM     10  O   UNL     1       1.044  -1.112  -0.695  0.00  0.00    -0.439 OA
BRANCH   9  11
ATOM     11  C   UNL     1       1.368  -3.583  -0.943  0.00  0.00    +0.074 A 
ATOM     12  C   UNL     1       2.735  -3.707  -1.102  0.00  0.00    +0.021 A 
ATOM     13  C   UNL     1       3.263  -4.965  -1.272  0.00  0.00    +0.008 A 
ATOM     14  C   UNL     1       2.432  -6.040  -1.279  0.00  0.00    +0.046 A 
ATOM     15  S   UNL     1       0.833  -5.284  -1.031  0.00  0.00    -0.092 S 
ENDBRANCH   9  11
ENDBRANCH   1   7
BRANCH   3  16
ATOM     16  C   UNL     1      -4.888  -0.928  -0.004  0.00  0.00    +0.100 C 
ATOM     17  C   UNL     1      -5.481  -0.514  -1.353  0.00  0.00    +0.033 C 
BRANCH  16  18
ATOM     18  C   UNL     1      -5.729  -2.022   0.600  0.00  0.00    -0.027 A 
ATOM     19  C   UNL     1      -5.573  -3.328   0.175  0.00  0.00    +0.007 A 
ATOM     20  C   UNL     1      -6.342  -4.333   0.727  0.00  0.00    +0.023 A 
ATOM     21  C   UNL     1      -7.275  -4.031   1.711  0.00  0.00    +0.035 A 
ATOM     22  C   UNL     1      -7.430  -2.718   2.136  0.00  0.00    +0.023 A 
ATOM     23  C   UNL     1      -6.653  -1.718   1.584  0.00  0.00    +0.007 A 
BRANCH  21  24
ATOM     24  N   UNL     1      -8.057  -5.047   2.272  0.00  0.00    -0.270 N 
ATOM     25  C   UNL     1      -7.547  -6.285   2.421  0.00  0.00    +0.301 C 
ATOM     26  O   UNL     1      -6.379  -6.497   2.158  0.00  0.00    -0.253 OA
ATOM     27  N   UNL     1      -8.331  -7.289   2.861  0.00  0.00    -0.313 N 
ATOM     28  H   UNL     1      -8.966  -4.859   2.554  0.00  0.00    +0.156 HD
ATOM     29  H   UNL     1      -9.263  -7.120   3.070  0.00  0.00    +0.146 HD
ATOM     30  H   UNL     1      -7.964  -8.180   2.968  0.00  0.00    +0.146 HD
ENDBRANCH  21  24
ENDBRANCH  16  18
ENDBRANCH   3  16
TORSDOF 5
