REMARK  Name = ZINC62523099
REMARK  6 active torsions:
REMARK  status: ('A' for Active; 'I' for Inactive)
REMARK    1  A    between atoms: C_1  and  N_2
REMARK    2  A    between atoms: C_4  and  C_7
REMARK    3  A    between atoms: C_8  and  C_9
REMARK    4  A    between atoms: N_11  and  C_12
REMARK    5  A    between atoms: C_15  and  N_18
REMARK    6  A    between atoms: N_21  and  C_22
REMARK                            x       y       z     vdW  Elec       q    Type
REMARK                         _______ _______ _______ _____ _____    ______ ____
ROOT
ATOM      1  C   UNL     1       0.006  -8.071  -1.989  0.00  0.00    +0.034 A 
ATOM      2  C   UNL     1      -0.003  -7.992  -3.376  0.00  0.00    +0.025 A 
ATOM      3  C   UNL     1      -0.082  -9.145  -4.132  0.00  0.00    +0.025 A 
ATOM      4  C   UNL     1      -0.153 -10.382  -3.506  0.00  0.00    +0.035 A 
ATOM      5  C   UNL     1      -0.144 -10.461  -2.119  0.00  0.00    +0.025 A 
ATOM      6  C   UNL     1      -0.060  -9.309  -1.363  0.00  0.00    +0.025 A 
ENDROOT
BRANCH   4   7
ATOM      7  N   UNL     1      -0.233 -11.552  -4.273  0.00  0.00    -0.269 N 
ATOM      8  C   UNL     1      -0.967 -12.595  -3.837  0.00  0.00    +0.308 C 
ATOM      9  O   UNL     1      -1.489 -12.554  -2.740  0.00  0.00    -0.252 OA
ATOM     10  N   UNL     1      -1.120 -13.684  -4.616  0.00  0.00    -0.269 N 
ATOM     11  H   UNL     1       0.238 -11.611  -5.119  0.00  0.00    +0.156 HD
ATOM     12  H   UNL     1      -0.641 -13.750  -5.457  0.00  0.00    +0.156 HD
BRANCH  10  13
ATOM     13  C   UNL     1      -1.972 -14.719  -4.213  0.00  0.00    +0.035 A 
ATOM     14  C   UNL     1      -3.137 -14.429  -3.515  0.00  0.00    +0.025 A 
ATOM     15  C   UNL     1      -3.975 -15.452  -3.118  0.00  0.00    +0.022 A 
ATOM     16  C   UNL     1      -3.655 -16.765  -3.414  0.00  0.00    +0.041 A 
ATOM     17  C   UNL     1      -2.495 -17.057  -4.109  0.00  0.00    +0.022 A 
ATOM     18  C   UNL     1      -1.656 -16.037  -4.514  0.00  0.00    +0.025 A 
ATOM     19 CL   UNL     1      -4.710 -18.049  -2.913  0.00  0.00    -0.084 Cl
ENDBRANCH  10  13
ENDBRANCH   4   7
BRANCH   1  22
ATOM     20  C   UNL     1      -0.524  -5.777  -1.643  0.00  0.00    +0.241 C 
ATOM     21  O   UNL     1      -1.074  -5.752  -2.729  0.00  0.00    -0.270 OA
ATOM     22  N   UNL     1       0.087  -6.902  -1.222  0.00  0.00    -0.282 N 
ATOM     23  H   UNL     1       0.582  -6.903  -0.388  0.00  0.00    +0.155 HD
BRANCH  20  25
ATOM     24  C   UNL     1      -1.137  -3.494  -1.243  0.00  0.00    +0.016 C 
ATOM     25  C   UNL     1      -0.525  -4.622  -0.821  0.00  0.00    +0.068 C 
BRANCH  24  29
ATOM     26  C   UNL     1      -1.936   1.133   0.462  0.00  0.00    +0.172 C 
ATOM     27  N   UNL     1      -1.493  -0.260   0.354  0.00  0.00    -0.274 N 
ATOM     28  C   UNL     1      -1.721  -1.077  -0.688  0.00  0.00    +0.116 A 
ATOM     29  C   UNL     1      -1.139  -2.296  -0.391  0.00  0.00    +0.013 A 
ATOM     30  C   UNL     1      -0.546  -2.174   0.888  0.00  0.00    +0.142 A 
ATOM     31  N   UNL     1      -0.758  -0.960   1.317  0.00  0.00    -0.179 NA
ENDBRANCH  24  29
ENDBRANCH  20  25
ENDBRANCH   1  22
TORSDOF 5
