REMARK  Name = ZINC18249707
REMARK  5 active torsions:
REMARK  status: ('A' for Active; 'I' for Inactive)
REMARK    1  A    between atoms: C_3  and  C_9
REMARK    2  A    between atoms: C_9  and  C_10
REMARK    3  A    between atoms: N_11  and  O_12
REMARK    4  A    between atoms: O_12  and  C_13
REMARK    5  A    between atoms: C_13  and  C_15
REMARK                            x       y       z     vdW  Elec       q    Type
REMARK                         _______ _______ _______ _____ _____    ______ ____
ROOT
ATOM      1  C   UNL     1       4.243   2.224   1.371  0.00  0.00    +0.137 C 
ATOM      2  N   UNL     1       3.619   1.642   2.342  0.00  0.00    -0.063 NA
ATOM      3  N   UNL     1       5.430   2.878   1.610  0.00  0.00    -0.344 N 
ATOM      4  H   UNL     1       5.898   3.315   0.881  0.00  0.00    +0.144 HD
ATOM      5  H   UNL     1       5.798   2.903   2.507  0.00  0.00    +0.144 HD
ENDROOT
BRANCH   1   6
ATOM      6  C   UNL     1       3.671   2.185  -0.023  0.00  0.00    +0.111 C 
BRANCH   6   9
ATOM      7  C   UNL     1      -0.017   1.379   0.010  0.00  0.00    +0.020 A 
ATOM      8  C   UNL     1       1.171   2.087   0.002  0.00  0.00    +0.007 A 
ATOM      9  C   UNL     1       2.377   1.413  -0.013  0.00  0.00    -0.022 A 
ATOM     10  C   UNL     1       2.397   0.029  -0.021  0.00  0.00    +0.046 A 
ATOM     11  C   UNL     1       1.210  -0.679  -0.013  0.00  0.00    +0.040 A 
ATOM     12  C   UNL     1       0.002  -0.004   0.002  0.00  0.00    +0.042 A 
ATOM     13 CL   UNL     1      -1.489  -0.893   0.012  0.00  0.00    -0.083 Cl
ATOM     14 CL   UNL     1       3.913  -0.817  -0.041  0.00  0.00    -0.083 Cl
ENDBRANCH   6   9
ENDBRANCH   1   6
BRANCH   2  15
ATOM     15  O   UNL     1       4.157   1.678   3.652  0.00  0.00    -0.307 OA
BRANCH  15  16
ATOM     16  C   UNL     1       3.408   1.034   4.569  0.00  0.00    +0.401 C 
ATOM     17  O   UNL     1       2.373   0.489   4.236  0.00  0.00    -0.239 OA
BRANCH  16  18
ATOM     18  C   UNL     1       3.842   0.989   5.967  0.00  0.00    +0.215 A 
ATOM     19  C   UNL     1       3.185   0.369   6.992  0.00  0.00    +0.058 A 
ATOM     20  C   UNL     1       3.951   0.578   8.148  0.00  0.00    +0.058 A 
ATOM     21  C   UNL     1       5.032   1.307   7.783  0.00  0.00    +0.171 A 
ATOM     22  O   UNL     1       4.964   1.548   6.467  0.00  0.00    -0.442 OA
ATOM     23 BR   UNL     1       6.412   1.885   8.939  0.00  0.00    -0.008 Br
ENDBRANCH  16  18
ENDBRANCH  15  16
ENDBRANCH   2  15
TORSDOF 5
