REMARK  Name = ZINC66132110
REMARK  8 active torsions:
REMARK  status: ('A' for Active; 'I' for Inactive)
REMARK    1  A    between atoms: C_1  and  C_2
REMARK    2  A    between atoms: C_2  and  C_3
REMARK    3  A    between atoms: C_2  and  C_4
REMARK    4  A    between atoms: C_4  and  O_5
REMARK    5  A    between atoms: O_5  and  C_6
REMARK    6  A    between atoms: C_9  and  C_12
REMARK    7  A    between atoms: N_23  and  C_24
REMARK    8  A    between atoms: C_24  and  C_25
REMARK                            x       y       z     vdW  Elec       q    Type
REMARK                         _______ _______ _______ _____ _____    ______ ____
ROOT
ATOM      1  C   UNL     1      -6.402  -4.579  -0.144  0.00  0.00    +0.193 C 
ATOM      2  N   UNL     1      -7.416  -3.688  -0.720  0.00  0.00    -0.321 N 
ATOM      3  C   UNL     1      -7.434  -3.506  -2.098  0.00  0.00    +0.041 A 
ATOM      4  C   UNL     1      -7.874  -2.328  -2.676  0.00  0.00    +0.024 A 
ATOM      5  C   UNL     1      -7.869  -2.198  -4.052  0.00  0.00    +0.002 A 
ATOM      6  C   UNL     1      -7.426  -3.237  -4.856  0.00  0.00    +0.001 A 
ATOM      7  C   UNL     1      -6.986  -4.418  -4.296  0.00  0.00    +0.015 A 
ATOM      8  C   UNL     1      -6.988  -4.564  -2.911  0.00  0.00    +0.058 A 
ATOM      9  C   UNL     1      -6.537  -5.807  -2.260  0.00  0.00    +0.250 C 
ATOM     10  O   UNL     1      -6.381  -6.821  -2.913  0.00  0.00    -0.270 OA
ATOM     11  N   UNL     1      -6.299  -5.805  -0.935  0.00  0.00    -0.272 N 
ATOM     12  H   UNL     1      -8.059  -3.236  -0.151  0.00  0.00    +0.148 HD
ENDROOT
BRANCH   1  16
ATOM     13  C   UNL     1      -2.620  -2.590  -0.120  0.00  0.00    +0.121 A 
ATOM     14  C   UNL     1      -3.792  -1.855  -0.015  0.00  0.00    +0.046 A 
ATOM     15  C   UNL     1      -5.013  -2.501  -0.023  0.00  0.00    +0.010 A 
ATOM     16  C   UNL     1      -5.068  -3.878  -0.135  0.00  0.00    -0.009 A 
ATOM     17  C   UNL     1      -3.901  -4.612  -0.240  0.00  0.00    +0.010 A 
ATOM     18  C   UNL     1      -2.678  -3.971  -0.238  0.00  0.00    +0.046 A 
BRANCH  13  19
ATOM     19  O   UNL     1      -1.417  -1.957  -0.112  0.00  0.00    -0.492 OA
BRANCH  19  20
ATOM     20  C   UNL     1      -1.433  -0.534   0.013  0.00  0.00    +0.232 C 
BRANCH  20  22
ATOM     21  C   UNL     1      -0.019   1.526   0.010  0.00  0.00    +0.010 C 
ATOM     22  C   UNL     1       0.002  -0.004   0.002  0.00  0.00    +0.020 C 
ATOM     23  C   UNL     1       0.742  -0.511   1.242  0.00  0.00    +0.010 C 
ENDBRANCH  20  22
ENDBRANCH  19  20
ENDBRANCH  13  19
ENDBRANCH   1  16
BRANCH  11  24
ATOM     24  C   UNL     1      -5.929  -7.059  -0.275  0.00  0.00    +0.141 C 
BRANCH  24  25
ATOM     25  C   UNL     1      -7.192  -7.774   0.207  0.00  0.00    +0.136 C 
ATOM     26  C   UNL     1      -6.807  -9.035   1.009  0.00  0.00    +0.035 C 
ATOM     27  C   UNL     1      -7.878 -10.060   0.548  0.00  0.00    +0.031 C 
ATOM     28  C   UNL     1      -8.080  -9.631  -0.927  0.00  0.00    +0.160 C 
ATOM     29  O   UNL     1      -7.971  -8.197  -0.919  0.00  0.00    -0.375 OA
ENDBRANCH  24  25
ENDBRANCH  11  24
TORSDOF 6
