REMARK  Name = ZINC09403845
REMARK  7 active torsions:
REMARK  status: ('A' for Active; 'I' for Inactive)
REMARK    1  A    between atoms: C_1  and  C_2
REMARK    2  A    between atoms: C_5  and  N_17
REMARK    3  A    between atoms: C_7  and  S_8
REMARK    4  A    between atoms: S_8  and  N_11
REMARK    5  A    between atoms: N_17  and  S_18
REMARK    6  A    between atoms: S_18  and  C_21
REMARK    7  A    between atoms: C_25  and  N_27
REMARK                            x       y       z     vdW  Elec       q    Type
REMARK                         _______ _______ _______ _____ _____    ______ ____
ROOT
ATOM      1  C   UNL     1       1.219  -3.823  -5.227  0.00  0.00    +0.046 C 
ATOM      2  C   UNL     1       0.345  -3.092  -4.240  0.00  0.00    -0.024 A 
ATOM      3  C   UNL     1       0.922  -2.320  -3.248  0.00  0.00    +0.007 A 
ATOM      4  C   UNL     1       0.125  -1.644  -2.346  0.00  0.00    +0.025 A 
ATOM      5  C   UNL     1      -1.258  -1.749  -2.428  0.00  0.00    +0.050 A 
ATOM      6  C   UNL     1      -1.834  -2.525  -3.426  0.00  0.00    +0.053 A 
ATOM      7  C   UNL     1      -1.031  -3.194  -4.329  0.00  0.00    +0.110 A 
ENDROOT
BRANCH   7   8
ATOM      8  S   UNL     1      -1.760  -4.179  -5.595  0.00  0.00    +0.061 S 
ATOM      9  O   UNL     1      -1.040  -5.403  -5.623  0.00  0.00    -0.153 OA
ATOM     10  O   UNL     1      -3.165  -4.126  -5.391  0.00  0.00    -0.153 OA
BRANCH   8  11
ATOM     11  N   UNL     1      -1.462  -3.421  -7.037  0.00  0.00    -0.177 NA
ATOM     12  C   UNL     1      -2.342  -2.345  -7.514  0.00  0.00    +0.109 C 
ATOM     13  C   UNL     1      -1.481  -1.113  -7.827  0.00  0.00    +0.017 C 
ATOM     14  C   UNL     1      -0.379  -1.505  -8.813  0.00  0.00    +0.003 C 
ATOM     15  C   UNL     1       0.519  -2.570  -8.180  0.00  0.00    +0.017 C 
ATOM     16  C   UNL     1      -0.316  -3.816  -7.868  0.00  0.00    +0.109 C 
ENDBRANCH   8  11
ENDBRANCH   7   8
BRANCH   5  17
ATOM     17  N   UNL     1      -2.068  -1.072  -1.514  0.00  0.00    -0.216 N 
ATOM     18  H   UNL     1      -2.176  -0.110  -1.581  0.00  0.00    +0.174 HD
BRANCH  17  19
ATOM     19  S   UNL     1      -2.843  -1.910  -0.314  0.00  0.00    +0.072 S 
ATOM     20  O   UNL     1      -3.482  -3.014  -0.939  0.00  0.00    -0.150 OA
ATOM     21  O   UNL     1      -3.557  -0.951   0.455  0.00  0.00    -0.150 OA
BRANCH  19  22
ATOM     22  C   UNL     1      -1.601  -2.578   0.741  0.00  0.00    +0.111 A 
ATOM     23  C   UNL     1      -1.152  -3.872   0.548  0.00  0.00    +0.030 A 
ATOM     24  C   UNL     1      -0.178  -4.396   1.376  0.00  0.00    +0.024 A 
ATOM     25  C   UNL     1       0.349  -3.626   2.398  0.00  0.00    +0.071 A 
ATOM     26  C   UNL     1      -0.099  -2.332   2.590  0.00  0.00    +0.146 A 
ATOM     27  C   UNL     1      -1.074  -1.808   1.762  0.00  0.00    +0.063 A 
ATOM     28 CL   UNL     1       1.573  -4.285   3.438  0.00  0.00    -0.081 Cl
BRANCH  26  29
ATOM     29  N   UNL     1       0.465  -1.508   3.682  0.00  0.00    +0.058 N 
ATOM     30  O   UNL     1       0.070  -0.368   3.851  0.00  0.00    -0.126 OA
ATOM     31  O   UNL     1       1.324  -1.969   4.412  0.00  0.00    -0.126 OA
ENDBRANCH  26  29
ENDBRANCH  19  22
ENDBRANCH  17  19
ENDBRANCH   5  17
TORSDOF 6
