REMARK  Name = ZINC42866222
REMARK  10 active torsions:
REMARK  status: ('A' for Active; 'I' for Inactive)
REMARK    1  A    between atoms: C_1  and  C_2
REMARK    2  A    between atoms: C_2  and  C_3
REMARK    3  A    between atoms: C_2  and  C_4
REMARK    4  A    between atoms: C_4  and  C_6
REMARK    5  A    between atoms: C_4  and  S_17
REMARK    6  A    between atoms: N_8  and  C_9
REMARK    7  A    between atoms: C_13  and  C_15
REMARK    8  A    between atoms: S_17  and  C_18
REMARK    9  A    between atoms: C_21  and  C_24
REMARK   10  A    between atoms: N_22  and  N_23
REMARK                            x       y       z     vdW  Elec       q    Type
REMARK                         _______ _______ _______ _____ _____    ______ ____
ROOT
ATOM      1  C   UNL     1      -1.407  -0.476   0.158  0.00  0.00    +0.143 C 
ENDROOT
BRANCH   1   2
ATOM      2  C   UNL     1      -1.370  -1.977   0.287  0.00  0.00    +0.231 C 
ATOM      3  O   UNL     1      -1.554  -2.675  -0.688  0.00  0.00    -0.274 OA
ATOM      4  N   UNL     1      -1.134  -2.544   1.487  0.00  0.00    -0.285 N 
ATOM      5  H   UNL     1      -0.920  -1.988   2.252  0.00  0.00    +0.155 HD
BRANCH   4   6
ATOM      6  C   UNL     1      -1.196  -3.935   1.627  0.00  0.00    +0.035 A 
ATOM      7  C   UNL     1      -1.685  -4.493   2.803  0.00  0.00    +0.023 A 
ATOM      8  C   UNL     1      -1.748  -5.867   2.948  0.00  0.00    +0.003 A 
ATOM      9  C   UNL     1      -1.329  -6.693   1.925  0.00  0.00    +0.019 A 
ATOM     10  C   UNL     1      -0.837  -6.142   0.740  0.00  0.00    +0.054 A 
ATOM     11  C   UNL     1      -0.777  -4.756   0.593  0.00  0.00    +0.042 A 
BRANCH  10  12
ATOM     12  C   UNL     1      -0.401  -6.997  -0.323  0.00  0.00    +0.099 C 
ATOM     13  N   UNL     1      -0.054  -7.676  -1.166  0.00  0.00    -0.191 NA
ENDBRANCH  10  12
ENDBRANCH   4   6
ENDBRANCH   1   2
BRANCH   1  15
ATOM     14  C   UNL     1      -0.020   1.580  -0.144  0.00  0.00    +0.009 C 
ATOM     15  C   UNL     1       0.015   0.054  -0.036  0.00  0.00    +0.005 C 
ATOM     16  C   UNL     1       0.878  -0.353   1.159  0.00  0.00    +0.009 C 
ENDBRANCH   1  15
BRANCH   1  17
ATOM     17  S   UNL     1      -2.424  -0.017  -1.273  0.00  0.00    -0.071 S 
BRANCH  17  18
ATOM     18  C   UNL     1      -4.062  -0.449  -0.788  0.00  0.00    +0.209 A 
ATOM     19  N   UNL     1      -4.434  -0.887   0.393  0.00  0.00    -0.121 NA
ATOM     20  N   UNL     1      -5.701  -1.105   0.405  0.00  0.00    -0.126 NA
ATOM     21  C   UNL     1      -6.217  -0.819  -0.770  0.00  0.00    +0.188 A 
ATOM     22  N   UNL     1      -5.182  -0.383  -1.569  0.00  0.00    -0.223 N 
BRANCH  21  23
ATOM     23  C   UNL     1      -7.632  -0.935  -1.157  0.00  0.00    +0.058 A 
ATOM     24  C   UNL     1      -8.738  -1.077  -0.357  0.00  0.00    +0.019 A 
ATOM     25  C   UNL     1      -9.976  -1.166  -0.952  0.00  0.00    +0.008 A 
ATOM     26  C   UNL     1     -10.066  -1.111  -2.306  0.00  0.00    +0.046 A 
ATOM     27  S   UNL     1      -8.358  -0.920  -2.788  0.00  0.00    -0.093 S 
ENDBRANCH  21  23
BRANCH  22  28
ATOM     28  N   UNL     1      -5.260   0.026  -2.870  0.00  0.00    -0.295 N 
ATOM     29  H   UNL     1      -5.132  -0.751  -3.501  0.00  0.00    +0.163 HD
ATOM     30  H   UNL     1      -6.133   0.498  -3.049  0.00  0.00    +0.163 HD
ENDBRANCH  22  28
ENDBRANCH  17  18
ENDBRANCH   1  17
TORSDOF 8
