REMARK  Name = ZINC55972021
REMARK  9 active torsions:
REMARK  status: ('A' for Active; 'I' for Inactive)
REMARK    1  A    between atoms: C_1  and  C_2
REMARK    2  A    between atoms: C_7  and  C_30
REMARK    3  A    between atoms: N_12  and  C_16
REMARK    4  A    between atoms: C_16  and  C_17
REMARK    5  A    between atoms: C_17  and  C_19
REMARK    6  A    between atoms: C_17  and  O_29
REMARK    7  A    between atoms: C_19  and  O_20
REMARK    8  A    between atoms: O_20  and  C_21
REMARK    9  A    between atoms: C_24  and  C_27
REMARK                            x       y       z     vdW  Elec       q    Type
REMARK                         _______ _______ _______ _____ _____    ______ ____
ROOT
ATOM      1  C   UNL     1      -0.019   1.526   0.010  0.00  0.00    +0.010 C 
ATOM      2  C   UNL     1       0.002  -0.004   0.002  0.00  0.00    +0.019 C 
ATOM      3  C   UNL     1       0.718  -0.498  -1.258  0.00  0.00    +0.006 C 
ATOM      4  C   UNL     1       2.160   0.015  -1.257  0.00  0.00    +0.001 C 
ATOM      5  C   UNL     1       2.892  -0.516  -0.024  0.00  0.00    +0.006 C 
ATOM      6  C   UNL     1       2.184  -0.023   1.241  0.00  0.00    +0.019 C 
ATOM      7  C   UNL     1       0.739  -0.509   1.238  0.00  0.00    +0.118 C 
ATOM      8  C   UNL     1       0.029  -0.062   2.495  0.00  0.00    +0.247 C 
ATOM      9  O   UNL     1      -0.169   1.076   2.861  0.00  0.00    -0.273 OA
ATOM     10  N   UNL     1      -0.337  -1.198   3.124  0.00  0.00    -0.222 N 
ATOM     11  C   UNL     1       0.041  -2.285   2.441  0.00  0.00    +0.309 C 
ATOM     12  O   UNL     1      -0.176  -3.423   2.807  0.00  0.00    -0.252 OA
ATOM     13  N   UNL     1       0.690  -1.975   1.302  0.00  0.00    -0.284 N 
ATOM     14  C   UNL     1       2.904  -0.570   2.475  0.00  0.00    +0.010 C 
ATOM     15  H   UNL     1       1.053  -2.598   0.653  0.00  0.00    +0.151 HD
ENDROOT
BRANCH  10  16
ATOM     16  C   UNL     1      -1.060  -1.237   4.398  0.00  0.00    +0.152 C 
BRANCH  16  17
ATOM     17  C   UNL     1      -2.566  -1.239   4.130  0.00  0.00    +0.170 C 
BRANCH  17  18
ATOM     18  O   UNL     1      -2.925  -0.055   3.415  0.00  0.00    -0.387 OA
ATOM     19  H   UNL     1      -2.720   0.765   3.884  0.00  0.00    +0.210 HD
ENDBRANCH  17  18
BRANCH  17  20
ATOM     20  C   UNL     1      -3.321  -1.280   5.460  0.00  0.00    +0.261 C 
BRANCH  20  21
ATOM     21  O   UNL     1      -4.723  -1.399   5.209  0.00  0.00    -0.489 OA
BRANCH  21  22
ATOM     22  C   UNL     1      -5.541  -1.449   6.292  0.00  0.00    +0.121 A 
ATOM     23  C   UNL     1      -5.002  -1.378   7.571  0.00  0.00    +0.047 A 
ATOM     24  C   UNL     1      -5.829  -1.427   8.671  0.00  0.00    +0.022 A 
ATOM     25  C   UNL     1      -7.210  -1.550   8.501  0.00  0.00    +0.052 A 
ATOM     26  C   UNL     1      -7.748  -1.621   7.212  0.00  0.00    +0.022 A 
ATOM     27  C   UNL     1      -6.915  -1.565   6.117  0.00  0.00    +0.047 A 
BRANCH  25  28
ATOM     28  C   UNL     1      -8.073  -1.602   9.642  0.00  0.00    +0.099 C 
ATOM     29  N   UNL     1      -8.758  -1.644  10.548  0.00  0.00    -0.191 NA
ENDBRANCH  25  28
ENDBRANCH  21  22
ENDBRANCH  20  21
ENDBRANCH  17  20
ENDBRANCH  16  17
ENDBRANCH  10  16
TORSDOF 7
