REMARK  Name = ZINC38705906
REMARK  15 active torsions:
REMARK  status: ('A' for Active; 'I' for Inactive)
REMARK    1  A    between atoms: C_1  and  C_2
REMARK    2  A    between atoms: C_2  and  C_3
REMARK    3  A    between atoms: C_3  and  C_4
REMARK    4  A    between atoms: C_4  and  O_5
REMARK    5  A    between atoms: O_5  and  C_6
REMARK    6  A    between atoms: C_9  and  C_15
REMARK    7  A    between atoms: C_11  and  O_12
REMARK    8  A    between atoms: O_12  and  C_13
REMARK    9  A    between atoms: C_13  and  C_14
REMARK   10  A    between atoms: C_18  and  C_32
REMARK   11  A    between atoms: N_25  and  C_26
REMARK   12  A    between atoms: C_26  and  C_27
REMARK   13  A    between atoms: C_33  and  C_40
REMARK   14  A    between atoms: C_35  and  C_39
REMARK   15  A    between atoms: C_37  and  O_38
REMARK                            x       y       z     vdW  Elec       q    Type
REMARK                         _______ _______ _______ _____ _____    ______ ____
ROOT
ATOM      1  C   UNL     1       1.702  -7.793   2.852  0.00  0.00    +0.142 C 
ATOM      2  C   UNL     1       0.575  -8.500   3.555  0.00  0.00    +0.035 A 
ATOM      3  C   UNL     1      -0.188  -8.635   4.719  0.00  0.00    +0.102 A 
ATOM      4  N   UNL     1      -1.079  -9.582   4.498  0.00  0.00    -0.173 NA
ATOM      5  N   UNL     1      -0.954 -10.057   3.310  0.00  0.00    -0.272 N 
ATOM      6  H   UNL     1      -1.503 -10.761   2.931  0.00  0.00    +0.189 HD
ATOM      7  C   UNL     1       0.067  -9.423   2.661  0.00  0.00    +0.126 A 
ATOM      8  C   UNL     1       0.830  -9.331   1.411  0.00  0.00    +0.266 C 
ATOM      9  O   UNL     1       0.629 -10.013   0.424  0.00  0.00    -0.268 OA
ATOM     10  N   UNL     1       1.784  -8.386   1.512  0.00  0.00    -0.278 N 
ENDROOT
BRANCH   3  11
ATOM     11  C   UNL     1      -0.025  -7.857   5.972  0.00  0.00    +0.047 A 
ATOM     12  C   UNL     1      -1.135  -7.286   6.590  0.00  0.00    -0.037 A 
ATOM     13  C   UNL     1      -0.979  -6.563   7.755  0.00  0.00    +0.007 A 
ATOM     14  C   UNL     1       0.278  -6.403   8.313  0.00  0.00    -0.047 A 
ATOM     15  C   UNL     1       1.385  -6.966   7.707  0.00  0.00    +0.049 A 
ATOM     16  C   UNL     1       1.242  -7.699   6.540  0.00  0.00    +0.127 A 
ATOM     17  C   UNL     1       0.439  -5.612   9.585  0.00  0.00    +0.044 C 
ATOM     18  C   UNL     1      -2.505  -7.457   5.986  0.00  0.00    +0.044 C 
BRANCH  16  19
ATOM     19  O   UNL     1       2.329  -8.258   5.948  0.00  0.00    -0.506 OA
ATOM     20  H   UNL     1       2.801  -7.662   5.351  0.00  0.00    +0.292 HD
ENDBRANCH  16  19
ENDBRANCH   3  11
BRANCH   1  24
ATOM     21  C   UNL     1       0.856  -3.611   2.557  0.00  0.00    +0.162 A 
ATOM     22  C   UNL     1       0.142  -4.521   1.793  0.00  0.00    +0.050 A 
ATOM     23  C   UNL     1       0.418  -5.872   1.891  0.00  0.00    +0.009 A 
ATOM     24  C   UNL     1       1.405  -6.319   2.749  0.00  0.00    -0.019 A 
ATOM     25  C   UNL     1       2.121  -5.416   3.514  0.00  0.00    +0.055 A 
ATOM     26  C   UNL     1       1.853  -4.060   3.417  0.00  0.00    +0.162 A 
BRANCH  21  27
ATOM     27  O   UNL     1       0.586  -2.282   2.462  0.00  0.00    -0.488 OA
BRANCH  27  28
ATOM     28  C   UNL     1      -0.452  -1.893   1.558  0.00  0.00    +0.229 C 
BRANCH  28  29
ATOM     29  C   UNL     1      -0.610  -0.372   1.587  0.00  0.00    +0.041 C 
BRANCH  29  31
ATOM     30  C   UNL     1      -1.879   1.565   0.649  0.00  0.00    +0.004 C 
ATOM     31  C   UNL     1      -1.721   0.044   0.621  0.00  0.00    -0.000 C 
ENDBRANCH  29  31
ENDBRANCH  28  29
ENDBRANCH  27  28
ENDBRANCH  21  27
BRANCH  26  32
ATOM     32  O   UNL     1       2.561  -3.170   4.164  0.00  0.00    -0.489 OA
BRANCH  32  33
ATOM     33  C   UNL     1       3.569  -3.703   5.024  0.00  0.00    +0.226 C 
ATOM     34  C   UNL     1       4.252  -2.560   5.778  0.00  0.00    +0.048 C 
ENDBRANCH  32  33
ENDBRANCH  26  32
ENDBRANCH   1  24
BRANCH  10  35
ATOM     35  C   UNL     1       2.739  -8.014   0.465  0.00  0.00    +0.183 C 
BRANCH  35  36
ATOM     36  C   UNL     1       3.980  -8.859   0.593  0.00  0.00    +0.122 A 
ATOM     37  C   UNL     1       4.191 -10.043  -0.010  0.00  0.00    +0.046 A 
ATOM     38  C   UNL     1       5.476 -10.480   0.385  0.00  0.00    +0.041 A 
ATOM     39  C   UNL     1       5.973  -9.538   1.206  0.00  0.00    +0.195 A 
ATOM     40  O   UNL     1       5.065  -8.556   1.323  0.00  0.00    -0.466 OA
ENDBRANCH  35  36
ENDBRANCH  10  35
TORSDOF 11
