REMARK  Name = ZINC08045655
REMARK  6 active torsions:
REMARK  status: ('A' for Active; 'I' for Inactive)
REMARK    1  A    between atoms: C_1  and  C_2
REMARK    2  A    between atoms: C_3  and  C_30
REMARK    3  A    between atoms: C_11  and  C_13
REMARK    4  A    between atoms: C_13  and  C_14
REMARK    5  A    between atoms: N_16  and  N_17
REMARK    6  A    between atoms: C_21  and  C_24
REMARK                            x       y       z     vdW  Elec       q    Type
REMARK                         _______ _______ _______ _____ _____    ______ ____
ROOT
ATOM      1  C   UNL     1       1.816   2.642  -5.740  0.00  0.00    +0.239 C 
ATOM      2  O   UNL     1       2.997   2.917  -5.699  0.00  0.00    -0.274 OA
ATOM      3  N   UNL     1       1.202   2.142  -4.649  0.00  0.00    -0.207 N 
ATOM      4  H   UNL     1       0.258   1.922  -4.682  0.00  0.00    +0.177 HD
ENDROOT
BRANCH   3   5
ATOM      5  N   UNL     1       1.927   1.940  -3.468  0.00  0.00    -0.189 NA
ATOM      6  C   UNL     1       1.325   1.563  -2.403  0.00  0.00    +0.037 C 
ATOM      7  C   UNL     1       2.104   1.198  -1.159  0.00  0.00    +0.053 C 
ATOM      8  C   UNL     1       1.523   1.978   0.025  0.00  0.00    +0.014 C 
ATOM      9  C   UNL     1       0.020   1.712   0.122  0.00  0.00    +0.020 C 
ATOM     10  C   UNL     1      -0.682   2.242  -1.130  0.00  0.00    +0.014 C 
ATOM     11  C   UNL     1      -0.184   1.472  -2.357  0.00  0.00    +0.053 C 
BRANCH   9  12
ATOM     12  C   UNL     1      -0.535   2.407   1.338  0.00  0.00    -0.044 A 
ATOM     13  C   UNL     1      -0.427   3.780   1.459  0.00  0.00    +0.004 A 
ATOM     14  C   UNL     1      -0.940   4.418   2.572  0.00  0.00    +0.000 A 
ATOM     15  C   UNL     1      -1.552   3.683   3.570  0.00  0.00    +0.000 A 
ATOM     16  C   UNL     1      -1.655   2.309   3.452  0.00  0.00    +0.000 A 
ATOM     17  C   UNL     1      -1.146   1.672   2.336  0.00  0.00    +0.004 A 
ENDBRANCH   9  12
ENDBRANCH   3   5
BRANCH   1  18
ATOM     18  C   UNL     1       1.036   2.859  -7.011  0.00  0.00    +0.171 C 
BRANCH  18  29
ATOM     19  C   UNL     1       4.322   5.357 -12.294  0.00  0.00    +0.045 C 
ATOM     20  C   UNL     1       4.644   4.980 -10.871  0.00  0.00    -0.026 A 
ATOM     21  C   UNL     1       5.890   5.131 -10.393  0.00  0.00    -0.008 A 
ATOM     22  S   UNL     1       5.759   4.559  -8.710  0.00  0.00    -0.073 S 
ATOM     23  C   UNL     1       4.037   4.133  -8.697  0.00  0.00    +0.116 A 
ATOM     24  C   UNL     1       3.612   4.448 -10.001  0.00  0.00    +0.075 A 
ATOM     25  C   UNL     1       2.228   4.199 -10.278  0.00  0.00    +0.260 A 
ATOM     26  O   UNL     1       1.765   4.440 -11.379  0.00  0.00    -0.267 OA
ATOM     27  N   UNL     1       1.450   3.690  -9.305  0.00  0.00    -0.310 N 
ATOM     28  H   UNL     1       0.486   3.506  -9.495  0.00  0.00    +0.170 HD
ATOM     29  C   UNL     1       1.948   3.422  -8.070  0.00  0.00    +0.120 A 
ATOM     30  N   UNL     1       3.204   3.638  -7.786  0.00  0.00    -0.226 NA
ATOM     31  C   UNL     1       7.107   5.658 -11.109  0.00  0.00    +0.052 C 
ENDBRANCH  18  29
ENDBRANCH   1  18
TORSDOF 4
