REMARK  Name = ZINC14627645
REMARK  7 active torsions:
REMARK  status: ('A' for Active; 'I' for Inactive)
REMARK    1  A    between atoms: C_1  and  C_2
REMARK    2  A    between atoms: N_5  and  S_11
REMARK    3  A    between atoms: C_7  and  C_10
REMARK    4  A    between atoms: S_11  and  C_14
REMARK    5  A    between atoms: C_17  and  N_20
REMARK    6  A    between atoms: C_21  and  C_23
REMARK    7  A    between atoms: C_26  and  N_30
REMARK                            x       y       z     vdW  Elec       q    Type
REMARK                         _______ _______ _______ _____ _____    ______ ____
ROOT
ATOM      1  C   UNL     1      -1.166  -3.412  -2.164  0.00  0.00    +0.106 A 
ATOM      2  C   UNL     1      -1.267  -2.728  -3.362  0.00  0.00    +0.030 A 
ATOM      3  C   UNL     1      -0.423  -3.039  -4.410  0.00  0.00    +0.025 A 
ATOM      4  C   UNL     1       0.529  -4.040  -4.259  0.00  0.00    +0.034 A 
ATOM      5  C   UNL     1       0.628  -4.724  -3.054  0.00  0.00    +0.025 A 
ATOM      6  C   UNL     1      -0.216  -4.404  -2.009  0.00  0.00    +0.030 A 
ENDROOT
BRANCH   4   7
ATOM      7  N   UNL     1       1.385  -4.357  -5.318  0.00  0.00    -0.281 N 
ATOM      8  C   UNL     1       1.794  -3.393  -6.167  0.00  0.00    +0.250 C 
ATOM      9  O   UNL     1       1.496  -2.233  -5.957  0.00  0.00    -0.270 OA
ATOM     10  H   UNL     1       1.685  -5.271  -5.441  0.00  0.00    +0.155 HD
BRANCH   8  11
ATOM     11  C   UNL     1       2.602  -3.747  -7.352  0.00  0.00    +0.055 A 
ATOM     12  C   UNL     1       2.940  -5.079  -7.598  0.00  0.00    +0.017 A 
ATOM     13  C   UNL     1       3.695  -5.402  -8.707  0.00  0.00    +0.033 A 
ATOM     14  C   UNL     1       4.118  -4.410  -9.574  0.00  0.00    +0.128 A 
ATOM     15  C   UNL     1       3.788  -3.088  -9.337  0.00  0.00    +0.053 A 
ATOM     16  C   UNL     1       3.027  -2.750  -8.234  0.00  0.00    +0.055 A 
ATOM     17 CL   UNL     1       2.607  -1.091  -7.941  0.00  0.00    -0.083 Cl
BRANCH  14  18
ATOM     18  N   UNL     1       4.928  -4.765 -10.761  0.00  0.00    +0.056 N 
ATOM     19  O   UNL     1       5.218  -5.919 -10.971  0.00  0.00    -0.126 OA
ATOM     20  O   UNL     1       5.299  -3.900 -11.520  0.00  0.00    -0.126 OA
ENDBRANCH  14  18
ENDBRANCH   8  11
ENDBRANCH   4   7
BRANCH   1  21
ATOM     21  S   UNL     1      -2.245  -3.011  -0.830  0.00  0.00    +0.061 S 
ATOM     22  O   UNL     1      -2.307  -4.162   0.002  0.00  0.00    -0.153 OA
ATOM     23  O   UNL     1      -3.404  -2.425  -1.406  0.00  0.00    -0.153 OA
BRANCH  21  27
ATOM     24  C   UNL     1      -0.551   1.795  -0.484  0.00  0.00    +0.039 C 
ATOM     25  C   UNL     1      -0.356   0.283  -0.358  0.00  0.00    +0.131 C 
ATOM     26  C   UNL     1      -1.723  -0.402  -0.248  0.00  0.00    +0.140 C 
ATOM     27  N   UNL     1      -1.506  -1.825   0.059  0.00  0.00    -0.172 NA
ATOM     28  C   UNL     1      -0.613  -2.162   1.178  0.00  0.00    +0.140 C 
ATOM     29  C   UNL     1       0.700  -1.391   0.999  0.00  0.00    +0.131 C 
ATOM     30  O   UNL     1       0.410  -0.004   0.814  0.00  0.00    -0.371 OA
ATOM     31  C   UNL     1       1.443  -1.926  -0.226  0.00  0.00    +0.039 C 
ENDBRANCH  21  27
ENDBRANCH   1  21
TORSDOF 5
