REMARK  Name = ZINC08970225
REMARK  8 active torsions:
REMARK  status: ('A' for Active; 'I' for Inactive)
REMARK    1  A    between atoms: C_1  and  C_2
REMARK    2  A    between atoms: C_2  and  C_4
REMARK    3  A    between atoms: C_7  and  N_10
REMARK    4  A    between atoms: C_26  and  C_32
REMARK    5  A    between atoms: C_32  and  C_34
REMARK    6  A    between atoms: C_34  and  C_35
REMARK    7  A    between atoms: C_34  and  C_36
REMARK    8  A    between atoms: C_34  and  C_37
REMARK                            x       y       z     vdW  Elec       q    Type
REMARK                         _______ _______ _______ _____ _____    ______ ____
ROOT
ATOM      1  N   UNL     1      -4.931  -2.422   0.144  0.00  0.00    -0.210 N 
ATOM      2  C   UNL     1      -4.830  -3.782   0.073  0.00  0.00    +0.232 C 
ATOM      3  O   UNL     1      -3.856  -4.457   0.329  0.00  0.00    -0.274 OA
ATOM      4  C   UNL     1      -6.177  -4.271  -0.390  0.00  0.00    +0.116 C 
ATOM      5  C   UNL     1      -6.805  -5.489   0.266  0.00  0.00    +0.136 C 
ATOM      6  C   UNL     1      -6.602  -6.760  -0.487  0.00  0.00    -0.016 A 
ATOM      7  C   UNL     1      -5.369  -7.076  -1.022  0.00  0.00    +0.006 A 
ATOM      8  C   UNL     1      -5.186  -8.265  -1.705  0.00  0.00    +0.000 A 
ATOM      9  C   UNL     1      -6.238  -9.151  -1.856  0.00  0.00    +0.001 A 
ATOM     10  C   UNL     1      -7.478  -8.849  -1.334  0.00  0.00    +0.010 A 
ATOM     11  C   UNL     1      -7.675  -7.645  -0.652  0.00  0.00    -0.000 A 
ATOM     12  C   UNL     1      -9.014  -7.309  -0.135  0.00  0.00    +0.138 C 
ATOM     13  N   UNL     1      -9.271  -6.120   0.327  0.00  0.00    -0.191 NA
ATOM     14  N   UNL     1      -8.254  -5.168   0.308  0.00  0.00    -0.236 N 
ATOM     15  C   UNL     1      -8.399  -3.687   0.311  0.00  0.00    +0.172 C 
ATOM     16  C   UNL     1      -7.013  -3.175   0.390  0.00  0.00    +0.119 C 
ATOM     17  C   UNL     1      -6.233  -1.985   0.152  0.00  0.00    +0.232 C 
ATOM     18  O   UNL     1      -6.637  -0.854  -0.007  0.00  0.00    -0.274 OA
ENDROOT
BRANCH   1  22
ATOM     19  C   UNL     1      -1.641   0.130   0.336  0.00  0.00    +0.017 A 
ATOM     20  C   UNL     1      -2.938   0.656   0.349  0.00  0.00    +0.013 A 
ATOM     21  C   UNL     1      -4.021  -0.191   0.285  0.00  0.00    +0.024 A 
ATOM     22  C   UNL     1      -3.828  -1.567   0.208  0.00  0.00    +0.044 A 
ATOM     23  C   UNL     1      -2.541  -2.093   0.195  0.00  0.00    +0.024 A 
ATOM     24  C   UNL     1      -1.451  -1.254   0.253  0.00  0.00    +0.013 A 
BRANCH  19  26
ATOM     25  C   UNL     1      -0.687   2.520   0.494  0.00  0.00    +0.091 C 
ATOM     26  C   UNL     1      -0.481   1.030   0.405  0.00  0.00    +0.160 C 
ATOM     27  O   UNL     1       0.643   0.573   0.389  0.00  0.00    -0.292 OA
ENDBRANCH  19  26
ENDBRANCH   1  22
BRANCH  15  28
ATOM     28  C   UNL     1      -9.034  -3.215  -0.972  0.00  0.00    +0.161 C 
ATOM     29  O   UNL     1      -8.437  -3.319  -2.016  0.00  0.00    -0.295 OA
BRANCH  28  30
ATOM     30  C   UNL     1     -10.416  -2.614  -0.951  0.00  0.00    +0.023 C 
ATOM     31  C   UNL     1     -10.874  -2.339  -2.385  0.00  0.00    +0.018 C 
ATOM     32  C   UNL     1     -11.387  -3.591  -0.285  0.00  0.00    +0.018 C 
ATOM     33  C   UNL     1     -10.390  -1.303  -0.163  0.00  0.00    +0.018 C 
ENDBRANCH  28  30
ENDBRANCH  15  28
TORSDOF 4
