REMARK  Name = ZINC35747159
REMARK  12 active torsions:
REMARK  status: ('A' for Active; 'I' for Inactive)
REMARK    1  A    between atoms: C_2  and  C_3
REMARK    2  A    between atoms: C_3  and  O_4
REMARK    3  A    between atoms: O_4  and  C_5
REMARK    4  A    between atoms: C_5  and  C_6
REMARK    5  A    between atoms: C_6  and  C_8
REMARK    6  A    between atoms: C_6  and  O_35
REMARK    7  A    between atoms: C_8  and  N_9
REMARK    8  A    between atoms: N_9  and  C_10
REMARK    9  A    between atoms: N_9  and  C_16
REMARK   10  A    between atoms: C_10  and  C_11
REMARK   11  A    between atoms: C_16  and  C_17
REMARK   12  A    between atoms: C_23  and  C_28
REMARK                            x       y       z     vdW  Elec       q    Type
REMARK                         _______ _______ _______ _____ _____    ______ ____
ROOT
ATOM      1  C   UNL     1       5.002   6.932  -0.629  0.00  0.00    -0.003 C 
ENDROOT
BRANCH   1   2
ATOM      2  C   UNL     1       6.501   7.074  -0.702  0.00  0.00    +0.094 A 
ATOM      3  N   UNL     1       7.045   8.302  -0.907  0.00  0.00    -0.312 N 
ATOM      4  H   UNL     1       6.461   9.070  -1.004  0.00  0.00    +0.170 HD
ATOM      5  C   UNL     1       8.378   8.472  -0.978  0.00  0.00    +0.260 A 
ATOM      6  O   UNL     1       8.851   9.581  -1.162  0.00  0.00    -0.267 OA
ATOM      7  C   UNL     1       9.232   7.332  -0.835  0.00  0.00    +0.080 A 
ATOM      8  C   UNL     1      10.688   7.260  -0.873  0.00  0.00    +0.005 A 
ATOM      9  C   UNL     1      11.284   6.054  -0.710  0.00  0.00    +0.056 A 
ATOM     10  S   UNL     1       9.910   4.939  -0.494  0.00  0.00    -0.076 S 
ATOM     11  C   UNL     1       8.580   6.106  -0.626  0.00  0.00    +0.116 A 
ATOM     12  N   UNL     1       7.254   6.017  -0.563  0.00  0.00    -0.229 NA
BRANCH   8  13
ATOM     13  C   UNL     1      11.500   8.481  -1.086  0.00  0.00    +0.002 A 
ATOM     14  C   UNL     1      12.268   8.618  -2.241  0.00  0.00    +0.010 A 
ATOM     15  C   UNL     1      13.021   9.758  -2.435  0.00  0.00    +0.001 A 
ATOM     16  C   UNL     1      13.016  10.764  -1.485  0.00  0.00    +0.001 A 
ATOM     17  C   UNL     1      12.256  10.635  -0.337  0.00  0.00    +0.020 A 
ATOM     18  C   UNL     1      11.493   9.501  -0.135  0.00  0.00    +0.049 A 
ATOM     19 CL   UNL     1      10.535   9.343   1.304  0.00  0.00    -0.083 Cl
ENDBRANCH   8  13
ENDBRANCH   1   2
BRANCH   1  20
ATOM     20  N   UNL     1       4.655   5.523  -0.397  0.00  0.00    +0.391 N 
ATOM     21  H   UNL     1       5.080   4.950  -1.111  0.00  0.00    -0.080 HD
BRANCH  20  22
ATOM     22  C   UNL     1       3.196   5.364  -0.445  0.00  0.00    -0.044 C 
BRANCH  22  23
ATOM     23  C   UNL     1       2.697   5.659  -1.861  0.00  0.00    +0.124 C 
BRANCH  23  24
ATOM     24  O   UNL     1       3.277   4.725  -2.774  0.00  0.00    -0.391 OA
ATOM     25  H   UNL     1       3.008   3.809  -2.624  0.00  0.00    +0.210 HD
ENDBRANCH  23  24
BRANCH  23  26
ATOM     26  C   UNL     1       1.173   5.531  -1.901  0.00  0.00    +0.190 C 
BRANCH  26  27
ATOM     27  O   UNL     1       0.696   5.919  -3.192  0.00  0.00    -0.365 OA
BRANCH  27  28
ATOM     28  C   UNL     1      -0.723   5.837  -3.336  0.00  0.00    +0.248 C 
BRANCH  28  30
ATOM     29  C   UNL     1      -1.406   6.591  -5.779  0.00  0.00    +0.006 C 
ATOM     30  C   UNL     1      -1.103   6.256  -4.695  0.00  0.00    -0.077 C 
ENDBRANCH  28  30
ENDBRANCH  27  28
ENDBRANCH  26  27
ENDBRANCH  23  26
ENDBRANCH  22  23
ENDBRANCH  20  22
BRANCH  20  31
ATOM     31  C   UNL     1       5.150   5.108   0.922  0.00  0.00    -0.002 C 
BRANCH  31  32
ATOM     32  C   UNL     1       4.923   3.629   1.101  0.00  0.00    +0.089 A 
ATOM     33  C   UNL     1       5.737   2.650   0.668  0.00  0.00    +0.042 A 
ATOM     34  C   UNL     1       5.143   1.425   1.049  0.00  0.00    +0.041 A 
ATOM     35  C   UNL     1       4.001   1.729   1.692  0.00  0.00    +0.195 A 
ATOM     36  O   UNL     1       3.876   3.065   1.726  0.00  0.00    -0.470 OA
ENDBRANCH  31  32
ENDBRANCH  20  31
ENDBRANCH   1  20
TORSDOF 12
