REMARK  Name = ZINC38042512
REMARK  3 active torsions:
REMARK  status: ('A' for Active; 'I' for Inactive)
REMARK    1  A    between atoms: C_3  and  C_19
REMARK    2  A    between atoms: N_5  and  C_7
REMARK    3  A    between atoms: C_13  and  C_15
REMARK                            x       y       z     vdW  Elec       q    Type
REMARK                         _______ _______ _______ _____ _____    ______ ____
ROOT
ATOM      1  C   UNL     1       1.618  -1.641   0.747  0.00  0.00    -0.065 C 
ATOM      2  C   UNL     1       0.817  -2.786   0.122  0.00  0.00    +0.004 C 
ATOM      3  C   UNL     1       0.997  -4.050   0.969  0.00  0.00    +0.106 C 
ATOM      4  N   UNL     1       2.434  -4.324   1.110  0.00  0.00    -0.294 N 
ATOM      5  C   UNL     1       3.310  -3.259   1.616  0.00  0.00    +0.106 C 
ATOM      6  C   UNL     1       3.104  -2.004   0.762  0.00  0.00    +0.004 C 
ATOM      7  C   UNL     1       2.938  -5.530   0.782  0.00  0.00    +0.320 C 
ATOM      8  O   UNL     1       2.204  -6.402   0.365  0.00  0.00    -0.266 OA
ENDROOT
BRANCH   1  12
ATOM      9  C   UNL     1      -0.019   1.536   0.011  0.00  0.00    -0.020 C 
ATOM     10  C   UNL     1       1.468   1.960  -0.001  0.00  0.00    -0.006 C 
ATOM     11  C   UNL     1       2.191   0.705   0.550  0.00  0.00    +0.047 C 
ATOM     12  N   UNL     1       1.421  -0.418  -0.044  0.00  0.00    +0.391 N 
ATOM     13  C   UNL     1       0.002  -0.004   0.002  0.00  0.00    -0.077 C 
ATOM     14  H   UNL     1       1.708  -0.571  -0.999  0.00  0.00    -0.080 HD
BRANCH  11  15
ATOM     15  C   UNL     1       3.625   0.673   0.090  0.00  0.00    +0.343 C 
ATOM     16  O   UNL     1       4.431   1.462   0.553  0.00  0.00    -0.248 OA
ATOM     17  O   UNL     1       3.980  -0.143  -0.744  0.00  0.00    -0.248 OA
ENDBRANCH  11  15
ENDBRANCH   1  12
BRANCH   7  18
ATOM     18  C   UNL     1       4.414  -5.796   0.932  0.00  0.00    +0.470 C 
ATOM     19  F   UNL     1       4.694  -7.107   0.532  0.00  0.00    -0.162 F 
ATOM     20  F   UNL     1       5.133  -4.901   0.134  0.00  0.00    -0.162 F 
ATOM     21  F   UNL     1       4.784  -5.628   2.271  0.00  0.00    -0.162 F 
ENDBRANCH   7  18
TORSDOF 3
