REMARK  Name = ZINC36308985
REMARK  9 active torsions:
REMARK  status: ('A' for Active; 'I' for Inactive)
REMARK    1  A    between atoms: C_1  and  C_2
REMARK    2  A    between atoms: C_4  and  C_10
REMARK    3  A    between atoms: C_6  and  C_9
REMARK    4  A    between atoms: C_7  and  O_8
REMARK    5  A    between atoms: C_11  and  C_12
REMARK    6  A    between atoms: C_17  and  C_26
REMARK    7  A    between atoms: C_18  and  C_22
REMARK    8  A    between atoms: C_22  and  O_24
REMARK    9  A    between atoms: O_24  and  C_25
REMARK                            x       y       z     vdW  Elec       q    Type
REMARK                         _______ _______ _______ _____ _____    ______ ____
ROOT
ATOM      1  C   UNL     1       0.262  -4.879  -3.761  0.00  0.00    +0.176 A 
ATOM      2  N   UNL     1       0.251  -4.194  -4.904  0.00  0.00    -0.188 NA
ATOM      3  C   UNL     1       0.350  -4.785  -6.078  0.00  0.00    +0.282 A 
ATOM      4  O   UNL     1       0.335  -4.051  -7.215  0.00  0.00    -0.265 OA
ATOM      5  C   UNL     1       0.474  -6.206  -6.139  0.00  0.00    +0.078 A 
ATOM      6  C   UNL     1       0.592  -7.034  -7.260  0.00  0.00    -0.015 A 
ATOM      7  C   UNL     1       0.701  -8.383  -7.099  0.00  0.00    +0.102 A 
ATOM      8  S   UNL     1       0.643  -8.579  -5.326  0.00  0.00    -0.062 S 
ATOM      9  C   UNL     1       0.478  -6.869  -4.884  0.00  0.00    +0.117 A 
ATOM     10  N   UNL     1       0.380  -6.205  -3.754  0.00  0.00    -0.219 NA
ATOM     11  C   UNL     1       0.598  -6.436  -8.643  0.00  0.00    +0.046 C 
ENDROOT
BRANCH   1  13
ATOM     12  C   UNL     1       0.028  -2.816  -2.478  0.00  0.00    +0.031 C 
ATOM     13  C   UNL     1       0.148  -4.157  -2.485  0.00  0.00    +0.086 C 
ATOM     14 CL   UNL     1       0.168  -5.034  -0.986  0.00  0.00    -0.080 Cl
BRANCH  12  18
ATOM     15  C   UNL     1       1.772  -2.351   2.168  0.00  0.00    +0.047 C 
ATOM     16  C   UNL     1       0.913  -1.851   1.035  0.00  0.00    -0.008 A 
ATOM     17  C   UNL     1       0.872  -2.544  -0.154  0.00  0.00    +0.015 A 
ATOM     18  C   UNL     1       0.075  -2.079  -1.205  0.00  0.00    -0.023 A 
ATOM     19  C   UNL     1      -0.676  -0.911  -1.043  0.00  0.00    +0.015 A 
ATOM     20  C   UNL     1      -0.628  -0.224   0.151  0.00  0.00    -0.008 A 
ATOM     21  C   UNL     1       0.161  -0.694   1.194  0.00  0.00    +0.123 A 
ATOM     22  C   UNL     1      -1.437   1.035   0.327  0.00  0.00    +0.047 C 
BRANCH  21  23
ATOM     23  O   UNL     1       0.200  -0.016   2.370  0.00  0.00    -0.506 OA
ATOM     24  H   UNL     1       0.889   0.661   2.411  0.00  0.00    +0.292 HD
ENDBRANCH  21  23
ENDBRANCH  12  18
ENDBRANCH   1  13
BRANCH   7  25
ATOM     25  C   UNL     1       0.832  -9.419  -8.129  0.00  0.00    +0.346 C 
ATOM     26  O   UNL     1       0.853  -9.108  -9.304  0.00  0.00    -0.244 OA
BRANCH  25  27
ATOM     27  O   UNL     1       0.928 -10.716  -7.772  0.00  0.00    -0.464 OA
ATOM     28  C   UNL     1       1.053 -11.671  -8.828  0.00  0.00    +0.280 C 
ENDBRANCH  25  27
ENDBRANCH   7  25
TORSDOF 5
