REMARK  Name = ZINC05332181
REMARK  1 active torsions:
REMARK  status: ('A' for Active; 'I' for Inactive)
REMARK    1  A    between atoms: C_10  and  N_42
REMARK                            x       y       z     vdW  Elec       q    Type
REMARK                         _______ _______ _______ _____ _____    ______ ____
ROOT
ATOM      1  C   UNL     1       0.990   1.766  -0.049  0.00  0.00    +0.002 A 
ATOM      2  C   UNL     1      -0.218   1.095  -0.017  0.00  0.00    +0.001 A 
ATOM      3  C   UNL     1      -1.402   1.809   0.025  0.00  0.00    +0.017 A 
ATOM      4  C   UNL     1      -1.377   3.197   0.046  0.00  0.00    +0.034 A 
ATOM      5  C   UNL     1      -0.166   3.876   0.015  0.00  0.00    +0.048 A 
ATOM      6  C   UNL     1       1.019   3.146  -0.033  0.00  0.00    +0.024 A 
ATOM      7  N   UNL     1      -0.076   5.271   0.034  0.00  0.00    -0.298 N 
ATOM      8  C   UNL     1       1.220   5.849   0.450  0.00  0.00    +0.110 C 
ATOM      9  C   UNL     1       1.620   6.872  -0.622  0.00  0.00    +0.009 C 
ATOM     10  C   UNL     1       0.594   8.002  -0.609  0.00  0.00    -0.034 C 
ATOM     11  C   UNL     1      -0.810   7.458  -0.656  0.00  0.00    -0.038 A 
ATOM     12  C   UNL     1      -1.110   6.145  -0.311  0.00  0.00    +0.050 A 
ATOM     13  C   UNL     1      -2.440   5.730  -0.349  0.00  0.00    +0.034 A 
ATOM     14  C   UNL     1      -3.442   6.604  -0.751  0.00  0.00    +0.017 A 
ATOM     15  C   UNL     1      -3.131   7.902  -1.107  0.00  0.00    +0.001 A 
ATOM     16  C   UNL     1      -1.819   8.324  -1.054  0.00  0.00    +0.004 A 
ATOM     17  S   UNL     1      -2.893   4.089   0.104  0.00  0.00    -0.086 S 
ENDROOT
BRANCH  10  22
ATOM     18  C   UNL     1       2.227   9.324  -1.840  0.00  0.00    -0.078 C 
ATOM     19  C   UNL     1       2.398   9.739  -3.322  0.00  0.00    -0.020 C 
ATOM     20  C   UNL     1       1.566   8.678  -4.077  0.00  0.00    -0.020 C 
ATOM     21  C   UNL     1       0.573   8.130  -3.035  0.00  0.00    -0.078 C 
ATOM     22  N   UNL     1       0.827   8.873  -1.800  0.00  0.00    +0.384 N 
ATOM     23  H   UNL     1       0.202   9.686  -1.750  0.00  0.00    -0.081 HD
ENDBRANCH  10  22
TORSDOF 1
