REMARK  Name = ZINC02861253
REMARK  9 active torsions:
REMARK  status: ('A' for Active; 'I' for Inactive)
REMARK    1  A    between atoms: C_1  and  C_2
REMARK    2  A    between atoms: C_6  and  C_10
REMARK    3  A    between atoms: C_7  and  O_8
REMARK    4  A    between atoms: O_8  and  C_9
REMARK    5  A    between atoms: N_12  and  C_13
REMARK    6  A    between atoms: C_16  and  N_21
REMARK    7  A    between atoms: C_17  and  O_19
REMARK    8  A    between atoms: O_19  and  C_20
REMARK    9  A    between atoms: C_22  and  C_24
REMARK                            x       y       z     vdW  Elec       q    Type
REMARK                         _______ _______ _______ _____ _____    ______ ____
ROOT
ATOM      1  C   UNL     1      -9.603   4.115  -0.195  0.00  0.00    +0.037 A 
ATOM      2  C   UNL     1      -9.009   2.862  -0.112  0.00  0.00    +0.025 A 
ATOM      3  C   UNL     1      -7.635   2.751  -0.022  0.00  0.00    +0.029 A 
ATOM      4  C   UNL     1      -6.845   3.892  -0.015  0.00  0.00    +0.076 A 
ATOM      5  C   UNL     1      -7.439   5.150  -0.092  0.00  0.00    +0.143 A 
ATOM      6  C   UNL     1      -8.816   5.259  -0.188  0.00  0.00    +0.070 A 
ENDROOT
BRANCH   1   9
ATOM      7  C   UNL     1     -11.547   5.204  -1.030  0.00  0.00    +0.252 C 
ATOM      8  O   UNL     1     -10.838   6.041  -1.555  0.00  0.00    -0.270 OA
ATOM      9  N   UNL     1     -10.995   4.225  -0.286  0.00  0.00    -0.281 N 
ATOM     10  H   UNL     1     -11.563   3.596   0.186  0.00  0.00    +0.155 HD
BRANCH   7  16
ATOM     11  C   UNL     1     -15.591   7.410  -2.972  0.00  0.00    +0.047 C 
ATOM     12  C   UNL     1     -14.964   6.319  -2.143  0.00  0.00    -0.007 A 
ATOM     13  C   UNL     1     -15.762   5.364  -1.544  0.00  0.00    +0.022 A 
ATOM     14  C   UNL     1     -15.195   4.357  -0.779  0.00  0.00    +0.019 A 
ATOM     15  C   UNL     1     -13.828   4.299  -0.608  0.00  0.00    +0.032 A 
ATOM     16  C   UNL     1     -13.010   5.259  -1.209  0.00  0.00    +0.080 A 
ATOM     17  C   UNL     1     -13.588   6.279  -1.977  0.00  0.00    +0.135 A 
ATOM     18 BR   UNL     1     -16.301   3.057   0.035  0.00  0.00    -0.050 Br
BRANCH  17  19
ATOM     19  O   UNL     1     -12.804   7.220  -2.561  0.00  0.00    -0.494 OA
ATOM     20  C   UNL     1     -12.330   6.943  -3.880  0.00  0.00    +0.277 C 
ENDBRANCH  17  19
ENDBRANCH   7  16
ENDBRANCH   1   9
BRANCH   4  21
ATOM     21  N   UNL     1      -5.451   3.778   0.076  0.00  0.00    -0.276 N 
ATOM     22  C   UNL     1      -4.819   2.744  -0.513  0.00  0.00    +0.284 C 
ATOM     23  O   UNL     1      -5.464   1.865  -1.053  0.00  0.00    -0.266 OA
ATOM     24  H   UNL     1      -4.941   4.444   0.564  0.00  0.00    +0.155 HD
BRANCH  22  25
ATOM     25  C   UNL     1      -3.351   2.678  -0.503  0.00  0.00    +0.191 A 
ATOM     26  C   UNL     1      -2.609   1.687  -1.063  0.00  0.00    +0.063 A 
ATOM     27  C   UNL     1      -1.212   2.036  -0.811  0.00  0.00    +0.021 A 
ATOM     28  C   UNL     1       0.012   1.439  -1.123  0.00  0.00    +0.011 A 
ATOM     29  C   UNL     1       1.177   2.040  -0.736  0.00  0.00    +0.001 A 
ATOM     30  C   UNL     1       1.151   3.236  -0.032  0.00  0.00    +0.004 A 
ATOM     31  C   UNL     1      -0.046   3.838   0.290  0.00  0.00    +0.047 A 
ATOM     32  C   UNL     1      -1.244   3.245  -0.092  0.00  0.00    +0.136 A 
ATOM     33  O   UNL     1      -2.537   3.586   0.074  0.00  0.00    -0.450 OA
ENDBRANCH  22  25
ENDBRANCH   4  21
BRANCH   5  34
ATOM     34  O   UNL     1      -6.666   6.269  -0.079  0.00  0.00    -0.493 OA
ATOM     35  C   UNL     1      -7.343   7.525  -0.161  0.00  0.00    +0.277 C 
ENDBRANCH   5  34
TORSDOF 6
