REMARK  Name = ZINC43764083
REMARK  5 active torsions:
REMARK  status: ('A' for Active; 'I' for Inactive)
REMARK    1  A    between atoms: C_1  and  C_2
REMARK    2  A    between atoms: C_5  and  C_19
REMARK    3  A    between atoms: C_5  and  O_20
REMARK    4  A    between atoms: C_12  and  C_13
REMARK    5  A    between atoms: C_12  and  C_14
REMARK                            x       y       z     vdW  Elec       q    Type
REMARK                         _______ _______ _______ _____ _____    ______ ____
ROOT
ATOM      1  C   UNL     1      -0.019   1.539   0.011  0.00  0.00    +0.019 C 
ATOM      2  C   UNL     1       0.002  -0.004   0.002  0.00  0.00    +0.032 C 
ATOM      3  C   UNL     1       0.787  -0.557  -1.203  0.00  0.00    +0.017 C 
ATOM      4  C   UNL     1       1.445  -1.859  -0.724  0.00  0.00    +0.036 C 
ATOM      5  C   UNL     1       1.426  -1.838   0.826  0.00  0.00    +0.067 C 
ATOM      6  C   UNL     1       0.747  -0.552   1.250  0.00  0.00    +0.037 C 
ATOM      7  C   UNL     1      -0.130  -0.476   2.431  0.00  0.00    +0.005 C 
ATOM      8  C   UNL     1      -1.439  -1.202   2.621  0.00  0.00    -0.001 C 
ATOM      9  C   UNL     1      -0.320  -1.341   3.643  0.00  0.00    -0.028 C 
ATOM     10  C   UNL     1       0.360  -2.686   3.845  0.00  0.00    +0.011 C 
ATOM     11  C   UNL     1      -0.565  -0.605   4.987  0.00  0.00    +0.011 C 
ATOM     12  C   UNL     1      -1.900  -2.319   1.721  0.00  0.00    +0.012 C 
ATOM     13  C   UNL     1      -1.645  -2.031   0.249  0.00  0.00    +0.075 C 
ATOM     14  C   UNL     1      -1.394  -0.570   0.017  0.00  0.00    +0.140 C 
ATOM     15  O   UNL     1      -2.338   0.177  -0.169  0.00  0.00    -0.297 OA
ATOM     16  C   UNL     1       2.882  -1.853   1.325  0.00  0.00    +0.041 C 
ENDROOT
BRANCH   5  17
ATOM     17  O   UNL     1       0.769  -3.029   1.249  0.00  0.00    -0.389 OA
ATOM     18  H   UNL     1       1.216  -3.842   0.977  0.00  0.00    +0.210 HD
ENDBRANCH   5  17
TORSDOF 1
