REMARK  Name = ZINC32014869
REMARK  4 active torsions:
REMARK  status: ('A' for Active; 'I' for Inactive)
REMARK    1  A    between atoms: C_1  and  C_2
REMARK    2  A    between atoms: C_2  and  C_3
REMARK    3  A    between atoms: C_2  and  C_4
REMARK    4  A    between atoms: C_5  and  C_10
REMARK                            x       y       z     vdW  Elec       q    Type
REMARK                         _______ _______ _______ _____ _____    ______ ____
ROOT
ATOM      1  C   UNL     1       0.002  -0.004   0.002  0.00  0.00    +0.022 A 
ATOM      2  C   UNL     1      -0.017   1.363   0.009  0.00  0.00    +0.090 A 
ATOM      3  N   UNL     1       1.137   2.030   0.002  0.00  0.00    -0.224 NA
ATOM      4  C   UNL     1       2.293   1.393  -0.012  0.00  0.00    +0.156 A 
ATOM      5  S   UNL     1       1.763  -0.314  -0.017  0.00  0.00    -0.057 S 
ATOM      6  N   UNL     1       3.578   1.910  -0.021  0.00  0.00    -0.337 N 
ATOM      7  H   UNL     1       4.444   1.232  -0.034  0.00  0.00    +0.144 HD
ATOM      8  H   UNL     1       3.733   2.999  -0.017  0.00  0.00    +0.144 HD
ENDROOT
BRANCH   2   9
ATOM      9  C   UNL     1      -1.302   2.094   0.020  0.00  0.00    +0.038 A 
ATOM     10  C   UNL     1      -1.621   3.271   0.642  0.00  0.00    +0.018 A 
ATOM     11  C   UNL     1      -2.899   3.768   0.504  0.00  0.00    +0.008 A 
ATOM     12  C   UNL     1      -3.803   3.074  -0.232  0.00  0.00    +0.046 A 
ATOM     13  S   UNL     1      -2.845   1.666  -0.770  0.00  0.00    -0.095 S 
ENDBRANCH   2   9
BRANCH   1  15
ATOM     14  C   UNL     1      -1.079  -1.854  -1.247  0.00  0.00    +0.013 C 
ATOM     15  C   UNL     1      -1.146  -0.981   0.008  0.00  0.00    +0.022 C 
ATOM     16  C   UNL     1      -1.055  -1.867   1.251  0.00  0.00    +0.013 C 
ENDBRANCH   1  15
TORSDOF 2
