REMARK  Name = ZINC63046322
REMARK  5 active torsions:
REMARK  status: ('A' for Active; 'I' for Inactive)
REMARK    1  A    between atoms: C_1  and  C_2
REMARK    2  A    between atoms: C_2  and  C_4
REMARK    3  A    between atoms: C_2  and  C_14
REMARK    4  A    between atoms: C_7  and  N_11
REMARK    5  A    between atoms: C_14  and  C_16
REMARK                            x       y       z     vdW  Elec       q    Type
REMARK                         _______ _______ _______ _____ _____    ______ ____
ROOT
ATOM      1  C   UNL     1      -1.431  -0.465  -0.071  0.00  0.00    -0.008 A 
ATOM      2  C   UNL     1      -2.260   0.012  -1.068  0.00  0.00    +0.009 A 
ATOM      3  C   UNL     1      -3.575  -0.411  -1.136  0.00  0.00    +0.033 A 
ATOM      4  C   UNL     1      -4.061  -1.311  -0.206  0.00  0.00    +0.129 A 
ATOM      5  C   UNL     1      -3.234  -1.789   0.792  0.00  0.00    +0.071 A 
ATOM      6  C   UNL     1      -1.915  -1.370   0.857  0.00  0.00    +0.129 A 
ATOM      7  F   UNL     1      -1.104  -1.841   1.829  0.00  0.00    -0.205 F 
ENDROOT
BRANCH   4   8
ATOM      8  N   UNL     1      -5.469  -1.762  -0.279  0.00  0.00    +0.057 N 
ATOM      9  O   UNL     1      -6.193  -1.343  -1.152  0.00  0.00    -0.126 OA
ATOM     10  O   UNL     1      -5.895  -2.549   0.534  0.00  0.00    -0.126 OA
ENDBRANCH   4   8
BRANCH   1  12
ATOM     11  C   UNL     1       0.047   1.525  -0.007  0.00  0.00    +0.013 C 
ATOM     12  C   UNL     1       0.002  -0.004   0.002  0.00  0.00    +0.032 C 
BRANCH  12  13
ATOM     13  C   UNL     1       0.773  -0.544  -1.204  0.00  0.00    +0.061 C 
ATOM     14  C   UNL     1       2.258  -0.207  -1.052  0.00  0.00    +0.020 C 
ATOM     15 BR   UNL     1       0.080   0.280  -2.848  0.00  0.00    -0.088 Br
ENDBRANCH  12  13
ENDBRANCH   1  12
TORSDOF 3
