REMARK  Name = ZINC36807334
REMARK  15 active torsions:
REMARK  status: ('A' for Active; 'I' for Inactive)
REMARK    1  A    between atoms: C_1  and  C_2
REMARK    2  A    between atoms: C_2  and  C_4
REMARK    3  A    between atoms: C_2  and  N_11
REMARK    4  A    between atoms: C_12  and  C_14
REMARK    5  A    between atoms: C_14  and  S_15
REMARK    6  A    between atoms: S_15  and  C_16
REMARK    7  A    between atoms: N_26  and  C_27
REMARK    8  A    between atoms: C_27  and  C_28
REMARK    9  A    between atoms: C_28  and  N_29
REMARK   10  A    between atoms: N_29  and  C_30
REMARK   11  A    between atoms: N_29  and  C_33
REMARK   12  A    between atoms: C_30  and  C_31
REMARK   13  A    between atoms: C_30  and  C_32
REMARK   14  A    between atoms: C_33  and  C_34
REMARK   15  A    between atoms: C_33  and  C_35
REMARK                            x       y       z     vdW  Elec       q    Type
REMARK                         _______ _______ _______ _____ _____    ______ ____
ROOT
ATOM      1  C   UNL     1       5.899  -2.577   3.814  0.00  0.00    +0.173 A 
ATOM      2  N   UNL     1       5.176  -3.058   4.795  0.00  0.00    -0.223 NA
ATOM      3  C   UNL     1       5.731  -3.421   5.970  0.00  0.00    +0.079 A 
ATOM      4  C   UNL     1       4.960  -3.935   7.016  0.00  0.00    +0.028 A 
ATOM      5  C   UNL     1       5.563  -4.290   8.190  0.00  0.00    +0.002 A 
ATOM      6  C   UNL     1       6.934  -4.147   8.360  0.00  0.00    +0.001 A 
ATOM      7  C   UNL     1       7.715  -3.647   7.355  0.00  0.00    +0.015 A 
ATOM      8  C   UNL     1       7.126  -3.277   6.147  0.00  0.00    +0.065 A 
ATOM      9  C   UNL     1       7.915  -2.735   5.032  0.00  0.00    +0.262 A 
ATOM     10  O   UNL     1       9.120  -2.588   5.124  0.00  0.00    -0.267 OA
ATOM     11  N   UNL     1       7.252  -2.410   3.898  0.00  0.00    -0.289 N 
ENDROOT
BRANCH   1  12
ATOM     12  S   UNL     1       5.089  -2.130   2.315  0.00  0.00    -0.078 S 
BRANCH  12  13
ATOM     13  C   UNL     1       3.342  -2.505   2.631  0.00  0.00    +0.173 C 
BRANCH  13  15
ATOM     14  N   UNL     1       1.193  -2.361   1.415  0.00  0.00    -0.308 N 
ATOM     15  C   UNL     1       2.526  -2.164   1.411  0.00  0.00    +0.224 C 
ATOM     16  O   UNL     1       3.070  -1.712   0.425  0.00  0.00    -0.275 OA
ATOM     17  H   UNL     1       0.759  -2.722   2.204  0.00  0.00    +0.149 HD
BRANCH  14  19
ATOM     18  C   UNL     1       0.033  -0.544   0.259  0.00  0.00    +0.033 C 
ATOM     19  C   UNL     1       0.400  -2.030   0.229  0.00  0.00    +0.100 C 
BRANCH  19  20
ATOM     20  C   UNL     1      -0.859  -2.858   0.219  0.00  0.00    -0.027 A 
ATOM     21  C   UNL     1      -1.548  -3.082   1.397  0.00  0.00    +0.008 A 
ATOM     22  C   UNL     1      -2.703  -3.841   1.389  0.00  0.00    +0.038 A 
ATOM     23  C   UNL     1      -3.170  -4.377   0.201  0.00  0.00    +0.123 A 
ATOM     24  C   UNL     1      -2.479  -4.152  -0.978  0.00  0.00    +0.038 A 
ATOM     25  C   UNL     1      -1.327  -3.389  -0.969  0.00  0.00    +0.008 A 
ATOM     26  F   UNL     1      -4.298  -5.120   0.192  0.00  0.00    -0.205 F 
ENDBRANCH  19  20
ENDBRANCH  14  19
ENDBRANCH  13  15
ENDBRANCH  12  13
ENDBRANCH   1  12
BRANCH  11  27
ATOM     27  C   UNL     1       7.991  -1.871   2.753  0.00  0.00    +0.109 C 
BRANCH  27  28
ATOM     28  C   UNL     1       8.052  -0.346   2.859  0.00  0.00    -0.056 C 
BRANCH  28  29
ATOM     29  N   UNL     1       8.911   0.185   1.792  0.00  0.00    +0.384 N 
ATOM     30  H   UNL     1       9.814  -0.265   1.832  0.00  0.00    -0.081 HD
BRANCH  29  31
ATOM     31  C   UNL     1       8.291  -0.079   0.487  0.00  0.00    -0.074 C 
ATOM     32  C   UNL     1       7.276   1.022   0.172  0.00  0.00    -0.014 C 
ATOM     33  C   UNL     1       9.371  -0.101  -0.597  0.00  0.00    -0.014 C 
ENDBRANCH  29  31
BRANCH  29  34
ATOM     34  C   UNL     1       9.077   1.633   1.971  0.00  0.00    -0.074 C 
ATOM     35  C   UNL     1       9.588   1.917   3.385  0.00  0.00    -0.014 C 
ATOM     36  C   UNL     1      10.085   2.162   0.949  0.00  0.00    -0.014 C 
ENDBRANCH  29  34
ENDBRANCH  28  29
ENDBRANCH  27  28
ENDBRANCH  11  27
TORSDOF 10
