REMARK  Name = ZINC13077652
REMARK  6 active torsions:
REMARK  status: ('A' for Active; 'I' for Inactive)
REMARK    1  A    between atoms: C_1  and  C_2
REMARK    2  A    between atoms: C_2  and  C_4
REMARK    3  A    between atoms: C_2  and  O_6
REMARK    4  A    between atoms: O_6  and  C_7
REMARK    5  A    between atoms: C_10  and  C_13
REMARK    6  A    between atoms: C_15  and  C_23
REMARK                            x       y       z     vdW  Elec       q    Type
REMARK                         _______ _______ _______ _____ _____    ______ ____
ROOT
ATOM      1  C   UNL     1      -0.233   2.506   2.046  0.00  0.00    +0.039 C 
ATOM      2  C   UNL     1      -0.802   1.723   1.139  0.00  0.00    +0.028 C 
ATOM      3  C   UNL     1      -0.099   1.253  -0.107  0.00  0.00    +0.168 C 
ATOM      4  N   UNL     1       1.325   1.546  -0.007  0.00  0.00    -0.202 N 
ATOM      5  C   UNL     1       1.867   2.352   0.944  0.00  0.00    +0.240 A 
ATOM      6  N   UNL     1       3.151   2.394   0.729  0.00  0.00    -0.092 NA
ATOM      7  N   UNL     1       3.458   1.666  -0.290  0.00  0.00    -0.021 NA
ATOM      8  N   UNL     1       2.397   1.118  -0.788  0.00  0.00    -0.042 NA
ATOM      9  N   UNL     1       1.087   2.957   1.916  0.00  0.00    -0.282 N 
ATOM     10  H   UNL     1       1.439   3.662   2.482  0.00  0.00    +0.155 HD
ENDROOT
BRANCH   3  11
ATOM     11  C   UNL     1      -0.675   1.964  -1.304  0.00  0.00    -0.001 A 
ATOM     12  C   UNL     1      -0.612   3.343  -1.386  0.00  0.00    +0.009 A 
ATOM     13  C   UNL     1      -1.138   3.996  -2.484  0.00  0.00    +0.020 A 
ATOM     14  C   UNL     1      -1.730   3.270  -3.503  0.00  0.00    +0.042 A 
ATOM     15  C   UNL     1      -1.793   1.891  -3.422  0.00  0.00    +0.040 A 
ATOM     16  C   UNL     1      -1.261   1.237  -2.325  0.00  0.00    +0.048 A 
ATOM     17 CL   UNL     1      -1.334  -0.494  -2.226  0.00  0.00    -0.083 Cl
ATOM     18 CL   UNL     1      -2.392   4.090  -4.882  0.00  0.00    -0.083 Cl
ENDBRANCH   3  11
BRANCH   1  22
ATOM     19  C   UNL     1      -2.486   3.682   5.453  0.00  0.00    +0.122 A 
ATOM     20  C   UNL     1      -1.176   4.118   5.305  0.00  0.00    +0.046 A 
ATOM     21  C   UNL     1      -0.443   3.739   4.201  0.00  0.00    +0.013 A 
ATOM     22  C   UNL     1      -1.018   2.916   3.232  0.00  0.00    -0.004 A 
ATOM     23  C   UNL     1      -2.336   2.485   3.382  0.00  0.00    +0.013 A 
ATOM     24  C   UNL     1      -3.062   2.863   4.491  0.00  0.00    +0.046 A 
BRANCH  19  25
ATOM     25  O   UNL     1      -3.206   4.058   6.543  0.00  0.00    -0.478 OA
BRANCH  25  27
ATOM     26  C   UNL     1      -1.703   4.250   8.425  0.00  0.00    +0.064 C 
ATOM     27  C   UNL     1      -2.596   4.995   7.432  0.00  0.00    +0.282 C 
BRANCH  27  28
ATOM     28  C   UNL     1      -3.666   5.745   8.183  0.00  0.00    +0.395 C 
ATOM     29  O   UNL     1      -4.827   5.440   8.045  0.00  0.00    -0.242 OA
ATOM     30  O   UNL     1      -3.329   6.752   9.005  0.00  0.00    -0.242 OA
ENDBRANCH  27  28
ENDBRANCH  25  27
ENDBRANCH  19  25
ENDBRANCH   1  22
TORSDOF 5
