REMARK  Name = ZINC09246857
REMARK  8 active torsions:
REMARK  status: ('A' for Active; 'I' for Inactive)
REMARK    1  A    between atoms: C_1  and  C_2
REMARK    2  A    between atoms: C_6  and  C_38
REMARK    3  A    between atoms: C_7  and  O_8
REMARK    4  A    between atoms: O_8  and  C_9
REMARK    5  A    between atoms: C_9  and  C_10
REMARK    6  A    between atoms: C_10  and  N_11
REMARK    7  A    between atoms: C_13  and  C_20
REMARK    8  A    between atoms: C_30  and  C_32
REMARK                            x       y       z     vdW  Elec       q    Type
REMARK                         _______ _______ _______ _____ _____    ______ ____
ROOT
ATOM      1  N   UNL     1      -2.381   1.610  -1.946  0.00  0.00    -0.343 N 
ATOM      2  C   UNL     1      -1.248   1.818  -1.247  0.00  0.00    +0.095 A 
ATOM      3  C   UNL     1      -0.863   3.139  -1.372  0.00  0.00    +0.001 A 
ATOM      4  C   UNL     1      -1.868   3.779  -2.244  0.00  0.00    +0.007 A 
ATOM      5  C   UNL     1      -2.790   2.772  -2.570  0.00  0.00    +0.050 A 
ATOM      6  C   UNL     1      -3.870   3.077  -3.393  0.00  0.00    +0.026 A 
ATOM      7  C   UNL     1      -4.024   4.357  -3.878  0.00  0.00    +0.002 A 
ATOM      8  C   UNL     1      -3.112   5.351  -3.555  0.00  0.00    +0.001 A 
ATOM      9  C   UNL     1      -2.036   5.068  -2.741  0.00  0.00    +0.010 A 
ENDROOT
BRANCH   3  10
ATOM     10  C   UNL     1       0.268   3.753  -0.788  0.00  0.00    +0.026 C 
ATOM     11  C   UNL     1       0.746   3.306   0.430  0.00  0.00    +0.081 C 
ATOM     12  C   UNL     1       0.007   2.299   1.239  0.00  0.00    +0.152 C 
ATOM     13  N   UNL     1      -1.298   2.215   1.263  0.00  0.00    -0.283 NA
ATOM     14  N   UNL     1       0.852   1.439   1.974  0.00  0.00    -0.152 N 
ATOM     15  C   UNL     1       2.126   1.884   2.253  0.00  0.00    +0.181 C 
ATOM     16  N   UNL     1       2.687   2.998   1.857  0.00  0.00    -0.152 NA
ATOM     17  C   UNL     1       2.020   3.804   1.006  0.00  0.00    +0.273 C 
ATOM     18  O   UNL     1       2.454   4.907   0.714  0.00  0.00    -0.268 OA
ATOM     19  S   UNL     1       2.780   0.554   3.227  0.00  0.00    -0.038 S 
ATOM     20  C   UNL     1       1.344  -0.509   3.166  0.00  0.00    +0.103 C 
ATOM     21  N   UNL     1       0.509   0.194   2.456  0.00  0.00    -0.169 NA
ATOM     22  H   UNL     1      -1.731   1.556   1.827  0.00  0.00    +0.188 HD
BRANCH  20  23
ATOM     23  C   UNL     1       1.149  -1.872   3.780  0.00  0.00    +0.046 C 
ATOM     24  C   UNL     1       0.085  -2.639   2.992  0.00  0.00    +0.010 C 
ATOM     25  C   UNL     1      -0.113  -4.022   3.615  0.00  0.00    +0.001 C 
ATOM     26  C   UNL     1      -0.566  -3.867   5.068  0.00  0.00    +0.000 C 
ATOM     27  C   UNL     1       0.499  -3.101   5.856  0.00  0.00    +0.001 C 
ATOM     28  C   UNL     1       0.696  -1.717   5.233  0.00  0.00    +0.010 C 
ENDBRANCH  20  23
ENDBRANCH   3  10
BRANCH   1  29
ATOM     29  C   UNL     1      -3.079   0.326  -2.037  0.00  0.00    +0.163 C 
BRANCH  29  30
ATOM     30  C   UNL     1      -2.626  -0.413  -3.298  0.00  0.00    +0.250 C 
BRANCH  30  31
ATOM     31  O   UNL     1      -3.307  -1.666  -3.387  0.00  0.00    -0.490 OA
BRANCH  31  38
ATOM     32  C   UNL     1      -4.878  -1.334  -5.711  0.00  0.00    +0.047 C 
ATOM     33  C   UNL     1      -3.753  -2.334  -5.626  0.00  0.00    -0.009 A 
ATOM     34  C   UNL     1      -3.452  -3.129  -6.715  0.00  0.00    +0.007 A 
ATOM     35  C   UNL     1      -2.425  -4.051  -6.636  0.00  0.00    +0.001 A 
ATOM     36  C   UNL     1      -1.692  -4.175  -5.469  0.00  0.00    +0.007 A 
ATOM     37  C   UNL     1      -1.986  -3.377  -4.380  0.00  0.00    -0.009 A 
ATOM     38  C   UNL     1      -3.016  -2.452  -4.457  0.00  0.00    +0.126 A 
ATOM     39  C   UNL     1      -1.187  -3.512  -3.110  0.00  0.00    +0.047 C 
ENDBRANCH  31  38
ENDBRANCH  30  31
ENDBRANCH  29  30
ENDBRANCH   1  29
TORSDOF 6
