REMARK  Name = ZINC12709849
REMARK  11 active torsions:
REMARK  status: ('A' for Active; 'I' for Inactive)
REMARK    1  A    between atoms: C_1  and  C_2
REMARK    2  A    between atoms: C_7  and  N_8
REMARK    3  A    between atoms: C_9  and  C_11
REMARK    4  A    between atoms: C_11  and  C_12
REMARK    5  A    between atoms: C_12  and  C_13
REMARK    6  A    between atoms: C_19  and  C_20
REMARK    7  A    between atoms: C_19  and  N_62
REMARK    8  A    between atoms: C_23  and  C_26
REMARK    9  A    between atoms: C_27  and  C_28
REMARK   10  A    between atoms: C_28  and  C_29
REMARK   11  A    between atoms: C_29  and  O_30
REMARK                            x       y       z     vdW  Elec       q    Type
REMARK                         _______ _______ _______ _____ _____    ______ ____
ROOT
ATOM      1  C   UNL     1      -2.881   1.566  -0.025  0.00  0.00    -0.027 C 
ATOM      2  C   UNL     1      -2.171   1.095   1.248  0.00  0.00    -0.000 C 
ATOM      3  C   UNL     1      -0.732   1.620   1.244  0.00  0.00    -0.018 C 
ATOM      4  C   UNL     1      -0.018   1.127  -0.016  0.00  0.00    -0.078 C 
ATOM      5  C   UNL     1      -2.104   1.075  -1.248  0.00  0.00    -0.075 C 
ATOM      6  N   UNL     1      -0.736   1.634  -1.205  0.00  0.00    +0.383 N 
ATOM      7  H   UNL     1      -0.796   2.657  -1.145  0.00  0.00    -0.081 HD
ENDROOT
BRANCH   1   8
ATOM      8  C   UNL     1      -4.300   0.997  -0.058  0.00  0.00    +0.011 C 
BRANCH   8   9
ATOM      9  C   UNL     1      -5.114   1.587   1.095  0.00  0.00    +0.096 C 
BRANCH   9  11
ATOM     10  N   UNL     1      -7.413   1.406   1.990  0.00  0.00    -0.285 N 
ATOM     11  C   UNL     1      -6.512   1.026   1.062  0.00  0.00    +0.217 C 
ATOM     12  O   UNL     1      -6.827   0.232   0.201  0.00  0.00    -0.275 OA
ATOM     13  H   UNL     1      -7.140   1.977   2.725  0.00  0.00    +0.155 HD
BRANCH  10  20
ATOM     14  C   UNL     1      -8.960   1.274   4.374  0.00  0.00    +0.046 C 
ATOM     15  C   UNL     1      -9.532   0.897   3.032  0.00  0.00    -0.027 A 
ATOM     16  C   UNL     1     -10.845   0.479   2.933  0.00  0.00    +0.043 A 
ATOM     17  C   UNL     1     -11.369   0.127   1.701  0.00  0.00    +0.124 A 
ATOM     18  C   UNL     1     -10.581   0.198   0.565  0.00  0.00    +0.040 A 
ATOM     19  C   UNL     1      -9.270   0.622   0.658  0.00  0.00    +0.026 A 
ATOM     20  C   UNL     1      -8.742   0.976   1.893  0.00  0.00    +0.036 A 
ATOM     21  F   UNL     1     -12.652  -0.287   1.607  0.00  0.00    -0.205 F 
ENDBRANCH  10  20
ENDBRANCH   9  11
ENDBRANCH   8   9
ENDBRANCH   1   8
BRANCH   6  22
ATOM     22  C   UNL     1      -0.001   1.267  -2.433  0.00  0.00    -0.043 C 
BRANCH  22  23
ATOM     23  C   UNL     1       1.298   2.030  -2.467  0.00  0.00    -0.064 A 
ATOM     24  C   UNL     1       1.348   3.278  -3.061  0.00  0.00    +0.003 A 
ATOM     25  C   UNL     1       2.533   3.984  -3.091  0.00  0.00    +0.017 A 
ATOM     26  C   UNL     1       3.685   3.431  -2.531  0.00  0.00    +0.025 A 
ATOM     27  C   UNL     1       3.629   2.169  -1.938  0.00  0.00    +0.017 A 
ATOM     28  C   UNL     1       2.437   1.476  -1.910  0.00  0.00    +0.003 A 
BRANCH  26  29
ATOM     29  C   UNL     1       4.920   4.156  -2.563  0.00  0.00    -0.066 C 
ATOM     30  C   UNL     1       5.932   4.751  -2.589  0.00  0.00    -0.095 C 
BRANCH  30  31
ATOM     31  C   UNL     1       7.201   5.496  -2.623  0.00  0.00    +0.117 C 
BRANCH  31  32
ATOM     32  C   UNL     1       6.986   6.839  -3.323  0.00  0.00    +0.168 C 
BRANCH  32  33
ATOM     33  O   UNL     1       8.218   7.562  -3.356  0.00  0.00    -0.394 OA
ATOM     34  H   UNL     1       8.156   8.425  -3.787  0.00  0.00    +0.209 HD
ENDBRANCH  32  33
ENDBRANCH  31  32
ENDBRANCH  30  31
ENDBRANCH  26  29
ENDBRANCH  22  23
ENDBRANCH   6  22
TORSDOF 10
