REMARK  Name = ZINC09769526
REMARK  3 active torsions:
REMARK  status: ('A' for Active; 'I' for Inactive)
REMARK    1  A    between atoms: C_8  and  C_13
REMARK    2  A    between atoms: C_13  and  C_14
REMARK    3  A    between atoms: N_23  and  C_24
REMARK                            x       y       z     vdW  Elec       q    Type
REMARK                         _______ _______ _______ _____ _____    ______ ____
ROOT
ATOM      1  C   UNL     1      -3.707  -0.733  -0.011  0.00  0.00    +0.080 C 
ATOM      2  N   UNL     1      -3.754  -2.097  -0.101  0.00  0.00    -0.282 NA
ENDROOT
BRANCH   1  10
ATOM      3  C   UNL     1       1.050   2.612   2.018  0.00  0.00    +0.001 A 
ATOM      4  C   UNL     1       1.772   2.592   0.832  0.00  0.00    +0.001 A 
ATOM      5  C   UNL     1       1.287   1.931  -0.277  0.00  0.00    +0.014 A 
ATOM      6  C   UNL     1       0.059   1.278  -0.207  0.00  0.00    +0.046 A 
ATOM      7  C   UNL     1      -0.678   1.298   1.001  0.00  0.00    -0.011 A 
ATOM      8  C   UNL     1      -0.167   1.973   2.112  0.00  0.00    +0.009 A 
ATOM      9  C   UNL     1      -1.963   0.604   1.046  0.00  0.00    +0.036 A 
ATOM     10  C   UNL     1      -2.415  -0.038  -0.066  0.00  0.00    +0.065 A 
ATOM     11  N   UNL     1      -1.695  -0.056  -1.242  0.00  0.00    -0.321 N 
ATOM     12  H   UNL     1      -2.058  -0.527  -2.008  0.00  0.00    +0.169 HD
ATOM     13  C   UNL     1      -0.505   0.566  -1.362  0.00  0.00    +0.257 A 
ATOM     14  O   UNL     1       0.102   0.529  -2.417  0.00  0.00    -0.267 OA
ENDBRANCH   1  10
BRANCH   1  15
ATOM     15  C   UNL     1      -4.889  -0.000   0.132  0.00  0.00    +0.211 C 
ATOM     16  C   UNL     1      -6.186  -0.667   0.323  0.00  0.00    +0.236 C 
ATOM     17  O   UNL     1      -6.264  -1.881   0.361  0.00  0.00    -0.274 OA
ATOM     18  N   UNL     1      -7.285   0.102   0.460  0.00  0.00    -0.267 N 
ATOM     19  C   UNL     1      -7.214   1.440   0.414  0.00  0.00    +0.143 C 
ATOM     20  S   UNL     1      -8.662   2.337   0.590  0.00  0.00    -0.018 S 
ATOM     21  N   UNL     1      -6.067   2.112   0.238  0.00  0.00    -0.267 N 
ATOM     22  C   UNL     1      -4.890   1.470   0.092  0.00  0.00    +0.236 C 
ATOM     23  O   UNL     1      -3.856   2.091  -0.067  0.00  0.00    -0.274 OA
ATOM     24  H   UNL     1      -8.148  -0.322   0.590  0.00  0.00    +0.157 HD
ATOM     25  H   UNL     1      -6.085   3.082   0.214  0.00  0.00    +0.157 HD
ENDBRANCH   1  15
BRANCH   2  26
ATOM     26  C   UNL     1      -2.511  -2.873  -0.126  0.00  0.00    +0.106 C 
ATOM     27  C   UNL     1      -2.436  -4.056  -1.093  0.00  0.00    +0.029 C 
ATOM     28  C   UNL     1      -2.562  -4.305   0.411  0.00  0.00    +0.029 C 
ENDBRANCH   2  26
TORSDOF 3
