REMARK  Name = ZINC18996651
REMARK  2 active torsions:
REMARK  status: ('A' for Active; 'I' for Inactive)
REMARK    1  A    between atoms: C_4  and  N_7
REMARK    2  A    between atoms: C_13  and  C_14
REMARK                            x       y       z     vdW  Elec       q    Type
REMARK                         _______ _______ _______ _____ _____    ______ ____
ROOT
ATOM      1  N   UNL     1       3.519  -0.736  -0.141  0.00  0.00    -0.226 NA
ATOM      2  C   UNL     1       3.760  -1.696   0.723  0.00  0.00    +0.166 C 
ATOM      3  N   UNL     1       3.049  -2.027   1.855  0.00  0.00    -0.260 N 
ATOM      4  C   UNL     1       3.433  -3.033   2.624  0.00  0.00    +0.256 C 
ATOM      5  O   UNL     1       2.817  -3.339   3.627  0.00  0.00    -0.269 OA
ATOM      6  C   UNL     1       4.647  -3.768   2.205  0.00  0.00    +0.079 C 
ATOM      7  C   UNL     1       5.259  -4.825   2.793  0.00  0.00    +0.048 C 
ATOM      8  S   UNL     1       5.085  -2.892   0.710  0.00  0.00    -0.049 S 
ATOM      9  H   UNL     1       2.258  -1.517   2.092  0.00  0.00    +0.157 HD
ENDROOT
BRANCH   1  13
ATOM     10  C   UNL     1       0.265   1.763   0.398  0.00  0.00    +0.000 A 
ATOM     11  C   UNL     1       1.494   2.297   0.055  0.00  0.00    +0.002 A 
ATOM     12  C   UNL     1       2.583   1.470  -0.126  0.00  0.00    +0.028 A 
ATOM     13  C   UNL     1       2.443   0.090   0.038  0.00  0.00    +0.067 A 
ATOM     14  C   UNL     1       1.199  -0.442   0.385  0.00  0.00    +0.028 A 
ATOM     15  C   UNL     1       0.119   0.397   0.563  0.00  0.00    +0.002 A 
ENDBRANCH   1  13
BRANCH   7  16
ATOM     16  C   UNL     1       4.595  -5.540   3.893  0.00  0.00    +0.065 A 
ATOM     17  C   UNL     1       5.279  -6.547   4.580  0.00  0.00    +0.028 A 
ATOM     18  C   UNL     1       4.640  -7.209   5.613  0.00  0.00    +0.004 A 
ATOM     19  C   UNL     1       3.337  -6.846   5.928  0.00  0.00    +0.020 A 
ATOM     20  C   UNL     1       2.718  -5.840   5.207  0.00  0.00    +0.111 A 
ATOM     21  N   UNL     1       3.348  -5.220   4.231  0.00  0.00    -0.256 NA
ENDBRANCH   7  16
TORSDOF 2
