REMARK  Name = ZINC13125492
REMARK  12 active torsions:
REMARK  status: ('A' for Active; 'I' for Inactive)
REMARK    1  A    between atoms: C_1  and  C_2
REMARK    2  A    between atoms: C_5  and  C_10
REMARK    3  A    between atoms: C_6  and  O_9
REMARK    4  A    between atoms: C_7  and  C_8
REMARK    5  A    between atoms: C_12  and  C_16
REMARK    6  A    between atoms: N_18  and  C_19
REMARK    7  A    between atoms: C_19  and  C_20
REMARK    8  A    between atoms: C_20  and  C_21
REMARK    9  A    between atoms: C_24  and  O_29
REMARK   10  A    between atoms: C_25  and  O_27
REMARK   11  A    between atoms: O_27  and  C_28
REMARK   12  A    between atoms: O_29  and  C_30
REMARK                            x       y       z     vdW  Elec       q    Type
REMARK                         _______ _______ _______ _____ _____    ______ ____
ROOT
ATOM      1  C   UNL     1       0.058  -4.255  -0.033  0.00  0.00    +0.070 A 
ATOM      2  C   UNL     1      -0.637  -5.072  -0.881  0.00  0.00    +0.062 A 
ATOM      3  C   UNL     1      -0.292  -6.388  -0.501  0.00  0.00    +0.147 A 
ATOM      4  N   UNL     1       0.552  -6.298   0.507  0.00  0.00    -0.169 NA
ATOM      5  N   UNL     1       0.777  -5.066   0.795  0.00  0.00    -0.276 N 
ATOM      6  H   UNL     1       1.369  -4.759   1.499  0.00  0.00    +0.189 HD
ENDROOT
BRANCH   1  11
ATOM      7  C   UNL     1      -0.018   1.503   0.010  0.00  0.00    +0.044 C 
ATOM      8  C   UNL     1       0.002  -0.004   0.002  0.00  0.00    -0.044 A 
ATOM      9  C   UNL     1       0.006  -0.686  -1.202  0.00  0.00    +0.004 A 
ATOM     10  C   UNL     1       0.024  -2.066  -1.220  0.00  0.00    +0.014 A 
ATOM     11  C   UNL     1       0.039  -2.776  -0.020  0.00  0.00    +0.041 A 
ATOM     12  C   UNL     1       0.036  -2.083   1.195  0.00  0.00    +0.129 A 
ATOM     13  C   UNL     1       0.023  -0.698   1.197  0.00  0.00    -0.005 A 
ATOM     14  C   UNL     1       0.025   0.053   2.504  0.00  0.00    +0.048 C 
BRANCH  12  15
ATOM     15  O   UNL     1       0.051  -2.767   2.369  0.00  0.00    -0.506 OA
ATOM     16  H   UNL     1       0.938  -2.953   2.705  0.00  0.00    +0.292 HD
ENDBRANCH  12  15
ENDBRANCH   1  11
BRANCH   3  17
ATOM     17  C   UNL     1      -0.787  -7.635  -1.120  0.00  0.00    +0.264 C 
ATOM     18  O   UNL     1      -1.569  -7.584  -2.049  0.00  0.00    -0.268 OA
ATOM     19  N   UNL     1      -0.372  -8.830  -0.653  0.00  0.00    -0.310 N 
ATOM     20  H   UNL     1       0.252  -8.870   0.088  0.00  0.00    +0.149 HD
BRANCH  19  21
ATOM     21  C   UNL     1      -0.863 -10.066  -1.266  0.00  0.00    +0.109 C 
BRANCH  21  22
ATOM     22  C   UNL     1      -0.241 -11.270  -0.555  0.00  0.00    +0.054 C 
BRANCH  22  23
ATOM     23  C   UNL     1      -0.746 -12.542  -1.186  0.00  0.00    -0.042 A 
ATOM     24  C   UNL     1      -1.897 -13.139  -0.707  0.00  0.00    +0.007 A 
ATOM     25  C   UNL     1      -2.365 -14.306  -1.282  0.00  0.00    +0.049 A 
ATOM     26  C   UNL     1      -1.679 -14.880  -2.341  0.00  0.00    +0.161 A 
ATOM     27  C   UNL     1      -0.520 -14.278  -2.823  0.00  0.00    +0.162 A 
ATOM     28  C   UNL     1      -0.060 -13.106  -2.245  0.00  0.00    +0.053 A 
BRANCH  27  29
ATOM     29  O   UNL     1       0.156 -14.838  -3.862  0.00  0.00    -0.491 OA
ATOM     30  C   UNL     1       1.337 -14.165  -4.304  0.00  0.00    +0.277 C 
ENDBRANCH  27  29
BRANCH  26  31
ATOM     31  O   UNL     1      -2.137 -16.028  -2.908  0.00  0.00    -0.491 OA
ATOM     32  C   UNL     1      -3.332 -16.590  -2.361  0.00  0.00    +0.277 C 
ENDBRANCH  26  31
ENDBRANCH  22  23
ENDBRANCH  21  22
ENDBRANCH  19  21
ENDBRANCH   3  17
TORSDOF 8
