REMARK  Name = ZINC13064921
REMARK  16 active torsions:
REMARK  status: ('A' for Active; 'I' for Inactive)
REMARK    1  A    between atoms: C_1  and  C_2
REMARK    2  A    between atoms: C_2  and  C_3
REMARK    3  A    between atoms: C_3  and  C_5
REMARK    4  A    between atoms: C_3  and  N_74
REMARK    5  A    between atoms: N_9  and  C_10
REMARK    6  A    between atoms: C_10  and  C_11
REMARK    7  A    between atoms: C_10  and  C_12
REMARK    8  A    between atoms: C_10  and  C_13
REMARK    9  A    between atoms: C_13  and  C_14
REMARK   10  A    between atoms: C_15  and  C_16
REMARK   11  A    between atoms: C_15  and  N_74
REMARK   12  A    between atoms: C_19  and  C_22
REMARK   13  A    between atoms: C_23  and  C_24
REMARK   14  A    between atoms: C_23  and  N_74
REMARK   15  A    between atoms: C_27  and  C_37
REMARK   16  A    between atoms: C_29  and  C_36
REMARK                            x       y       z     vdW  Elec       q    Type
REMARK                         _______ _______ _______ _____ _____    ______ ____
ROOT
ATOM      1  N   UNL     1       5.525   5.411  -1.878  0.00  0.00    +0.392 N 
ATOM      2  H   UNL     1       5.681   4.449  -2.202  0.00  0.00    -0.080 HD
ENDROOT
BRANCH   1   3
ATOM      3  C   UNL     1       4.219   5.883  -2.386  0.00  0.00    +0.003 C 
BRANCH   3   4
ATOM      4  C   UNL     1       3.943   5.205  -3.703  0.00  0.00    +0.139 A 
ATOM      5  N   UNL     1       4.828   4.861  -4.607  0.00  0.00    -0.115 NA
ATOM      6  N   UNL     1       4.201   4.308  -5.587  0.00  0.00    -0.023 NA
ATOM      7  N   UNL     1       2.939   4.290  -5.332  0.00  0.00    -0.043 NA
ATOM      8  N   UNL     1       2.740   4.829  -4.177  0.00  0.00    -0.225 N 
BRANCH   8   9
ATOM      9  C   UNL     1       1.449   5.002  -3.508  0.00  0.00    +0.061 C 
ATOM     10  C   UNL     1       1.365   4.059  -2.307  0.00  0.00    +0.036 C 
ATOM     11  C   UNL     1       1.312   6.449  -3.030  0.00  0.00    +0.036 C 
BRANCH   9  12
ATOM     12  C   UNL     1       0.319   4.681  -4.489  0.00  0.00    +0.026 C 
ATOM     13  C   UNL     1      -1.030   4.862  -3.790  0.00  0.00    +0.006 C 
ENDBRANCH   9  12
ENDBRANCH   8   9
ENDBRANCH   3   4
BRANCH   3  15
ATOM     14  C   UNL     1       4.390   8.093  -1.232  0.00  0.00    +0.002 C 
ATOM     15  C   UNL     1       4.242   7.399  -2.588  0.00  0.00    -0.011 C 
ENDBRANCH   3  15
ENDBRANCH   1   3
BRANCH   1  16
ATOM     16  C   UNL     1       6.609   6.273  -2.395  0.00  0.00    -0.042 C 
BRANCH  16  17
ATOM     17  C   UNL     1       6.845   5.936  -3.845  0.00  0.00    -0.064 A 
ATOM     18  C   UNL     1       7.559   4.801  -4.183  0.00  0.00    +0.002 A 
ATOM     19  C   UNL     1       7.771   4.490  -5.513  0.00  0.00    +0.003 A 
ATOM     20  C   UNL     1       7.279   5.318  -6.504  0.00  0.00    -0.050 A 
ATOM     21  C   UNL     1       6.570   6.455  -6.166  0.00  0.00    +0.003 A 
ATOM     22  C   UNL     1       6.353   6.764  -4.836  0.00  0.00    +0.002 A 
ATOM     23  C   UNL     1       7.516   4.981  -7.954  0.00  0.00    +0.044 C 
ENDBRANCH  16  17
ENDBRANCH   1  16
BRANCH   1  24
ATOM     24  C   UNL     1       5.528   5.427  -0.400  0.00  0.00    -0.036 C 
BRANCH  24  25
ATOM     25  C   UNL     1       4.784   4.215   0.097  0.00  0.00    +0.001 A 
ATOM     26  C   UNL     1       5.457   3.066   0.350  0.00  0.00    +0.017 A 
ATOM     27  C   UNL     1       4.704   1.906   0.832  0.00  0.00    +0.002 A 
ATOM     28  C   UNL     1       5.344   0.693   1.110  0.00  0.00    -0.041 A 
ATOM     29  C   UNL     1       4.613  -0.371   1.557  0.00  0.00    +0.007 A 
ATOM     30  C   UNL     1       3.241  -0.259   1.738  0.00  0.00    -0.048 A 
ATOM     31  C   UNL     1       2.590   0.926   1.471  0.00  0.00    +0.029 A 
ATOM     32  C   UNL     1       3.314   2.023   1.015  0.00  0.00    +0.050 A 
ATOM     33  N   UNL     1       2.688   3.220   0.738  0.00  0.00    -0.322 N 
ATOM     34  H   UNL     1       1.730   3.299   0.865  0.00  0.00    +0.169 HD
ATOM     35  C   UNL     1       3.388   4.280   0.296  0.00  0.00    +0.251 A 
ATOM     36  O   UNL     1       2.802   5.323   0.062  0.00  0.00    -0.268 OA
ATOM     37  C   UNL     1       2.455  -1.446   2.232  0.00  0.00    +0.044 C 
ATOM     38  C   UNL     1       6.832   0.561   0.917  0.00  0.00    +0.044 C 
ENDBRANCH  24  25
ENDBRANCH   1  24
TORSDOF 9
