REMARK  Name = ZINC41076723
REMARK  7 active torsions:
REMARK  status: ('A' for Active; 'I' for Inactive)
REMARK    1  A    between atoms: C_1  and  C_2
REMARK    2  A    between atoms: C_5  and  N_33
REMARK    3  A    between atoms: C_7  and  C_8
REMARK    4  A    between atoms: C_11  and  C_13
REMARK    5  A    between atoms: C_23  and  S_25
REMARK    6  A    between atoms: S_25  and  C_26
REMARK    7  A    between atoms: C_26  and  C_27
REMARK                            x       y       z     vdW  Elec       q    Type
REMARK                         _______ _______ _______ _____ _____    ______ ____
ROOT
ATOM      1  C   UNL     1       1.208   2.469   4.758  0.00  0.00    +0.063 C 
ATOM      2  C   UNL     1       2.315   3.100   4.188  0.00  0.00    +0.084 C 
ATOM      3  C   UNL     1       3.103   4.126   4.932  0.00  0.00    +0.153 C 
ATOM      4  N   UNL     1       3.286   4.090   6.221  0.00  0.00    -0.283 NA
ATOM      5  N   UNL     1       3.633   5.143   4.098  0.00  0.00    -0.151 N 
ATOM      6  C   UNL     1       3.808   4.827   2.760  0.00  0.00    +0.181 C 
ATOM      7  N   UNL     1       3.457   3.736   2.144  0.00  0.00    -0.152 NA
ATOM      8  C   UNL     1       2.772   2.784   2.818  0.00  0.00    +0.273 C 
ATOM      9  O   UNL     1       2.534   1.698   2.311  0.00  0.00    -0.268 OA
ATOM     10  S   UNL     1       4.601   6.293   2.147  0.00  0.00    -0.027 S 
ATOM     11  C   UNL     1       4.536   7.205   3.688  0.00  0.00    +0.156 C 
ATOM     12  N   UNL     1       3.964   6.301   4.492  0.00  0.00    -0.158 NA
ATOM     13  H   UNL     1       3.807   4.783   6.656  0.00  0.00    +0.188 HD
ENDROOT
BRANCH   1  17
ATOM     14  C   UNL     1      -0.871   1.262   2.147  0.00  0.00    +0.136 A 
ATOM     15  C   UNL     1      -1.531   0.705   3.244  0.00  0.00    +0.050 A 
ATOM     16  C   UNL     1      -0.834   1.087   4.374  0.00  0.00    +0.050 A 
ATOM     17  C   UNL     1       0.245   1.875   3.939  0.00  0.00    +0.129 A 
ATOM     18  O   UNL     1       0.193   1.953   2.592  0.00  0.00    -0.455 OA
BRANCH  14  25
ATOM     19  C   UNL     1      -1.085   3.613   0.467  0.00  0.00    +0.044 C 
ATOM     20  C   UNL     1      -1.377   2.241  -0.085  0.00  0.00    -0.040 A 
ATOM     21  C   UNL     1      -1.746   2.092  -1.404  0.00  0.00    +0.006 A 
ATOM     22  C   UNL     1      -2.015   0.832  -1.913  0.00  0.00    +0.033 A 
ATOM     23  C   UNL     1      -1.917  -0.288  -1.103  0.00  0.00    +0.127 A 
ATOM     24  C   UNL     1      -1.550  -0.157   0.218  0.00  0.00    +0.044 A 
ATOM     25  C   UNL     1      -1.269   1.113   0.741  0.00  0.00    +0.022 A 
BRANCH  23  26
ATOM     26  N   UNL     1      -2.207  -1.629  -1.659  0.00  0.00    +0.056 N 
ATOM     27  O   UNL     1      -2.559  -1.756  -2.922  0.00  0.00    -0.126 OA
ATOM     28  O   UNL     1      -2.114  -2.694  -0.891  0.00  0.00    -0.126 OA
ENDBRANCH  23  26
ENDBRANCH  14  25
ENDBRANCH   1  17
BRANCH  11  29
ATOM     29  S   UNL     1       5.078   8.843   4.046  0.00  0.00    -0.092 S 
BRANCH  29  30
ATOM     30  C   UNL     1       4.684   9.061   5.803  0.00  0.00    +0.111 C 
BRANCH  30  31
ATOM     31  C   UNL     1       5.103  10.440   6.245  0.00  0.00    -0.037 A 
ATOM     32  C   UNL     1       6.377  10.651   6.737  0.00  0.00    +0.004 A 
ATOM     33  C   UNL     1       6.761  11.916   7.141  0.00  0.00    +0.000 A 
ATOM     34  C   UNL     1       5.870  12.970   7.054  0.00  0.00    +0.000 A 
ATOM     35  C   UNL     1       4.596  12.758   6.561  0.00  0.00    +0.000 A 
ATOM     36  C   UNL     1       4.214  11.494   6.152  0.00  0.00    +0.004 A 
ENDBRANCH  30  31
ENDBRANCH  29  30
ENDBRANCH  11  29
TORSDOF 6
