REMARK  Name = ZINC33701453
REMARK  10 active torsions:
REMARK  status: ('A' for Active; 'I' for Inactive)
REMARK    1  A    between atoms: C_1  and  C_2
REMARK    2  A    between atoms: C_2  and  C_4
REMARK    3  A    between atoms: C_2  and  O_31
REMARK    4  A    between atoms: C_4  and  C_6
REMARK    5  A    between atoms: C_4  and  N_9
REMARK    6  A    between atoms: C_10  and  C_12
REMARK    7  A    between atoms: C_15  and  C_18
REMARK    8  A    between atoms: C_18  and  O_19
REMARK    9  A    between atoms: O_19  and  C_20
REMARK   10  A    between atoms: C_23  and  N_26
REMARK                            x       y       z     vdW  Elec       q    Type
REMARK                         _______ _______ _______ _____ _____    ______ ____
ROOT
ATOM      1  C   UNL     1      -2.392  -0.495  -2.600  0.00  0.00    +0.037 A 
ATOM      2  C   UNL     1      -3.474   0.385  -2.546  0.00  0.00    +0.013 A 
ATOM      3  C   UNL     1      -4.554   0.197  -3.383  0.00  0.00    +0.008 A 
ATOM      4  C   UNL     1      -4.572  -0.867  -4.267  0.00  0.00    -0.010 A 
ATOM      5  C   UNL     1      -3.505  -1.747  -4.322  0.00  0.00    +0.008 A 
ATOM      6  C   UNL     1      -2.416  -1.567  -3.494  0.00  0.00    +0.013 A 
ENDROOT
BRANCH   1   8
ATOM      7  N   UNL     1      -1.208   0.739  -0.848  0.00  0.00    -0.298 N 
ATOM      8  C   UNL     1      -1.228  -0.297  -1.710  0.00  0.00    +0.245 C 
ATOM      9  O   UNL     1      -0.290  -1.068  -1.755  0.00  0.00    -0.270 OA
ATOM     10  H   UNL     1      -2.058   1.437  -0.806  0.00  0.00    +0.150 HD
BRANCH   7  11
ATOM     11  C   UNL     1      -0.056   0.935   0.035  0.00  0.00    +0.187 C 
BRANCH  11  12
ATOM     12  C   UNL     1      -0.484   1.703   1.258  0.00  0.00    +0.233 C 
ATOM     13  O   UNL     1      -1.501   2.364   1.234  0.00  0.00    -0.274 OA
ATOM     14  N   UNL     1       0.261   1.654   2.380  0.00  0.00    -0.328 N 
ATOM     15  H   UNL     1      -0.052   2.215   3.273  0.00  0.00    +0.145 HD
ATOM     16  H   UNL     1       1.183   1.054   2.402  0.00  0.00    +0.145 HD
ENDBRANCH  11  12
BRANCH  11  18
ATOM     17  C   UNL     1       1.473   0.936  -1.942  0.00  0.00    +0.040 C 
ATOM     18  C   UNL     1       1.026   1.722  -0.708  0.00  0.00    +0.141 C 
BRANCH  18  19
ATOM     19  O   UNL     1       0.501   2.988  -1.114  0.00  0.00    -0.390 OA
ATOM     20  H   UNL     1       0.127   3.696  -0.360  0.00  0.00    +0.210 HD
ENDBRANCH  18  19
ENDBRANCH  11  18
ENDBRANCH   7  11
ENDBRANCH   1   8
BRANCH   4  21
ATOM     21  C   UNL     1      -5.758  -1.070  -5.174  0.00  0.00    +0.264 C 
BRANCH  21  22
ATOM     22  O   UNL     1      -6.719  -1.903  -4.523  0.00  0.00    -0.487 OA
BRANCH  22  23
ATOM     23  C   UNL     1      -7.857  -2.186  -5.210  0.00  0.00    +0.121 A 
ATOM     24  C   UNL     1      -8.046  -1.667  -6.482  0.00  0.00    +0.047 A 
ATOM     25  C   UNL     1      -9.200  -1.958  -7.183  0.00  0.00    +0.030 A 
ATOM     26  C   UNL     1     -10.176  -2.762  -6.609  0.00  0.00    +0.048 A 
ATOM     27  C   UNL     1      -9.989  -3.276  -5.334  0.00  0.00    +0.030 A 
ATOM     28  C   UNL     1      -8.832  -2.989  -4.636  0.00  0.00    +0.047 A 
BRANCH  26  29
ATOM     29  N   UNL     1     -11.351  -3.053  -7.319  0.00  0.00    -0.306 N 
ATOM     30  C   UNL     1     -11.674  -2.614  -8.576  0.00  0.00    +0.112 A 
ATOM     31  C   UNL     1     -12.883  -3.130  -8.871  0.00  0.00    +0.130 A 
ATOM     32  N   UNL     1     -13.295  -3.857  -7.823  0.00  0.00    -0.244 NA
ATOM     33  C   UNL     1     -12.386  -3.819  -6.886  0.00  0.00    +0.204 A 
ENDBRANCH  26  29
ENDBRANCH  22  23
ENDBRANCH  21  22
ENDBRANCH   4  21
TORSDOF 9
