REMARK  Name = ZINC50329508
REMARK  3 active torsions:
REMARK  status: ('A' for Active; 'I' for Inactive)
REMARK    1  A    between atoms: C_3  and  C_6
REMARK    2  A    between atoms: C_6  and  C_8
REMARK    3  A    between atoms: C_6  and  O_15
REMARK                            x       y       z     vdW  Elec       q    Type
REMARK                         _______ _______ _______ _____ _____    ______ ____
ROOT
ATOM      1  C   UNL     1       3.599   0.625  -0.029  0.00  0.00    +0.206 C 
ENDROOT
BRANCH   1   2
ATOM      2  C   UNL     1       4.109   0.359   1.363  0.00  0.00    -0.038 C 
ATOM      3  C   UNL     1       4.794   1.268   1.982  0.00  0.00    -0.025 C 
ATOM      4  C   UNL     1       5.312   1.014   3.382  0.00  0.00    +0.027 C 
ATOM      5  C   UNL     1       4.129   1.042   4.353  0.00  0.00    +0.004 C 
ATOM      6  C   UNL     1       3.464  -0.321   4.430  0.00  0.00    +0.001 C 
ATOM      7  C   UNL     1       2.785  -0.740   3.138  0.00  0.00    +0.004 C 
ATOM      8  C   UNL     1       3.813  -0.965   2.034  0.00  0.00    +0.033 C 
ENDBRANCH   1   2
BRANCH   1  11
ATOM      9  C   UNL     1      -0.016   1.341   0.009  0.00  0.00    +0.041 A 
ATOM     10  C   UNL     1       1.331   1.769  -0.001  0.00  0.00    +0.047 A 
ATOM     11  C   UNL     1       2.092   0.660  -0.014  0.00  0.00    +0.137 A 
ATOM     12  O   UNL     1       1.282  -0.411  -0.012  0.00  0.00    -0.465 OA
ATOM     13  C   UNL     1       0.002  -0.004   0.002  0.00  0.00    +0.195 A 
ENDBRANCH   1  11
BRANCH   1  14
ATOM     14  O   UNL     1       4.043  -0.413  -0.905  0.00  0.00    -0.380 OA
ATOM     15  H   UNL     1       3.739  -1.296  -0.654  0.00  0.00    +0.211 HD
ENDBRANCH   1  14
TORSDOF 3
