REMARK  Name = ZINC15047521
REMARK  10 active torsions:
REMARK  status: ('A' for Active; 'I' for Inactive)
REMARK    1  A    between atoms: C_1  and  C_2
REMARK    2  A    between atoms: C_2  and  O_3
REMARK    3  A    between atoms: O_3  and  C_4
REMARK    4  A    between atoms: C_7  and  N_10
REMARK    5  A    between atoms: C_11  and  C_13
REMARK    6  A    between atoms: C_13  and  C_15
REMARK    7  A    between atoms: C_13  and  N_16
REMARK    8  A    between atoms: C_20  and  C_21
REMARK    9  A    between atoms: C_24  and  O_28
REMARK   10  A    between atoms: C_26  and  O_27
REMARK                            x       y       z     vdW  Elec       q    Type
REMARK                         _______ _______ _______ _____ _____    ______ ____
ROOT
ATOM      1  N   UNL     1      -2.596  -2.445   0.086  0.00  0.00    -0.244 N 
ATOM      2  C   UNL     1      -3.021  -3.367  -0.760  0.00  0.00    +0.259 C 
ATOM      3  O   UNL     1      -2.337  -3.740  -1.695  0.00  0.00    -0.269 OA
ATOM      4  C   UNL     1      -4.366  -3.921  -0.516  0.00  0.00    +0.077 C 
ATOM      5  C   UNL     1      -5.053  -4.866  -1.210  0.00  0.00    +0.031 C 
ATOM      6  S   UNL     1      -4.843  -3.007   0.945  0.00  0.00    -0.061 S 
ATOM      7  C   UNL     1      -3.355  -2.038   1.124  0.00  0.00    +0.121 C 
ATOM      8  S   UNL     1      -2.983  -0.872   2.321  0.00  0.00    -0.027 S 
ENDROOT
BRANCH   5   9
ATOM      9  C   UNL     1      -6.465  -5.115  -0.908  0.00  0.00    +0.018 A 
ATOM     10  C   UNL     1      -7.215  -4.159  -0.209  0.00  0.00    +0.015 A 
ATOM     11  C   UNL     1      -8.542  -4.395   0.067  0.00  0.00    +0.046 A 
ATOM     12  C   UNL     1      -9.141  -5.585  -0.336  0.00  0.00    +0.120 A 
ATOM     13  C   UNL     1      -8.407  -6.542  -1.023  0.00  0.00    +0.091 A 
ATOM     14  C   UNL     1      -7.073  -6.316  -1.313  0.00  0.00    +0.127 A 
BRANCH  14  15
ATOM     15  O   UNL     1      -6.355  -7.250  -1.986  0.00  0.00    -0.506 OA
ATOM     16  H   UNL     1      -5.916  -7.896  -1.414  0.00  0.00    +0.292 HD
ENDBRANCH  14  15
BRANCH  12  17
ATOM     17  O   UNL     1     -10.450  -5.811  -0.054  0.00  0.00    -0.507 OA
ATOM     18  H   UNL     1     -10.599  -6.252   0.794  0.00  0.00    +0.292 HD
ENDBRANCH  12  17
ENDBRANCH   5   9
BRANCH   1  19
ATOM     19  C   UNL     1      -1.268  -1.856  -0.103  0.00  0.00    +0.166 C 
ATOM     20  C   UNL     1      -0.408  -2.128   1.133  0.00  0.00    +0.038 C 
BRANCH  19  22
ATOM     21  N   UNL     1      -0.302   0.387  -0.500  0.00  0.00    -0.284 N 
ATOM     22  C   UNL     1      -1.401  -0.369  -0.305  0.00  0.00    +0.238 C 
ATOM     23  O   UNL     1      -2.498   0.149  -0.292  0.00  0.00    -0.273 OA
ATOM     24  H   UNL     1       0.567  -0.035  -0.588  0.00  0.00    +0.155 HD
BRANCH  21  28
ATOM     25  C   UNL     1      -0.637   4.537  -0.729  0.00  0.00    +0.121 A 
ATOM     26  C   UNL     1       0.476   3.963  -0.133  0.00  0.00    +0.047 A 
ATOM     27  C   UNL     1       0.588   2.588  -0.057  0.00  0.00    +0.027 A 
ATOM     28  C   UNL     1      -0.415   1.781  -0.577  0.00  0.00    +0.034 A 
ATOM     29  C   UNL     1      -1.527   2.356  -1.179  0.00  0.00    +0.027 A 
ATOM     30  C   UNL     1      -1.639   3.730  -1.250  0.00  0.00    +0.047 A 
BRANCH  25  31
ATOM     31  O   UNL     1      -0.747   5.890  -0.804  0.00  0.00    -0.492 OA
BRANCH  31  33
ATOM     32  C   UNL     1      -1.865   7.941  -1.422  0.00  0.00    +0.048 C 
ATOM     33  C   UNL     1      -1.920   6.412  -1.431  0.00  0.00    +0.225 C 
ENDBRANCH  31  33
ENDBRANCH  25  31
ENDBRANCH  21  28
ENDBRANCH  19  22
ENDBRANCH   1  19
TORSDOF 8
