REMARK  Name = ZINC37305680
REMARK  6 active torsions:
REMARK  status: ('A' for Active; 'I' for Inactive)
REMARK    1  A    between atoms: C_1  and  C_2
REMARK    2  A    between atoms: C_7  and  N_8
REMARK    3  A    between atoms: N_8  and  C_9
REMARK    4  A    between atoms: C_9  and  C_11
REMARK    5  A    between atoms: C_9  and  C_12
REMARK    6  A    between atoms: C_15  and  N_18
REMARK                            x       y       z     vdW  Elec       q    Type
REMARK                         _______ _______ _______ _____ _____    ______ ____
ROOT
ATOM      1  C   UNL     1       0.655   0.118   4.744  0.00  0.00    -0.027 A 
ATOM      2  C   UNL     1       0.480   1.489   4.710  0.00  0.00    +0.007 A 
ATOM      3  C   UNL     1       1.024   2.281   5.703  0.00  0.00    +0.023 A 
ATOM      4  C   UNL     1       1.747   1.698   6.735  0.00  0.00    +0.035 A 
ATOM      5  C   UNL     1       1.921   0.321   6.767  0.00  0.00    +0.023 A 
ATOM      6  C   UNL     1       1.370  -0.466   5.774  0.00  0.00    +0.007 A 
ENDROOT
BRANCH   4   7
ATOM      7  N   UNL     1       2.300   2.498   7.742  0.00  0.00    -0.270 N 
ATOM      8  C   UNL     1       1.665   3.619   8.137  0.00  0.00    +0.301 C 
ATOM      9  O   UNL     1       0.566   3.885   7.690  0.00  0.00    -0.253 OA
ATOM     10  N   UNL     1       2.247   4.445   9.029  0.00  0.00    -0.313 N 
ATOM     11  H   UNL     1       3.140   2.245   8.155  0.00  0.00    +0.156 HD
ATOM     12  H   UNL     1       3.124   4.233   9.386  0.00  0.00    +0.146 HD
ATOM     13  H   UNL     1       1.790   5.252   9.313  0.00  0.00    +0.146 HD
ENDBRANCH   4   7
BRANCH   1  14
ATOM     14  C   UNL     1       0.060  -0.743   3.660  0.00  0.00    +0.098 C 
ATOM     15  C   UNL     1      -1.429  -0.958   3.938  0.00  0.00    +0.033 C 
BRANCH  14  16
ATOM     16  N   UNL     1       0.224  -0.079   2.364  0.00  0.00    -0.337 N 
ATOM     17  H   UNL     1       0.314   0.886   2.322  0.00  0.00    +0.147 HD
BRANCH  16  24
ATOM     18  C   UNL     1       0.546   1.291  -0.107  0.00  0.00    +0.045 C 
ATOM     19  C   UNL     1       0.406  -0.208  -0.039  0.00  0.00    -0.030 A 
ATOM     20  C   UNL     1       0.437  -0.959  -1.198  0.00  0.00    +0.006 A 
ATOM     21  C   UNL     1       0.308  -2.334  -1.136  0.00  0.00    +0.015 A 
ATOM     22  C   UNL     1       0.148  -2.962   0.086  0.00  0.00    +0.020 A 
ATOM     23  C   UNL     1       0.116  -2.217   1.249  0.00  0.00    +0.038 A 
ATOM     24  C   UNL     1       0.251  -0.836   1.190  0.00  0.00    +0.032 A 
ATOM     25 BR   UNL     1      -0.028  -4.844   0.165  0.00  0.00    -0.050 Br
ENDBRANCH  16  24
ENDBRANCH  14  16
ENDBRANCH   1  14
TORSDOF 4
