REMARK  Name = ZINC21706360
REMARK  9 active torsions:
REMARK  status: ('A' for Active; 'I' for Inactive)
REMARK    1  A    between atoms: C_1  and  C_2
REMARK    2  A    between atoms: C_2  and  O_3
REMARK    3  A    between atoms: O_3  and  C_4
REMARK    4  A    between atoms: C_4  and  C_6
REMARK    5  A    between atoms: C_10  and  N_11
REMARK    6  A    between atoms: C_12  and  C_14
REMARK    7  A    between atoms: C_14  and  N_15
REMARK    8  A    between atoms: C_23  and  C_25
REMARK    9  A    between atoms: C_30  and  C_34
REMARK                            x       y       z     vdW  Elec       q    Type
REMARK                         _______ _______ _______ _____ _____    ______ ____
ROOT
ATOM      1  N   UNL     1       2.342   3.289  -0.003  0.00  0.00    -0.278 N 
ATOM      2  C   UNL     1       1.634   4.437   0.009  0.00  0.00    +0.236 C 
ATOM      3  O   UNL     1       0.422   4.401   0.021  0.00  0.00    -0.274 OA
ATOM      4  H   UNL     1       3.441   3.321  -0.014  0.00  0.00    +0.155 HD
ENDROOT
BRANCH   1   9
ATOM      5  C   UNL     1       2.232   0.793  -0.015  0.00  0.00    +0.091 A 
ATOM      6  C   UNL     1       1.312  -0.332  -0.013  0.00  0.00    -0.021 A 
ATOM      7  C   UNL     1       0.002  -0.004   0.002  0.00  0.00    -0.004 A 
ATOM      8  S   UNL     1      -0.022   1.766   0.012  0.00  0.00    -0.077 S 
ATOM      9  C   UNL     1       1.684   2.070  -0.003  0.00  0.00    +0.086 A 
ATOM     10  C   UNL     1      -1.164  -0.944   0.009  0.00  0.00    +0.046 C 
ATOM     11  C   UNL     1      -0.654  -2.345   0.374  0.00  0.00    -0.009 C 
ATOM     12  C   UNL     1       0.581  -2.658  -0.476  0.00  0.00    +0.008 C 
ATOM     13  C   UNL     1       1.756  -1.789  -0.025  0.00  0.00    +0.037 C 
ATOM     14  C   UNL     1      -1.748  -3.378   0.096  0.00  0.00    +0.008 C 
BRANCH   5  15
ATOM     15  C   UNL     1       3.682   0.590  -0.030  0.00  0.00    +0.342 C 
ATOM     16  O   UNL     1       4.274   0.511  -1.090  0.00  0.00    -0.245 OA
BRANCH  15  17
ATOM     17  O   UNL     1       4.361   0.489   1.131  0.00  0.00    -0.461 OA
BRANCH  17  19
ATOM     18  C   UNL     1       6.389   0.198   2.447  0.00  0.00    +0.048 C 
ATOM     19  C   UNL     1       5.796   0.287   1.040  0.00  0.00    +0.229 C 
ENDBRANCH  17  19
ENDBRANCH  15  17
ENDBRANCH   5  15
ENDBRANCH   1   9
BRANCH   2  20
ATOM     20  C   UNL     1       2.350   5.763   0.009  0.00  0.00    +0.214 C 
BRANCH  20  21
ATOM     21  N   UNL     1       1.366   6.848   0.024  0.00  0.00    -0.215 N 
ATOM     22  C   UNL     1       0.850   7.419  -1.084  0.00  0.00    +0.247 C 
ATOM     23  O   UNL     1       1.101   7.143  -2.237  0.00  0.00    -0.273 OA
ATOM     24  C   UNL     1      -0.110   8.475  -0.585  0.00  0.00    +0.115 C 
ATOM     25  C   UNL     1      -1.530   8.171  -1.049  0.00  0.00    +0.035 C 
ATOM     26  C   UNL     1      -1.598   8.244  -2.576  0.00  0.00    +0.003 C 
ATOM     27  C   UNL     1      -1.180   9.642  -3.038  0.00  0.00    +0.000 C 
ATOM     28  C   UNL     1       0.255   9.921  -2.586  0.00  0.00    +0.006 C 
ATOM     29  C   UNL     1       0.330   9.855  -1.059  0.00  0.00    +0.018 C 
ATOM     30  C   UNL     1       1.768  10.115  -0.607  0.00  0.00    +0.010 C 
ATOM     31  N   UNL     1      -0.016   8.379   0.878  0.00  0.00    -0.285 N 
ATOM     32  C   UNL     1       0.872   7.401   1.139  0.00  0.00    +0.310 C 
ATOM     33  O   UNL     1       1.189   7.058   2.261  0.00  0.00    -0.252 OA
ATOM     34  H   UNL     1      -0.617   9.047   1.512  0.00  0.00    +0.151 HD
ENDBRANCH  20  21
ENDBRANCH   2  20
TORSDOF 6
