REMARK  Name = ZINC00825426
REMARK  8 active torsions:
REMARK  status: ('A' for Active; 'I' for Inactive)
REMARK    1  A    between atoms: C_1  and  N_2
REMARK    2  A    between atoms: C_5  and  C_7
REMARK    3  A    between atoms: N_9  and  N_10
REMARK    4  A    between atoms: C_11  and  C_12
REMARK    5  A    between atoms: C_15  and  O_20
REMARK    6  A    between atoms: C_16  and  O_18
REMARK    7  A    between atoms: O_18  and  C_19
REMARK    8  A    between atoms: O_20  and  C_21
REMARK                            x       y       z     vdW  Elec       q    Type
REMARK                         _______ _______ _______ _____ _____    ______ ____
ROOT
ATOM      1  N   UNL     1      -6.588  -0.790   0.966  0.00  0.00    -0.187 NA
ATOM      2  C   UNL     1      -6.019  -0.038   1.858  0.00  0.00    +0.138 C 
ENDROOT
BRANCH   2   3
ATOM      3  C   UNL     1      -4.616   0.380   1.683  0.00  0.00    -0.002 A 
ATOM      4  C   UNL     1      -3.897  -0.032   0.557  0.00  0.00    +0.013 A 
ATOM      5  C   UNL     1      -2.587   0.364   0.393  0.00  0.00    +0.050 A 
ATOM      6  C   UNL     1      -1.975   1.163   1.348  0.00  0.00    +0.162 A 
ATOM      7  C   UNL     1      -2.685   1.577   2.473  0.00  0.00    +0.162 A 
ATOM      8  C   UNL     1      -4.001   1.188   2.642  0.00  0.00    +0.059 A 
BRANCH   7   9
ATOM      9  O   UNL     1      -2.084   2.365   3.405  0.00  0.00    -0.491 OA
ATOM     10  C   UNL     1      -2.871   2.752   4.532  0.00  0.00    +0.277 C 
ENDBRANCH   7   9
BRANCH   6  11
ATOM     11  O   UNL     1      -0.682   1.547   1.184  0.00  0.00    -0.491 OA
ATOM     12  C   UNL     1      -0.013   1.086   0.008  0.00  0.00    +0.277 C 
ENDBRANCH   6  11
ENDBRANCH   2   3
BRANCH   1  15
ATOM     13  C   UNL     1      -8.512  -1.967   0.205  0.00  0.00    +0.284 C 
ATOM     14  O   UNL     1      -7.889  -2.326  -0.775  0.00  0.00    -0.267 OA
ATOM     15  N   UNL     1      -7.921  -1.187   1.132  0.00  0.00    -0.202 N 
ATOM     16  H   UNL     1      -8.419  -0.900   1.914  0.00  0.00    +0.178 HD
BRANCH  13  21
ATOM     17  C   UNL     1     -12.993  -2.466   2.149  0.00  0.00    +0.172 C 
ATOM     18  N   UNL     1     -11.866  -2.605   1.223  0.00  0.00    -0.273 N 
ATOM     19  C   UNL     1     -11.893  -3.313   0.067  0.00  0.00    +0.123 A 
ATOM     20  C   UNL     1     -10.669  -3.198  -0.501  0.00  0.00    +0.063 A 
ATOM     21  C   UNL     1      -9.918  -2.385   0.381  0.00  0.00    +0.162 A 
ATOM     22  N   UNL     1     -10.707  -2.077   1.390  0.00  0.00    -0.166 NA
ATOM     23  I   UNL     1     -10.024  -4.046  -2.304  0.00  0.00    -0.040 I 
ENDBRANCH  13  21
ENDBRANCH   1  15
TORSDOF 5
