REMARK  Name = ZINC42015368
REMARK  4 active torsions:
REMARK  status: ('A' for Active; 'I' for Inactive)
REMARK    1  A    between atoms: C_1  and  C_2
REMARK    2  A    between atoms: C_7  and  N_8
REMARK    3  A    between atoms: C_9  and  C_13
REMARK    4  A    between atoms: C_16  and  N_20
REMARK                            x       y       z     vdW  Elec       q    Type
REMARK                         _______ _______ _______ _____ _____    ______ ____
ROOT
ATOM      1  N   UNL     1      -0.536  -0.167   2.866  0.00  0.00    -0.192 N 
ATOM      2  C   UNL     1       0.390  -0.731   3.695  0.00  0.00    +0.188 A 
ATOM      3  N   UNL     1       1.083   0.257   4.223  0.00  0.00    -0.108 NA
ATOM      4  N   UNL     1       0.659   1.388   3.786  0.00  0.00    -0.022 NA
ATOM      5  N   UNL     1      -0.313   1.218   2.958  0.00  0.00    -0.039 NA
ENDROOT
BRANCH   1  12
ATOM      6  C   UNL     1       0.015  -0.563   0.102  0.00  0.00    +0.046 C 
ATOM      7  C   UNL     1      -1.267  -1.040   0.735  0.00  0.00    -0.024 A 
ATOM      8  C   UNL     1      -2.213  -1.695  -0.030  0.00  0.00    +0.020 A 
ATOM      9  C   UNL     1      -3.390  -2.133   0.550  0.00  0.00    +0.018 A 
ATOM     10  C   UNL     1      -3.624  -1.916   1.897  0.00  0.00    +0.017 A 
ATOM     11  C   UNL     1      -2.682  -1.262   2.665  0.00  0.00    +0.029 A 
ATOM     12  C   UNL     1      -1.496  -0.826   2.087  0.00  0.00    +0.072 A 
ATOM     13 BR   UNL     1      -4.683  -3.029  -0.499  0.00  0.00    -0.050 Br
ENDBRANCH   1  12
BRANCH   2  14
ATOM     14  C   UNL     1       0.579  -2.174   3.951  0.00  0.00    +0.039 A 
ATOM     15  C   UNL     1       0.662  -3.070   2.883  0.00  0.00    +0.015 A 
ATOM     16  C   UNL     1       0.838  -4.414   3.125  0.00  0.00    +0.023 A 
ATOM     17  C   UNL     1       0.934  -4.881   4.432  0.00  0.00    +0.026 A 
ATOM     18  C   UNL     1       0.852  -3.993   5.498  0.00  0.00    +0.043 A 
ATOM     19  C   UNL     1       0.681  -2.645   5.263  0.00  0.00    +0.053 A 
ATOM     20 CL   UNL     1       0.586  -1.535   6.595  0.00  0.00    -0.083 Cl
BRANCH  17  21
ATOM     21  N   UNL     1       1.112  -6.243   4.673  0.00  0.00    -0.358 N 
ATOM     22  H   UNL     1       1.169  -6.864   3.930  0.00  0.00    +0.142 HD
ATOM     23  H   UNL     1       1.178  -6.570   5.584  0.00  0.00    +0.142 HD
ENDBRANCH  17  21
ENDBRANCH   2  14
TORSDOF 3
