REMARK  Name = ZINC26560303
REMARK  5 active torsions:
REMARK  status: ('A' for Active; 'I' for Inactive)
REMARK    1  A    between atoms: C_1  and  C_2
REMARK    2  A    between atoms: C_10  and  C_11
REMARK    3  A    between atoms: N_13  and  N_14
REMARK    4  A    between atoms: C_15  and  C_17
REMARK    5  A    between atoms: C_18  and  C_19
REMARK                            x       y       z     vdW  Elec       q    Type
REMARK                         _______ _______ _______ _____ _____    ______ ____
ROOT
ATOM      1  N   UNL     1       0.060  -0.867   4.814  0.00  0.00    -0.231 N 
ATOM      2  C   UNL     1       0.082  -1.776   5.809  0.00  0.00    +0.253 C 
ATOM      3  O   UNL     1       0.097  -2.964   5.548  0.00  0.00    -0.269 OA
ATOM      4  H   UNL     1       0.049   0.080   5.022  0.00  0.00    +0.173 HD
ENDROOT
BRANCH   1   7
ATOM      5  C   UNL     1       0.031  -0.382   2.484  0.00  0.00    +0.296 C 
ATOM      6  O   UNL     1       0.017   0.806   2.745  0.00  0.00    -0.265 OA
ATOM      7  N   UNL     1       0.053  -1.291   3.479  0.00  0.00    -0.228 N 
ATOM      8  H   UNL     1       0.065  -2.238   3.270  0.00  0.00    +0.173 HD
BRANCH   5  18
ATOM      9  C   UNL     1      -0.018   1.503   0.010  0.00  0.00    +0.048 C 
ATOM     10  C   UNL     1       0.002  -0.004   0.002  0.00  0.00    +0.008 A 
ATOM     11  C   UNL     1       0.009  -0.877  -1.171  0.00  0.00    +0.024 A 
ATOM     12  C   UNL     1      -0.001  -0.654  -2.551  0.00  0.00    +0.012 A 
ATOM     13  C   UNL     1       0.010  -1.718  -3.408  0.00  0.00    +0.001 A 
ATOM     14  C   UNL     1       0.030  -3.017  -2.918  0.00  0.00    +0.004 A 
ATOM     15  C   UNL     1       0.040  -3.257  -1.561  0.00  0.00    +0.047 A 
ATOM     16  C   UNL     1       0.030  -2.191  -0.669  0.00  0.00    +0.136 A 
ATOM     17  O   UNL     1       0.035  -2.113   0.676  0.00  0.00    -0.450 OA
ATOM     18  C   UNL     1       0.024  -0.826   1.083  0.00  0.00    +0.195 A 
ENDBRANCH   5  18
ENDBRANCH   1   7
BRANCH   2  19
ATOM     19  C   UNL     1       0.089  -1.332   7.208  0.00  0.00    +0.071 C 
ATOM     20  C   UNL     1       0.112  -2.240   8.202  0.00  0.00    +0.033 C 
BRANCH  20  21
ATOM     21  C   UNL     1       0.119  -1.794   9.607  0.00  0.00    +0.065 A 
ATOM     22  C   UNL     1       0.148  -2.755  10.633  0.00  0.00    +0.028 A 
ATOM     23  C   UNL     1       0.155  -2.355  11.937  0.00  0.00    +0.012 A 
ATOM     24  C   UNL     1       0.132  -0.973  12.211  0.00  0.00    +0.000 A 
ATOM     25  C   UNL     1       0.138  -0.493  13.530  0.00  0.00    +0.010 A 
ATOM     26  C   UNL     1       0.116   0.849  13.758  0.00  0.00    +0.001 A 
ATOM     27  C   UNL     1       0.087   1.756  12.700  0.00  0.00    +0.002 A 
ATOM     28  C   UNL     1       0.080   1.327  11.409  0.00  0.00    +0.028 A 
ATOM     29  C   UNL     1       0.103  -0.053  11.131  0.00  0.00    +0.072 A 
ATOM     30  N   UNL     1       0.103  -0.500   9.875  0.00  0.00    -0.247 NA
ENDBRANCH  20  21
ENDBRANCH   2  19
TORSDOF 4
