REMARK  Name = ZINC46943712
REMARK  6 active torsions:
REMARK  status: ('A' for Active; 'I' for Inactive)
REMARK    1  A    between atoms: C_1  and  C_2
REMARK    2  A    between atoms: C_5  and  S_8
REMARK    3  A    between atoms: S_8  and  C_9
REMARK    4  A    between atoms: C_9  and  C_10
REMARK    5  A    between atoms: N_12  and  N_13
REMARK    6  A    between atoms: N_16  and  C_17
REMARK                            x       y       z     vdW  Elec       q    Type
REMARK                         _______ _______ _______ _____ _____    ______ ____
ROOT
ATOM      1  N   UNL     1       0.079  -8.398   3.229  0.00  0.00    -0.218 N 
ATOM      2  C   UNL     1       0.111  -8.975   4.447  0.00  0.00    +0.316 C 
ATOM      3  O   UNL     1       0.150 -10.186   4.544  0.00  0.00    -0.251 OA
ATOM      4  N   UNL     1       0.099  -8.209   5.556  0.00  0.00    -0.295 N 
ATOM      5  H   UNL     1       0.087  -8.948   2.431  0.00  0.00    +0.174 HD
ATOM      6  H   UNL     1       0.067  -7.243   5.478  0.00  0.00    +0.151 HD
ENDROOT
BRANCH   4   7
ATOM      7  C   UNL     1       0.133  -8.837   6.879  0.00  0.00    +0.077 C 
ATOM      8  C   UNL     1       1.585  -9.124   7.269  0.00  0.00    +0.041 C 
ATOM      9  C   UNL     1       1.615  -9.812   8.638  0.00  0.00    +0.108 C 
ATOM     10  N   UNL     1       0.885  -8.978   9.602  0.00  0.00    -0.317 N 
ATOM     11  C   UNL     1      -0.489  -8.567   9.284  0.00  0.00    +0.108 C 
ATOM     12  C   UNL     1      -0.495  -7.894   7.907  0.00  0.00    +0.041 C 
ATOM     13  C   UNL     1       1.484  -8.585  10.794  0.00  0.00    +0.099 A 
ATOM     14  C   UNL     1       2.736  -9.085  11.135  0.00  0.00    +0.042 A 
ATOM     15  C   UNL     1       3.320  -8.686  12.323  0.00  0.00    +0.005 A 
ATOM     16  C   UNL     1       2.628  -7.795  13.135  0.00  0.00    +0.018 A 
ATOM     17  C   UNL     1       1.389  -7.339  12.735  0.00  0.00    +0.084 A 
ATOM     18  N   UNL     1       0.859  -7.733  11.592  0.00  0.00    -0.350 N 
ATOM     19  H   UNL     1      -0.012  -7.393  11.333  0.00  0.00    +0.166 HD
ENDBRANCH   4   7
BRANCH   1  22
ATOM     20  C   UNL     1       0.001  -6.425   1.899  0.00  0.00    +0.239 C 
ATOM     21  O   UNL     1       0.012  -7.113   0.901  0.00  0.00    -0.273 OA
ATOM     22  N   UNL     1       0.033  -7.002   3.117  0.00  0.00    -0.233 N 
ATOM     23  H   UNL     1       0.024  -6.451   3.915  0.00  0.00    +0.173 HD
BRANCH  20  24
ATOM     24  C   UNL     1      -0.048  -4.923   1.778  0.00  0.00    +0.171 C 
BRANCH  24  25
ATOM     25  S   UNL     1      -0.083  -4.459   0.025  0.00  0.00    -0.116 S 
BRANCH  25  30
ATOM     26  C   UNL     1      -0.277   1.574   0.117  0.00  0.00    +0.044 C 
ATOM     27  C   UNL     1      -0.228   0.068   0.094  0.00  0.00    -0.050 A 
ATOM     28  C   UNL     1      -0.219  -0.604  -1.115  0.00  0.00    +0.004 A 
ATOM     29  C   UNL     1      -0.175  -1.984  -1.140  0.00  0.00    +0.015 A 
ATOM     30  C   UNL     1      -0.139  -2.698   0.052  0.00  0.00    +0.008 A 
ATOM     31  C   UNL     1      -0.147  -2.019   1.265  0.00  0.00    +0.015 A 
ATOM     32  C   UNL     1      -0.186  -0.639   1.282  0.00  0.00    +0.004 A 
ENDBRANCH  25  30
ENDBRANCH  24  25
ENDBRANCH  20  24
ENDBRANCH   1  22
TORSDOF 5
