REMARK  Name = ZINC22263063
REMARK  7 active torsions:
REMARK  status: ('A' for Active; 'I' for Inactive)
REMARK    1  A    between atoms: C_1  and  N_2
REMARK    2  A    between atoms: C_6  and  C_7
REMARK    3  A    between atoms: C_7  and  C_9
REMARK    4  A    between atoms: C_7  and  N_17
REMARK    5  A    between atoms: C_13  and  O_15
REMARK    6  A    between atoms: O_15  and  C_16
REMARK    7  A    between atoms: N_17  and  C_18
REMARK                            x       y       z     vdW  Elec       q    Type
REMARK                         _______ _______ _______ _____ _____    ______ ____
ROOT
ATOM      1  C   UNL     1      -0.013   1.086   0.008  0.00  0.00    +0.166 C 
ENDROOT
BRANCH   1   7
ATOM      2  C   UNL     1       2.542  -0.531  -0.669  0.00  0.00    +0.150 C 
ATOM      3  N   UNL     1       2.504   0.887  -0.301  0.00  0.00    -0.337 N 
ATOM      4  C   UNL     1       3.578   1.728  -0.196  0.00  0.00    +0.104 A 
ATOM      5  C   UNL     1       3.095   2.933   0.164  0.00  0.00    +0.102 A 
ATOM      6  N   UNL     1       1.762   2.832   0.269  0.00  0.00    -0.348 N 
ATOM      7  C   UNL     1       1.401   1.607  -0.003  0.00  0.00    +0.112 A 
ATOM      8  H   UNL     1       1.164   3.711   0.549  0.00  0.00    +0.167 HD
ENDBRANCH   1   7
BRANCH   1   9
ATOM      9  C   UNL     1      -0.742   1.585  -1.213  0.00  0.00    -0.017 A 
ATOM     10  C   UNL     1      -1.257   2.868  -1.233  0.00  0.00    +0.006 A 
ATOM     11  C   UNL     1      -1.921   3.331  -2.354  0.00  0.00    +0.004 A 
ATOM     12  C   UNL     1      -2.082   2.508  -3.452  0.00  0.00    +0.045 A 
ATOM     13  C   UNL     1      -1.570   1.219  -3.432  0.00  0.00    +0.120 A 
ATOM     14  C   UNL     1      -0.899   0.759  -2.308  0.00  0.00    +0.051 A 
BRANCH  13  15
ATOM     15  O   UNL     1      -1.727   0.408  -4.511  0.00  0.00    -0.495 OA
ATOM     16  C   UNL     1      -2.428   0.948  -5.633  0.00  0.00    +0.277 C 
ENDBRANCH  13  15
ENDBRANCH   1   9
BRANCH   1  17
ATOM     17  N   UNL     1      -0.698   1.558   1.213  0.00  0.00    -0.328 N 
ATOM     18  H   UNL     1      -1.314   2.469   1.175  0.00  0.00    +0.147 HD
BRANCH  17  19
ATOM     19  C   UNL     1      -0.572   0.858   2.401  0.00  0.00    +0.072 A 
ATOM     20  C   UNL     1       0.211  -0.315   2.457  0.00  0.00    +0.157 A 
ATOM     21  N   UNL     1       0.336  -0.973   3.575  0.00  0.00    -0.177 NA
ATOM     22  N   UNL     1      -0.308  -0.543   4.740  0.00  0.00    -0.242 N 
ATOM     23  H   UNL     1      -0.194  -1.113   5.674  0.00  0.00    +0.192 HD
ATOM     24  C   UNL     1      -1.070   0.569   4.732  0.00  0.00    +0.285 A 
ATOM     25  O   UNL     1      -1.630   0.938   5.753  0.00  0.00    -0.265 OA
ATOM     26  C   UNL     1      -1.217   1.298   3.543  0.00  0.00    +0.129 A 
ATOM     27 CL   UNL     1      -2.193   2.733   3.505  0.00  0.00    -0.076 Cl
ENDBRANCH  17  19
ENDBRANCH   1  17
TORSDOF 5
