REMARK  Name = ZINC39666282
REMARK  9 active torsions:
REMARK  status: ('A' for Active; 'I' for Inactive)
REMARK    1  A    between atoms: C_1  and  C_2
REMARK    2  A    between atoms: C_5  and  O_8
REMARK    3  A    between atoms: O_8  and  C_9
REMARK    4  A    between atoms: C_9  and  C_11
REMARK    5  A    between atoms: C_9  and  C_12
REMARK    6  A    between atoms: C_12  and  N_13
REMARK    7  A    between atoms: C_14  and  C_16
REMARK    8  A    between atoms: C_27  and  C_29
REMARK    9  A    between atoms: C_30  and  C_34
REMARK                            x       y       z     vdW  Elec       q    Type
REMARK                         _______ _______ _______ _____ _____    ______ ____
ROOT
ATOM      1  C   UNL     1      -4.034  -6.660   0.418  0.00  0.00    +0.100 C 
ATOM      2  C   UNL     1      -4.660  -5.798   1.537  0.00  0.00    +0.121 C 
ATOM      3  N   UNL     1      -6.047  -6.303   1.668  0.00  0.00    -0.296 N 
ATOM      4  C   UNL     1      -5.920  -7.772   1.514  0.00  0.00    +0.115 C 
ATOM      5  C   UNL     1      -4.864  -7.955   0.407  0.00  0.00    -0.004 C 
ATOM      6  C   UNL     1      -5.544  -8.134  -0.947  0.00  0.00    -0.010 C 
ATOM      7  C   UNL     1      -6.317  -9.457  -0.953  0.00  0.00    -0.082 C 
ATOM      8  N   UNL     1      -5.391 -10.567  -0.697  0.00  0.00    +0.379 N 
ATOM      9  C   UNL     1      -4.811 -10.436   0.645  0.00  0.00    -0.082 C 
ATOM     10  C   UNL     1      -3.975  -9.155   0.719  0.00  0.00    -0.010 C 
ATOM     11  C   UNL     1      -7.170  -5.588   1.879  0.00  0.00    +0.254 C 
ATOM     12  O   UNL     1      -7.102  -4.387   2.059  0.00  0.00    -0.269 OA
ATOM     13  H   UNL     1      -5.891 -11.441  -0.762  0.00  0.00    -0.086 HD
ATOM     14  H   UNL     1      -4.653 -10.553  -1.384  0.00  0.00    -0.086 HD
ENDROOT
BRANCH  11  15
ATOM     15  C   UNL     1      -8.474  -6.259   1.892  0.00  0.00    +0.077 A 
ATOM     16  C   UNL     1      -9.742  -5.702   1.964  0.00  0.00    -0.031 A 
ATOM     17  C   UNL     1     -10.786  -6.595   1.957  0.00  0.00    +0.011 A 
ATOM     18  C   UNL     1     -10.519  -7.923   1.883  0.00  0.00    +0.046 A 
ATOM     19  S   UNL     1      -8.842  -8.001   1.812  0.00  0.00    -0.092 S 
ATOM     20  C   UNL     1      -9.960  -4.214   2.045  0.00  0.00    +0.045 C 
ENDBRANCH  11  15
BRANCH   1  22
ATOM     21  N   UNL     1      -1.706  -7.137  -0.267  0.00  0.00    -0.312 N 
ATOM     22  C   UNL     1      -2.592  -6.963   0.733  0.00  0.00    +0.218 C 
ATOM     23  O   UNL     1      -2.229  -7.050   1.887  0.00  0.00    -0.275 OA
ATOM     24  H   UNL     1      -1.996  -7.067  -1.190  0.00  0.00    +0.149 HD
BRANCH  21  25
ATOM     25  C   UNL     1      -0.304  -7.432   0.040  0.00  0.00    +0.148 C 
BRANCH  25  26
ATOM     26  C   UNL     1       0.482  -7.582  -1.264  0.00  0.00    +0.187 C 
ATOM     27  C   UNL     1       1.946  -7.890  -0.944  0.00  0.00    +0.053 C 
BRANCH  26  28
ATOM     28  O   UNL     1      -0.072  -8.651  -2.034  0.00  0.00    -0.488 OA
BRANCH  28  33
ATOM     29  C   UNL     1       0.837  -8.537  -7.592  0.00  0.00    +0.044 C 
ATOM     30  C   UNL     1       0.594  -8.567  -6.105  0.00  0.00    -0.050 A 
ATOM     31  C   UNL     1       1.029  -7.521  -5.312  0.00  0.00    +0.007 A 
ATOM     32  C   UNL     1       0.808  -7.547  -3.949  0.00  0.00    +0.046 A 
ATOM     33  C   UNL     1       0.147  -8.623  -3.375  0.00  0.00    +0.121 A 
ATOM     34  C   UNL     1      -0.289  -9.671  -4.172  0.00  0.00    +0.046 A 
ATOM     35  C   UNL     1      -0.070  -9.639  -5.536  0.00  0.00    +0.007 A 
ENDBRANCH  28  33
ENDBRANCH  26  28
ENDBRANCH  25  26
ENDBRANCH  21  25
ENDBRANCH   1  22
TORSDOF 6
