REMARK  Name = ZINC09009795
REMARK  9 active torsions:
REMARK  status: ('A' for Active; 'I' for Inactive)
REMARK    1  A    between atoms: C_1  and  C_2
REMARK    2  A    between atoms: C_2  and  N_3
REMARK    3  A    between atoms: N_3  and  C_4
REMARK    4  A    between atoms: N_3  and  C_6
REMARK    5  A    between atoms: C_4  and  C_5
REMARK    6  A    between atoms: C_9  and  C_13
REMARK    7  A    between atoms: C_10  and  O_12
REMARK    8  A    between atoms: N_14  and  N_15
REMARK    9  A    between atoms: C_16  and  C_21
REMARK                            x       y       z     vdW  Elec       q    Type
REMARK                         _______ _______ _______ _____ _____    ______ ____
ROOT
ATOM      1  C   UNL     1      -2.515   3.879   0.048  0.00  0.00    +0.145 C 
ATOM      2  N   UNL     1      -3.634   3.221   0.055  0.00  0.00    -0.170 NA
ENDROOT
BRANCH   1   6
ATOM      3  C   UNL     1       1.181   1.786   0.000  0.00  0.00    +0.033 A 
ATOM      4  C   UNL     1       1.168   3.179   0.007  0.00  0.00    +0.024 A 
ATOM      5  C   UNL     1      -0.028   3.860   0.023  0.00  0.00    +0.015 A 
ATOM      6  C   UNL     1      -1.234   3.154   0.031  0.00  0.00    +0.036 A 
ATOM      7  C   UNL     1      -1.220   1.751   0.017  0.00  0.00    +0.127 A 
ATOM      8  C   UNL     1      -0.013   1.076   0.008  0.00  0.00    +0.069 A 
BRANCH   7   9
ATOM      9  O   UNL     1      -2.388   1.058   0.019  0.00  0.00    -0.506 OA
ATOM     10  H   UNL     1      -2.374  -0.042   0.008  0.00  0.00    +0.292 HD
ENDBRANCH   7   9
BRANCH   3  11
ATOM     11  N   UNL     1       2.396   1.103  -0.015  0.00  0.00    -0.330 N 
BRANCH  11  13
ATOM     12  C   UNL     1       4.109   2.102   1.417  0.00  0.00    +0.024 C 
ATOM     13  C   UNL     1       3.656   1.850  -0.023  0.00  0.00    +0.102 C 
ENDBRANCH  11  13
BRANCH  11  14
ATOM     14  C   UNL     1       2.412  -0.362  -0.023  0.00  0.00    +0.102 C 
ATOM     15  C   UNL     1       2.404  -0.864  -1.468  0.00  0.00    +0.024 C 
ENDBRANCH  11  14
ENDBRANCH   3  11
ENDBRANCH   1   6
BRANCH   2  16
ATOM     16  N   UNL     1      -4.853   3.911   0.071  0.00  0.00    -0.186 N 
ATOM     17  C   UNL     1      -5.589   4.327  -1.016  0.00  0.00    +0.187 A 
ATOM     18  N   UNL     1      -6.657   4.932  -0.550  0.00  0.00    -0.126 NA
ATOM     19  N   UNL     1      -6.642   4.924   0.735  0.00  0.00    -0.119 NA
ATOM     20  C   UNL     1      -5.565   4.308   1.170  0.00  0.00    +0.223 A 
ATOM     21  S   UNL     1      -5.120   4.045   2.855  0.00  0.00    -0.007 SA
BRANCH  17  22
ATOM     22  C   UNL     1      -5.241   4.131  -2.439  0.00  0.00    +0.039 A 
ATOM     23  C   UNL     1      -4.061   3.470  -2.788  0.00  0.00    +0.014 A 
ATOM     24  C   UNL     1      -3.744   3.286  -4.117  0.00  0.00    +0.021 A 
ATOM     25  C   UNL     1      -4.588   3.764  -5.107  0.00  0.00    +0.042 A 
ATOM     26  C   UNL     1      -5.757   4.424  -4.768  0.00  0.00    +0.040 A 
ATOM     27  C   UNL     1      -6.088   4.611  -3.441  0.00  0.00    +0.053 A 
ATOM     28 CL   UNL     1      -7.554   5.439  -3.018  0.00  0.00    -0.083 Cl
ATOM     29 CL   UNL     1      -4.179   3.532  -6.778  0.00  0.00    -0.083 Cl
ENDBRANCH  17  22
ENDBRANCH   2  16
TORSDOF 7
