REMARK  Name = ZINC21726685
REMARK  9 active torsions:
REMARK  status: ('A' for Active; 'I' for Inactive)
REMARK    1  A    between atoms: C_1  and  C_2
REMARK    2  A    between atoms: C_9  and  C_13
REMARK    3  A    between atoms: C_24  and  C_26
REMARK    4  A    between atoms: C_29  and  O_34
REMARK    5  A    between atoms: C_30  and  O_32
REMARK    6  A    between atoms: O_32  and  C_33
REMARK    7  A    between atoms: O_34  and  C_35
REMARK    8  A    between atoms: C_35  and  C_36
REMARK    9  A    between atoms: C_35  and  C_37
REMARK                            x       y       z     vdW  Elec       q    Type
REMARK                         _______ _______ _______ _____ _____    ______ ____
ROOT
ATOM      1  C   UNL     1       2.819   3.896  -3.583  0.00  0.00    +0.068 C 
ATOM      2  C   UNL     1       4.305   4.122  -3.473  0.00  0.00    +0.066 A 
ATOM      3  C   UNL     1       4.992   4.466  -2.317  0.00  0.00    +0.023 A 
ATOM      4  C   UNL     1       6.321   4.572  -2.630  0.00  0.00    +0.136 A 
ATOM      5  N   UNL     1       6.451   4.310  -3.949  0.00  0.00    -0.182 N 
ATOM      6  N   UNL     1       5.171   4.026  -4.454  0.00  0.00    -0.167 NA
ATOM      7  C   UNL     1       7.640   4.318  -4.677  0.00  0.00    +0.273 A 
ATOM      8  N   UNL     1       7.616   4.040  -5.971  0.00  0.00    -0.208 NA
ATOM      9  C   UNL     1       8.755   4.050  -6.662  0.00  0.00    +0.095 A 
ATOM     10  C   UNL     1       9.943   4.356  -5.990  0.00  0.00    +0.163 A 
ATOM     11  N   UNL     1       9.899   4.625  -4.698  0.00  0.00    -0.152 NA
ATOM     12  N   UNL     1       8.779   4.611  -4.065  0.00  0.00    -0.109 NA
ATOM     13  N   UNL     1       7.280   4.894  -1.673  0.00  0.00    -0.270 N 
ATOM     14  C   UNL     1       6.907   4.899  -0.376  0.00  0.00    +0.219 C 
ATOM     15  O   UNL     1       7.666   5.355   0.453  0.00  0.00    -0.275 OA
ATOM     16  C   UNL     1       5.580   4.356   0.073  0.00  0.00    +0.109 C 
ATOM     17  C   UNL     1       4.470   4.705  -0.923  0.00  0.00    +0.063 C 
ATOM     18  H   UNL     1       8.308   5.134  -1.983  0.00  0.00    +0.156 HD
ENDROOT
BRANCH   9  19
ATOM     19  C   UNL     1       8.764   3.743  -8.113  0.00  0.00    +0.002 A 
ATOM     20  C   UNL     1       7.563   3.536  -8.791  0.00  0.00    +0.013 A 
ATOM     21  C   UNL     1       7.576   3.257 -10.142  0.00  0.00    +0.039 A 
ATOM     22  C   UNL     1       8.780   3.170 -10.822  0.00  0.00    +0.123 A 
ATOM     23  C   UNL     1       9.976   3.369 -10.151  0.00  0.00    +0.039 A 
ATOM     24  C   UNL     1       9.973   3.655  -8.802  0.00  0.00    +0.013 A 
ATOM     25  F   UNL     1       8.787   2.892 -12.144  0.00  0.00    -0.205 F 
ENDBRANCH   9  19
BRANCH  17  26
ATOM     26  C   UNL     1       3.269   3.830  -0.674  0.00  0.00    -0.036 A 
ATOM     27  C   UNL     1       3.389   2.455  -0.752  0.00  0.00    +0.008 A 
ATOM     28  C   UNL     1       2.290   1.648  -0.523  0.00  0.00    +0.050 A 
ATOM     29  C   UNL     1       1.065   2.217  -0.215  0.00  0.00    +0.162 A 
ATOM     30  C   UNL     1       0.942   3.602  -0.142  0.00  0.00    +0.162 A 
ATOM     31  C   UNL     1       2.049   4.404  -0.367  0.00  0.00    +0.053 A 
BRANCH  30  32
ATOM     32  O   UNL     1      -0.259   4.165   0.154  0.00  0.00    -0.491 OA
ATOM     33  C   UNL     1      -0.310   5.592   0.211  0.00  0.00    +0.277 C 
ENDBRANCH  30  32
BRANCH  29  34
ATOM     34  O   UNL     1      -0.017   1.425   0.010  0.00  0.00    -0.486 OA
BRANCH  34  35
ATOM     35  C   UNL     1       0.205   0.013   0.030  0.00  0.00    +0.167 C 
ATOM     36  C   UNL     1      -0.882  -0.662   0.868  0.00  0.00    +0.051 C 
ATOM     37  C   UNL     1       0.160  -0.531  -1.399  0.00  0.00    +0.051 C 
ENDBRANCH  34  35
ENDBRANCH  29  34
ENDBRANCH  17  26
TORSDOF 5
