REMARK  Name = ZINC39755066
REMARK  13 active torsions:
REMARK  status: ('A' for Active; 'I' for Inactive)
REMARK    1  A    between atoms: C_1  and  C_2
REMARK    2  A    between atoms: C_2  and  N_3
REMARK    3  A    between atoms: C_4  and  CA_20
REMARK    4  A    between atoms: C_7  and  S_8
REMARK    5  A    between atoms: S_8  and  C_9
REMARK    6  A    between atoms: C_9  and  C_11
REMARK    7  A    between atoms: C_9  and  C_12
REMARK    8  A    between atoms: C_12  and  N_14
REMARK    9  A    between atoms: CA_20  and  C_22
REMARK   10  A    between atoms: CA_20  and  N_24
REMARK   11  A    between atoms: C_22  and  O_23
REMARK   12  A    between atoms: C_25  and  C_27
REMARK   13  A    between atoms: C_31  and  C_33
REMARK                            x       y       z     vdW  Elec       q    Type
REMARK                         _______ _______ _______ _____ _____    ______ ____
ROOT
ATOM      1  N   UNL     1      -1.372  -0.511   0.012  0.00  0.00    -0.305 N 
ATOM      2  C   UNL     1      -2.139  -0.798   1.108  0.00  0.00    +0.157 A 
ATOM      3  N   UNL     1      -3.292  -1.221   0.675  0.00  0.00    -0.131 NA
ATOM      4  N   UNL     1      -3.308  -1.222  -0.610  0.00  0.00    -0.122 NA
ATOM      5  C   UNL     1      -2.156  -0.790  -1.070  0.00  0.00    +0.192 A 
ENDROOT
BRANCH   1   7
ATOM      6  C   UNL     1      -0.019   1.526   0.010  0.00  0.00    +0.027 C 
ATOM      7  C   UNL     1       0.002  -0.004   0.002  0.00  0.00    +0.122 C 
ENDBRANCH   1   7
BRANCH   5   8
ATOM      8  S   UNL     1      -1.707  -0.609  -2.764  0.00  0.00    -0.073 S 
BRANCH   8   9
ATOM      9  C   UNL     1      -3.184  -1.145  -3.670  0.00  0.00    +0.139 C 
ATOM     10  C   UNL     1      -4.335  -0.179  -3.385  0.00  0.00    +0.029 C 
BRANCH   9  11
ATOM     11  C   UNL     1      -2.890  -1.155  -5.148  0.00  0.00    +0.251 C 
ATOM     12  O   UNL     1      -1.959  -0.509  -5.587  0.00  0.00    -0.272 OA
BRANCH  11  13
ATOM     13  N   UNL     1      -3.651  -1.871  -5.973  0.00  0.00    -0.158 NA
ATOM     14  C   UNL     1      -3.392  -1.880  -7.275  0.00  0.00    +0.146 C 
ATOM     15  N   UNL     1      -4.084  -2.556  -8.221  0.00  0.00    -0.325 N 
ATOM     16  C   UNL     1      -3.684  -2.471  -9.610  0.00  0.00    +0.114 C 
ATOM     17  C   UNL     1      -2.451  -1.559  -9.780  0.00  0.00    +0.095 C 
ATOM     18  S   UNL     1      -2.155  -1.051  -8.043  0.00  0.00    -0.092 S 
ATOM     19  H   UNL     1      -4.848  -3.098  -7.968  0.00  0.00    +0.148 HD
ENDBRANCH  11  13
ENDBRANCH   9  11
ENDBRANCH   8   9
ENDBRANCH   5   8
BRANCH   2  20
ATOM     20  CA  UNL     1      -1.725  -0.651   2.550  0.00  0.00    +0.167 C 
BRANCH  20  21
ATOM     21  N   UNL     1      -2.130  -1.844   3.298  0.00  0.00    -0.299 N 
ATOM     22  C   UNL     1      -1.472  -2.191   4.421  0.00  0.00    +0.245 C 
ATOM     23  O   UNL     1      -0.541  -1.514   4.814  0.00  0.00    -0.270 OA
ATOM     24  H   UNL     1      -2.872  -2.384   2.984  0.00  0.00    +0.150 HD
BRANCH  22  25
ATOM     25  C   UNL     1      -1.881  -3.395   5.176  0.00  0.00    +0.037 A 
ATOM     26  C   UNL     1      -2.945  -4.178   4.724  0.00  0.00    +0.013 A 
ATOM     27  C   UNL     1      -3.321  -5.300   5.433  0.00  0.00    +0.001 A 
ATOM     28  C   UNL     1      -2.646  -5.650   6.589  0.00  0.00    +0.003 A 
ATOM     29  C   UNL     1      -1.591  -4.879   7.042  0.00  0.00    -0.050 A 
ATOM     30  C   UNL     1      -1.201  -3.757   6.340  0.00  0.00    +0.016 A 
ATOM     31  C   UNL     1      -0.862  -5.268   8.303  0.00  0.00    +0.044 C 
ENDBRANCH  22  25
ENDBRANCH  20  21
BRANCH  20  32
ATOM     32  C   UNL     1      -2.401   0.582   3.152  0.00  0.00    +0.186 C 
BRANCH  32  33
ATOM     33  O   UNL     1      -3.816   0.485   2.972  0.00  0.00    -0.393 OA
ATOM     34  H   UNL     1      -4.310   1.235   3.330  0.00  0.00    +0.209 HD
ENDBRANCH  32  33
ENDBRANCH  20  32
ENDBRANCH   2  20
TORSDOF 10
