REMARK  Name = ZINC39352217
REMARK  8 active torsions:
REMARK  status: ('A' for Active; 'I' for Inactive)
REMARK    1  A    between atoms: C_1  and  O_2
REMARK    2  A    between atoms: O_2  and  C_3
REMARK    3  A    between atoms: C_3  and  C_5
REMARK    4  A    between atoms: C_6  and  C_25
REMARK    5  A    between atoms: C_15  and  C_17
REMARK    6  A    between atoms: C_22  and  O_23
REMARK    7  A    between atoms: C_25  and  O_27
REMARK    8  A    between atoms: O_27  and  C_28
REMARK                            x       y       z     vdW  Elec       q    Type
REMARK                         _______ _______ _______ _____ _____    ______ ____
ROOT
ATOM      1  C   UNL     1      -1.306  -2.174  -0.020  0.00  0.00    +0.066 C 
ATOM      2  C   UNL     1      -2.482  -2.816   0.055  0.00  0.00    +0.108 C 
ATOM      3  S   UNL     1      -2.601  -4.571   0.071  0.00  0.00    -0.068 S 
ATOM      4  C   UNL     1      -1.021  -5.066   0.299  0.00  0.00    +0.087 C 
ATOM      5  N   UNL     1      -0.582  -6.261   0.080  0.00  0.00    -0.167 NA
ATOM      6  C   UNL     1       0.706  -6.640   0.198  0.00  0.00    +0.297 C 
ATOM      7  O   UNL     1       1.176  -7.763   0.155  0.00  0.00    -0.261 OA
ATOM      8  S   UNL     1       1.552  -5.079   0.433  0.00  0.00    -0.055 S 
ATOM      9  C   UNL     1       0.046  -4.088   0.814  0.00  0.00    +0.121 C 
ATOM     10  C   UNL     1       0.025  -2.859  -0.098  0.00  0.00    +0.080 C 
ENDROOT
BRANCH  10  11
ATOM     11  C   UNL     1       0.282  -3.284  -1.520  0.00  0.00    +0.005 A 
ATOM     12  C   UNL     1      -0.663  -4.028  -2.201  0.00  0.00    +0.028 A 
ATOM     13  C   UNL     1      -0.427  -4.419  -3.507  0.00  0.00    +0.041 A 
ATOM     14  C   UNL     1       0.755  -4.066  -4.134  0.00  0.00    +0.023 A 
ATOM     15  C   UNL     1       1.702  -3.323  -3.457  0.00  0.00    +0.047 A 
ATOM     16  C   UNL     1       1.465  -2.925  -2.149  0.00  0.00    +0.121 A 
ATOM     17 CL   UNL     1      -1.615  -5.354  -4.360  0.00  0.00    -0.084 Cl
BRANCH  16  18
ATOM     18  O   UNL     1       2.393  -2.188  -1.483  0.00  0.00    -0.506 OA
ATOM     19  H   UNL     1       3.042  -2.717  -0.999  0.00  0.00    +0.292 HD
ENDBRANCH  16  18
ENDBRANCH  10  11
BRANCH   1  20
ATOM     20  C   UNL     1      -1.324  -0.709  -0.032  0.00  0.00    +0.337 C 
ATOM     21  O   UNL     1      -1.224  -0.109  -1.085  0.00  0.00    -0.245 OA
BRANCH  20  23
ATOM     22  C   UNL     1      -1.463   1.400   1.038  0.00  0.00    +0.280 C 
ATOM     23  O   UNL     1      -1.453  -0.027   1.124  0.00  0.00    -0.465 OA
ENDBRANCH  20  23
ENDBRANCH   1  20
BRANCH   2  24
ATOM     24  C   UNL     1      -3.728  -2.017   0.127  0.00  0.00    +0.346 C 
ATOM     25  O   UNL     1      -3.682  -0.810   0.003  0.00  0.00    -0.244 OA
BRANCH  24  26
ATOM     26  O   UNL     1      -4.910  -2.629   0.330  0.00  0.00    -0.464 OA
ATOM     27  C   UNL     1      -6.070  -1.796   0.388  0.00  0.00    +0.280 C 
ENDBRANCH  24  26
ENDBRANCH   2  24
TORSDOF 6
