REMARK  Name = ZINC26885583
REMARK  6 active torsions:
REMARK  status: ('A' for Active; 'I' for Inactive)
REMARK    1  A    between atoms: C_1  and  N_2
REMARK    2  A    between atoms: C_6  and  C_7
REMARK    3  A    between atoms: C_7  and  C_9
REMARK    4  A    between atoms: C_7  and  N_16
REMARK    5  A    between atoms: C_17  and  C_19
REMARK    6  A    between atoms: C_19  and  C_20
REMARK                            x       y       z     vdW  Elec       q    Type
REMARK                         _______ _______ _______ _____ _____    ______ ____
ROOT
ATOM      1  C   UNL     1       2.453   3.935  -0.001  0.00  0.00    +0.172 C 
ENDROOT
BRANCH   1   2
ATOM      2  C   UNL     1       1.175   3.139  -0.061  0.00  0.00    +0.015 A 
ATOM      3  C   UNL     1       1.222   1.763  -0.181  0.00  0.00    +0.009 A 
ATOM      4  C   UNL     1       0.050   1.033  -0.237  0.00  0.00    +0.001 A 
ATOM      5  C   UNL     1      -1.172   1.679  -0.177  0.00  0.00    +0.003 A 
ATOM      6  C   UNL     1      -1.221   3.054  -0.052  0.00  0.00    +0.039 A 
ATOM      7  C   UNL     1      -0.048   3.786   0.003  0.00  0.00    +0.129 A 
ATOM      8  F   UNL     1      -0.095   5.131   0.121  0.00  0.00    -0.205 F 
ENDBRANCH   1   2
BRANCH   1  14
ATOM      9  C   UNL     1       2.165   6.780  -1.195  0.00  0.00    +0.150 C 
ATOM     10  N   UNL     1       2.708   5.613  -1.895  0.00  0.00    -0.336 N 
ATOM     11  C   UNL     1       3.179   5.583  -3.180  0.00  0.00    +0.106 A 
ATOM     12  C   UNL     1       3.575   4.319  -3.421  0.00  0.00    +0.130 A 
ATOM     13  N   UNL     1       3.357   3.598  -2.311  0.00  0.00    -0.238 NA
ATOM     14  C   UNL     1       2.841   4.367  -1.392  0.00  0.00    +0.134 A 
ENDBRANCH   1  14
BRANCH   1  15
ATOM     15  N   UNL     1       3.518   3.106   0.568  0.00  0.00    -0.301 N 
ATOM     16  C   UNL     1       4.549   3.684   1.216  0.00  0.00    +0.220 C 
ATOM     17  O   UNL     1       4.595   4.891   1.328  0.00  0.00    -0.275 OA
ATOM     18  H   UNL     1       3.477   2.011   0.467  0.00  0.00    +0.150 HD
BRANCH  16  19
ATOM     19  C   UNL     1       5.645   2.831   1.802  0.00  0.00    +0.155 C 
BRANCH  19  20
ATOM     20  C   UNL     1       6.668   3.715   2.467  0.00  0.00    +0.100 A 
ATOM     21  C   UNL     1       6.659   4.152   3.866  0.00  0.00    +0.045 A 
ATOM     22  C   UNL     1       5.797   3.927   4.942  0.00  0.00    +0.013 A 
ATOM     23  C   UNL     1       6.067   4.490   6.157  0.00  0.00    +0.001 A 
ATOM     24  C   UNL     1       7.192   5.284   6.331  0.00  0.00    +0.004 A 
ATOM     25  C   UNL     1       8.055   5.519   5.282  0.00  0.00    +0.049 A 
ATOM     26  C   UNL     1       7.798   4.955   4.038  0.00  0.00    +0.168 A 
ATOM     27  O   UNL     1       8.436   4.998   2.851  0.00  0.00    -0.354 OA
ATOM     28  N   UNL     1       7.722   4.224   1.908  0.00  0.00    -0.082 NA
ENDBRANCH  19  20
ENDBRANCH  16  19
ENDBRANCH   1  15
TORSDOF 5
