REMARK  Name = ZINC03642090
REMARK  10 active torsions:
REMARK  status: ('A' for Active; 'I' for Inactive)
REMARK    1  A    between atoms: N_13  and  C_14
REMARK    2  A    between atoms: C_14  and  C_15
REMARK    3  A    between atoms: C_15  and  C_17
REMARK    4  A    between atoms: C_15  and  O_36
REMARK    5  A    between atoms: C_17  and  N_63
REMARK    6  A    between atoms: C_18  and  C_19
REMARK    7  A    between atoms: C_18  and  N_63
REMARK    8  A    between atoms: C_19  and  C_21
REMARK    9  A    between atoms: C_19  and  O_35
REMARK   10  A    between atoms: C_21  and  N_22
REMARK                            x       y       z     vdW  Elec       q    Type
REMARK                         _______ _______ _______ _____ _____    ______ ____
ROOT
ATOM      1  N   UNL     1       2.274   5.707   2.848  0.00  0.00    +0.382 N 
ATOM      2  H   UNL     1       3.048   5.199   3.293  0.00  0.00    -0.086 HD
ATOM      3  H   UNL     1       1.404   5.518   3.358  0.00  0.00    -0.086 HD
ENDROOT
BRANCH   1   4
ATOM      4  C   UNL     1       2.130   5.248   1.453  0.00  0.00    -0.049 C 
BRANCH   4   5
ATOM      5  C   UNL     1       1.838   3.747   1.447  0.00  0.00    +0.117 C 
BRANCH   5   6
ATOM      6  O   UNL     1       2.917   3.049   2.072  0.00  0.00    -0.392 OA
ATOM      7  H   UNL     1       3.772   3.176   1.637  0.00  0.00    +0.210 HD
ENDBRANCH   5   6
BRANCH   5   8
ATOM      8  C   UNL     1       1.686   3.263   0.003  0.00  0.00    +0.151 C 
BRANCH   8  21
ATOM      9  C   UNL     1      -2.395  -0.042   0.025  0.00  0.00    +0.001 A 
ATOM     10  C   UNL     1      -2.416   1.344   0.034  0.00  0.00    +0.002 A 
ATOM     11  C   UNL     1      -1.240   2.063   0.030  0.00  0.00    +0.026 A 
ATOM     12  C   UNL     1      -0.017   1.399   0.010  0.00  0.00    +0.050 A 
ATOM     13  C   UNL     1       0.002  -0.004   0.002  0.00  0.00    +0.008 A 
ATOM     14  C   UNL     1      -1.194  -0.718   0.010  0.00  0.00    +0.010 A 
ATOM     15  C   UNL     1       1.421  -0.403  -0.014  0.00  0.00    +0.008 A 
ATOM     16  C   UNL     1       2.070  -1.636  -0.027  0.00  0.00    +0.010 A 
ATOM     17  C   UNL     1       3.447  -1.685  -0.040  0.00  0.00    +0.001 A 
ATOM     18  C   UNL     1       4.187  -0.512  -0.041  0.00  0.00    +0.002 A 
ATOM     19  C   UNL     1       3.558   0.714  -0.029  0.00  0.00    +0.026 A 
ATOM     20  C   UNL     1       2.169   0.784  -0.014  0.00  0.00    +0.050 A 
ATOM     21  N   UNL     1       1.290   1.853  -0.000  0.00  0.00    -0.337 N 
ENDBRANCH   8  21
ENDBRANCH   5   8
ENDBRANCH   4   5
ENDBRANCH   1   4
BRANCH   1  22
ATOM     22  C   UNL     1       2.557   7.154   2.885  0.00  0.00    -0.049 C 
BRANCH  22  23
ATOM     23  C   UNL     1       2.702   7.599   4.341  0.00  0.00    +0.117 C 
BRANCH  23  24
ATOM     24  O   UNL     1       1.488   7.329   5.045  0.00  0.00    -0.392 OA
ATOM     25  H   UNL     1       0.714   7.782   4.684  0.00  0.00    +0.210 HD
ENDBRANCH  23  24
BRANCH  23  26
ATOM     26  C   UNL     1       2.995   9.101   4.389  0.00  0.00    +0.151 C 
BRANCH  26  27
ATOM     27  N   UNL     1       3.251   9.504   5.773  0.00  0.00    -0.337 N 
ATOM     28  C   UNL     1       2.284   9.940   6.662  0.00  0.00    +0.050 A 
ATOM     29  C   UNL     1       0.909  10.114   6.539  0.00  0.00    +0.026 A 
ATOM     30  C   UNL     1       0.173  10.572   7.611  0.00  0.00    +0.002 A 
ATOM     31  C   UNL     1       0.791  10.862   8.818  0.00  0.00    +0.001 A 
ATOM     32  C   UNL     1       2.151  10.688   8.961  0.00  0.00    +0.010 A 
ATOM     33  C   UNL     1       2.907  10.231   7.885  0.00  0.00    +0.008 A 
ATOM     34  C   UNL     1       4.343   9.956   7.699  0.00  0.00    +0.008 A 
ATOM     35  C   UNL     1       4.496   9.511   6.378  0.00  0.00    +0.050 A 
ATOM     36  C   UNL     1       5.764   9.173   5.915  0.00  0.00    +0.026 A 
ATOM     37  C   UNL     1       6.854   9.278   6.751  0.00  0.00    +0.002 A 
ATOM     38  C   UNL     1       6.702   9.718   8.057  0.00  0.00    +0.001 A 
ATOM     39  C   UNL     1       5.454  10.057   8.534  0.00  0.00    +0.010 A 
ENDBRANCH  26  27
ENDBRANCH  23  26
ENDBRANCH  22  23
ENDBRANCH   1  22
TORSDOF 10
