REMARK  Name = ZINC65250656
REMARK  5 active torsions:
REMARK  status: ('A' for Active; 'I' for Inactive)
REMARK    1  A    between atoms: C_1  and  C_2
REMARK    2  A    between atoms: C_6  and  N_20
REMARK    3  A    between atoms: C_7  and  C_12
REMARK    4  A    between atoms: C_14  and  C_17
REMARK    5  A    between atoms: N_20  and  C_21
REMARK                            x       y       z     vdW  Elec       q    Type
REMARK                         _______ _______ _______ _____ _____    ______ ____
ROOT
ATOM      1  C   UNL     1      -4.649  -1.528   1.838  0.00  0.00    +0.065 C 
ATOM      2  C   UNL     1      -3.393  -2.176   1.316  0.00  0.00    +0.041 A 
ATOM      3  C   UNL     1      -3.397  -2.727   0.038  0.00  0.00    +0.024 A 
ATOM      4  C   UNL     1      -2.264  -3.320  -0.449  0.00  0.00    +0.015 A 
ATOM      5  C   UNL     1      -1.126  -3.348   0.372  0.00  0.00    +0.041 A 
ATOM      6  C   UNL     1       0.081  -3.943  -0.065  0.00  0.00    +0.056 A 
ATOM      7  C   UNL     1       1.171  -3.928   0.818  0.00  0.00    +0.079 A 
ATOM      8  C   UNL     1       1.023  -3.333   2.079  0.00  0.00    +0.128 A 
ATOM      9  N   UNL     1      -0.107  -2.790   2.456  0.00  0.00    -0.235 NA
ATOM     10  C   UNL     1      -1.187  -2.770   1.662  0.00  0.00    +0.162 A 
ATOM     11  N   UNL     1      -2.324  -2.202   2.076  0.00  0.00    -0.232 NA
ENDROOT
BRANCH   7  12
ATOM     12  C   UNL     1       2.457  -4.531   0.424  0.00  0.00    +0.262 A 
ATOM     13  N   UNL     1       3.574  -4.495   1.119  0.00  0.00    -0.191 NA
ATOM     14  C   UNL     1       4.540  -5.142   0.464  0.00  0.00    +0.175 A 
ATOM     15  N   UNL     1       4.061  -5.603  -0.657  0.00  0.00    -0.061 NA
ATOM     16  O   UNL     1       2.694  -5.221  -0.706  0.00  0.00    -0.333 OA
BRANCH  14  17
ATOM     17  C   UNL     1       5.958  -5.313   0.944  0.00  0.00    +0.060 C 
ATOM     18  C   UNL     1       6.968  -5.911  -0.038  0.00  0.00    +0.012 C 
ATOM     19  C   UNL     1       6.468  -6.741   1.146  0.00  0.00    +0.012 C 
ENDBRANCH  14  17
ENDBRANCH   7  12
BRANCH   6  20
ATOM     20  N   UNL     1       0.181  -4.518  -1.314  0.00  0.00    -0.313 N 
ATOM     21  H   UNL     1       0.030  -5.469  -1.424  0.00  0.00    +0.152 HD
BRANCH  20  22
ATOM     22  C   UNL     1       0.503  -3.728  -2.424  0.00  0.00    +0.035 A 
ATOM     23  C   UNL     1       0.865  -2.398  -2.249  0.00  0.00    +0.027 A 
ATOM     24  C   UNL     1       1.183  -1.618  -3.343  0.00  0.00    +0.051 A 
ATOM     25  C   UNL     1       1.142  -2.158  -4.618  0.00  0.00    +0.166 A 
ATOM     26  C   UNL     1       0.780  -3.491  -4.797  0.00  0.00    +0.168 A 
ATOM     27  C   UNL     1       0.466  -4.275  -3.700  0.00  0.00    +0.072 A 
ATOM     28  O   UNL     1       0.815  -3.778  -6.132  0.00  0.00    -0.453 OA
ATOM     29  C   UNL     1       0.805  -2.502  -6.800  0.00  0.00    +0.466 C 
ATOM     30  O   UNL     1       1.405  -1.610  -5.842  0.00  0.00    -0.453 OA
ENDBRANCH  20  22
ENDBRANCH   6  20
TORSDOF 4
