REMARK  Name = ZINC28727519
REMARK  9 active torsions:
REMARK  status: ('A' for Active; 'I' for Inactive)
REMARK    1  A    between atoms: C_1  and  C_2
REMARK    2  A    between atoms: C_2  and  C_4
REMARK    3  A    between atoms: C_2  and  N_14
REMARK    4  A    between atoms: C_7  and  S_10
REMARK    5  A    between atoms: S_10  and  N_13
REMARK    6  A    between atoms: N_14  and  C_15
REMARK    7  A    between atoms: N_14  and  C_16
REMARK    8  A    between atoms: C_16  and  C_17
REMARK    9  A    between atoms: C_19  and  C_22
REMARK                            x       y       z     vdW  Elec       q    Type
REMARK                         _______ _______ _______ _____ _____    ______ ____
ROOT
ATOM      1  C   UNL     1       0.851  -4.512   0.771  0.00  0.00    -0.008 C 
ATOM      2  C   UNL     1       2.062  -3.816   1.395  0.00  0.00    -0.041 C 
ENDROOT
BRANCH   2   3
ATOM      3  C   UNL     1       2.219  -4.265   2.825  0.00  0.00    -0.061 A 
ATOM      4  C   UNL     1       1.436  -3.703   3.816  0.00  0.00    +0.004 A 
ATOM      5  C   UNL     1       1.577  -4.119   5.127  0.00  0.00    +0.029 A 
ATOM      6  C   UNL     1       2.507  -5.089   5.448  0.00  0.00    +0.105 A 
ATOM      7  C   UNL     1       3.294  -5.647   4.458  0.00  0.00    +0.029 A 
ATOM      8  C   UNL     1       3.150  -5.236   3.146  0.00  0.00    +0.004 A 
BRANCH   6   9
ATOM      9  S   UNL     1       2.691  -5.614   7.120  0.00  0.00    +0.056 S 
ATOM     10  O   UNL     1       1.461  -5.331   7.772  0.00  0.00    -0.153 OA
ATOM     11  O   UNL     1       3.248  -6.920   7.077  0.00  0.00    -0.153 OA
BRANCH   9  12
ATOM     12  N   UNL     1       3.832  -4.636   7.817  0.00  0.00    -0.204 NA
ATOM     13  H   UNL     1       3.977  -4.932   8.867  0.00  0.00    +0.144 HD
ATOM     14  H   UNL     1       3.494  -3.590   7.775  0.00  0.00    +0.144 HD
ENDBRANCH   9  12
ENDBRANCH   6   9
ENDBRANCH   2   3
BRANCH   2  15
ATOM     15  N   UNL     1       1.864  -2.361   1.358  0.00  0.00    +0.388 N 
ATOM     16  C   UNL     1       2.965  -1.662   2.033  0.00  0.00    -0.095 C 
ATOM     17  H   UNL     1       0.935  -2.133   1.901  0.00  0.00    -0.081 HD
BRANCH  15  18
ATOM     18  C   UNL     1       1.707  -1.886  -0.024  0.00  0.00    +0.022 C 
BRANCH  18  19
ATOM     19  C   UNL     1       1.264  -0.446  -0.012  0.00  0.00    +0.211 A 
ATOM     20  N   UNL     1       2.042   0.607  -0.014  0.00  0.00    -0.192 NA
ATOM     21  C   UNL     1       1.210   1.675  -0.001  0.00  0.00    +0.209 A 
ATOM     22  N   UNL     1      -0.014   1.209   0.009  0.00  0.00    -0.056 NA
ATOM     23  O   UNL     1       0.002  -0.004   0.002  0.00  0.00    -0.340 OA
BRANCH  21  24
ATOM     24  C   UNL     1       1.608   3.097   0.003  0.00  0.00    +0.060 A 
ATOM     25  C   UNL     1       0.817   4.215   0.017  0.00  0.00    +0.019 A 
ATOM     26  C   UNL     1       1.419   5.453   0.018  0.00  0.00    +0.008 A 
ATOM     27  C   UNL     1       2.775   5.529   0.005  0.00  0.00    +0.046 A 
ATOM     28  S   UNL     1       3.247   3.807  -0.001  0.00  0.00    -0.093 S 
ENDBRANCH  21  24
ENDBRANCH  18  19
ENDBRANCH  15  18
ENDBRANCH   2  15
TORSDOF 7
