REMARK  Name = ZINC38975810
REMARK  5 active torsions:
REMARK  status: ('A' for Active; 'I' for Inactive)
REMARK    1  A    between atoms: C_1  and  C_2
REMARK    2  A    between atoms: C_4  and  C_8
REMARK    3  A    between atoms: C_12  and  S_24
REMARK    4  A    between atoms: N_14  and  N_15
REMARK    5  A    between atoms: C_16  and  C_17
REMARK                            x       y       z     vdW  Elec       q    Type
REMARK                         _______ _______ _______ _____ _____    ______ ____
ROOT
ATOM      1  C   UNL     1      -0.790  -2.889  -1.153  0.00  0.00    +0.206 C 
ATOM      2  N   UNL     1      -0.240  -2.303  -2.397  0.00  0.00    -0.231 NA
ATOM      3  N   UNL     1      -0.200  -3.427  -3.345  0.00  0.00    -0.225 NA
ATOM      4  C   UNL     1       0.195  -4.574  -2.486  0.00  0.00    +0.231 C 
ATOM      5  N   UNL     1      -0.514  -4.335  -1.211  0.00  0.00    -0.207 N 
ATOM      6  H   UNL     1       0.684  -1.928  -2.242  0.00  0.00    +0.143 HD
ATOM      7  H   UNL     1       0.483  -3.266  -4.069  0.00  0.00    +0.143 HD
ENDROOT
BRANCH   1  11
ATOM      8  C   UNL     1       0.885   1.322   0.157  0.00  0.00    +0.067 C 
ATOM      9  C   UNL     1       0.708  -0.173   0.090  0.00  0.00    +0.058 C 
ATOM     10  C   UNL     1      -0.464  -0.803   0.200  0.00  0.00    +0.029 C 
ATOM     11  C   UNL     1      -0.103  -2.272   0.066  0.00  0.00    +0.190 C 
ATOM     12  N   UNL     1       1.358  -2.238  -0.116  0.00  0.00    -0.177 NA
ATOM     13  N   UNL     1       1.713  -1.057  -0.096  0.00  0.00    -0.159 NA
ENDBRANCH   1  11
BRANCH   5  14
ATOM     14  N   UNL     1      -0.854  -5.293  -0.247  0.00  0.00    -0.188 NA
ATOM     15  C   UNL     1      -1.572  -4.954   0.779  0.00  0.00    +0.138 C 
BRANCH  15  16
ATOM     16  C   UNL     1      -1.836  -5.933   1.850  0.00  0.00    -0.005 A 
ATOM     17  C   UNL     1      -1.309  -7.224   1.766  0.00  0.00    +0.010 A 
ATOM     18  C   UNL     1      -1.560  -8.135   2.771  0.00  0.00    +0.016 A 
ATOM     19  C   UNL     1      -2.331  -7.771   3.862  0.00  0.00    +0.018 A 
ATOM     20  C   UNL     1      -2.856  -6.493   3.952  0.00  0.00    +0.016 A 
ATOM     21  C   UNL     1      -2.608  -5.571   2.957  0.00  0.00    +0.010 A 
ATOM     22 BR   UNL     1      -2.669  -9.027   5.235  0.00  0.00    -0.050 Br
ENDBRANCH  15  16
ENDBRANCH   5  14
BRANCH   4  23
ATOM     23  S   UNL     1      -0.343  -6.139  -3.230  0.00  0.00    -0.138 S 
ATOM     24  H   UNL     1       0.312  -6.183  -4.404  0.00  0.00    +0.105 HD
ENDBRANCH   4  23
TORSDOF 4
