REMARK  Name = ZINC16628344
REMARK  7 active torsions:
REMARK  status: ('A' for Active; 'I' for Inactive)
REMARK    1  A    between atoms: C_1  and  N_2
REMARK    2  A    between atoms: N_2  and  C_3
REMARK    3  A    between atoms: N_2  and  C_15
REMARK    4  A    between atoms: C_3  and  C_4
REMARK    5  A    between atoms: C_15  and  C_16
REMARK    6  A    between atoms: N_21  and  C_22
REMARK    7  A    between atoms: C_22  and  C_23
REMARK                            x       y       z     vdW  Elec       q    Type
REMARK                         _______ _______ _______ _____ _____    ______ ____
ROOT
ATOM      1  C   UNL     1       0.690  -0.478  -1.207  0.00  0.00    +0.019 C 
ENDROOT
BRANCH   1   2
ATOM      2  C   UNL     1       2.137  -0.060  -1.158  0.00  0.00    +0.204 C 
ATOM      3  O   UNL     1       2.554   0.571  -0.210  0.00  0.00    -0.277 OA
ATOM      4  N   UNL     1       2.967  -0.387  -2.168  0.00  0.00    -0.242 N 
ATOM      5  C   UNL     1       4.261  -0.013  -2.124  0.00  0.00    +0.306 C 
ATOM      6  O   UNL     1       4.679   0.619  -1.174  0.00  0.00    -0.252 OA
ATOM      7  N   UNL     1       5.091  -0.339  -3.134  0.00  0.00    -0.295 N 
ATOM      8  H   UNL     1       2.633  -0.891  -2.926  0.00  0.00    +0.159 HD
ATOM      9  H   UNL     1       4.758  -0.844  -3.893  0.00  0.00    +0.151 HD
BRANCH   7  10
ATOM     10  C   UNL     1       6.498   0.067  -3.087  0.00  0.00    +0.141 C 
BRANCH  10  11
ATOM     11  C   UNL     1       7.203  -0.419  -4.327  0.00  0.00    -0.030 A 
ATOM     12  C   UNL     1       7.799  -1.667  -4.339  0.00  0.00    +0.005 A 
ATOM     13  C   UNL     1       8.446  -2.112  -5.477  0.00  0.00    +0.000 A 
ATOM     14  C   UNL     1       8.497  -1.311  -6.602  0.00  0.00    +0.000 A 
ATOM     15  C   UNL     1       7.901  -0.064  -6.590  0.00  0.00    +0.000 A 
ATOM     16  C   UNL     1       7.250   0.381  -5.454  0.00  0.00    +0.005 A 
ENDBRANCH  10  11
ENDBRANCH   7  10
ENDBRANCH   1   2
BRANCH   1  18
ATOM     17  C   UNL     1      -0.018   1.465   0.010  0.00  0.00    -0.095 C 
ATOM     18  N   UNL     1       0.002  -0.004   0.002  0.00  0.00    +0.386 N 
ATOM     19  H   UNL     1       0.490  -0.338   0.820  0.00  0.00    -0.081 HD
BRANCH  18  20
ATOM     20  C   UNL     1      -1.376  -0.512   0.012  0.00  0.00    -0.030 C 
BRANCH  20  21
ATOM     21  C   UNL     1      -2.053  -0.124   1.328  0.00  0.00    +0.194 C 
ATOM     22  C   UNL     1      -3.489  -0.665   1.351  0.00  0.00    +0.271 C 
ATOM     23  O   UNL     1      -4.087  -0.297   2.599  0.00  0.00    -0.485 OA
ATOM     24  C   UNL     1      -3.342  -0.505   3.719  0.00  0.00    +0.162 A 
ATOM     25  C   UNL     1      -3.966  -0.519   4.958  0.00  0.00    +0.049 A 
ATOM     26  C   UNL     1      -3.222  -0.726   6.104  0.00  0.00    +0.004 A 
ATOM     27  C   UNL     1      -1.856  -0.919   6.020  0.00  0.00    +0.004 A 
ATOM     28  C   UNL     1      -1.229  -0.907   4.788  0.00  0.00    +0.049 A 
ATOM     29  C   UNL     1      -1.969  -0.701   3.634  0.00  0.00    +0.162 A 
ATOM     30  O   UNL     1      -1.338  -0.700   2.427  0.00  0.00    -0.484 OA
ENDBRANCH  20  21
ENDBRANCH  18  20
ENDBRANCH   1  18
TORSDOF 6
