REMARK  Name = ZINC39469361
REMARK  8 active torsions:
REMARK  status: ('A' for Active; 'I' for Inactive)
REMARK    1  A    between atoms: C_1  and  C_2
REMARK    2  A    between atoms: C_2  and  O_3
REMARK    3  A    between atoms: O_3  and  C_4
REMARK    4  A    between atoms: C_16  and  C_17
REMARK    5  A    between atoms: C_22  and  O_23
REMARK    6  A    between atoms: P_26  and  O_29
REMARK    7  A    between atoms: O_29  and  C_30
REMARK    8  A    between atoms: C_30  and  C_31
REMARK                            x       y       z     vdW  Elec       q    Type
REMARK                         _______ _______ _______ _____ _____    ______ ____
ROOT
ATOM      1  C   UNL     1       0.777  -1.810  -1.336  0.00  0.00    +0.124 C 
ATOM      2  C   UNL     1       0.263  -2.640  -0.423  0.00  0.00    +0.024 C 
ATOM      3  C   UNL     1       0.386  -4.123  -0.637  0.00  0.00    +0.038 C 
ATOM      4  C   UNL     1      -0.680  -4.889   0.139  0.00  0.00    +0.111 C 
ATOM      5  N   UNL     1      -0.510  -6.337  -0.075  0.00  0.00    -0.228 NA
ATOM      6  C   UNL     1      -0.595  -6.713  -1.487  0.00  0.00    +0.100 C 
ATOM      7  C   UNL     1       0.420  -5.928  -2.329  0.00  0.00    +0.031 C 
ATOM      8  C   UNL     1       0.199  -4.432  -2.128  0.00  0.00    +0.022 C 
ATOM      9  C   UNL     1       1.188  -3.623  -2.921  0.00  0.00    -0.011 C 
ATOM     10  C   UNL     1       1.457  -2.366  -2.530  0.00  0.00    +0.023 C 
ATOM     11  C   UNL     1      -0.276  -8.199  -1.694  0.00  0.00    +0.191 C 
ATOM     12  O   UNL     1      -1.230  -8.999  -0.971  0.00  0.00    -0.294 OA
ATOM     13  P   UNL     1      -1.483  -8.647   0.597  0.00  0.00    +0.421 P 
ATOM     14  O   UNL     1      -0.405  -9.224   1.432  0.00  0.00    -0.239 OA
ATOM     15  N   UNL     1      -1.467  -6.984   0.680  0.00  0.00    -0.156 NA
ATOM     16  H   UNL     1      -2.085  -6.488   1.241  0.00  0.00    +0.153 HD
ENDROOT
BRANCH  10  17
ATOM     17  C   UNL     1       2.432  -1.543  -3.286  0.00  0.00    +0.027 A 
ATOM     18  C   UNL     1       2.076  -0.988  -4.513  0.00  0.00    +0.012 A 
ATOM     19  C   UNL     1       2.987  -0.222  -5.212  0.00  0.00    +0.001 A 
ATOM     20  C   UNL     1       4.254  -0.004  -4.699  0.00  0.00    +0.004 A 
ATOM     21  C   UNL     1       4.617  -0.550  -3.483  0.00  0.00    +0.046 A 
ATOM     22  C   UNL     1       3.710  -1.316  -2.767  0.00  0.00    +0.125 A 
BRANCH  22  23
ATOM     23  O   UNL     1       4.064  -1.849  -1.569  0.00  0.00    -0.506 OA
ATOM     24  H   UNL     1       4.462  -2.728  -1.631  0.00  0.00    +0.292 HD
ENDBRANCH  22  23
ENDBRANCH  10  17
BRANCH   1  25
ATOM     25  O   UNL     1       0.671  -0.465  -1.174  0.00  0.00    -0.492 OA
BRANCH  25  27
ATOM     26  C   UNL     1      -0.019   1.526   0.010  0.00  0.00    +0.048 C 
ATOM     27  C   UNL     1       0.002  -0.004   0.002  0.00  0.00    +0.225 C 
ENDBRANCH  25  27
ENDBRANCH   1  25
BRANCH  13  28
ATOM     28  O   UNL     1      -2.915  -9.209   1.071  0.00  0.00    -0.296 OA
BRANCH  28  29
ATOM     29  C   UNL     1      -3.327  -9.237   2.439  0.00  0.00    +0.168 C 
ATOM     30  C   UNL     1      -4.735  -9.829   2.536  0.00  0.00    +0.035 C 
ENDBRANCH  28  29
ENDBRANCH  13  28
TORSDOF 6
