REMARK  Name = ZINC39696304
REMARK  9 active torsions:
REMARK  status: ('A' for Active; 'I' for Inactive)
REMARK    1  A    between atoms: C_1  and  C_2
REMARK    2  A    between atoms: C_2  and  C_3
REMARK    3  A    between atoms: C_6  and  C_9
REMARK    4  A    between atoms: C_9  and  C_11
REMARK    5  A    between atoms: C_9  and  N_12
REMARK    6  A    between atoms: C_13  and  C_15
REMARK    7  A    between atoms: C_26  and  C_28
REMARK    8  A    between atoms: C_28  and  C_29
REMARK    9  A    between atoms: C_32  and  C_35
REMARK                            x       y       z     vdW  Elec       q    Type
REMARK                         _______ _______ _______ _____ _____    ______ ____
ROOT
ATOM      1  C   UNL     1       5.157  -4.806  -4.894  0.00  0.00    +0.100 C 
ATOM      2  C   UNL     1       4.687  -5.619  -3.667  0.00  0.00    +0.121 C 
ATOM      3  N   UNL     1       4.064  -6.836  -4.240  0.00  0.00    -0.300 N 
ATOM      4  C   UNL     1       4.940  -7.196  -5.380  0.00  0.00    +0.115 C 
ATOM      5  C   UNL     1       5.325  -5.845  -6.016  0.00  0.00    -0.004 C 
ATOM      6  C   UNL     1       6.774  -5.879  -6.492  0.00  0.00    -0.010 C 
ATOM      7  C   UNL     1       6.904  -6.877  -7.646  0.00  0.00    -0.082 C 
ATOM      8  N   UNL     1       6.016  -6.477  -8.744  0.00  0.00    +0.379 N 
ATOM      9  C   UNL     1       4.617  -6.537  -8.304  0.00  0.00    -0.082 C 
ATOM     10  C   UNL     1       4.390  -5.524  -7.178  0.00  0.00    -0.010 C 
ATOM     11  C   UNL     1       2.953  -7.471  -3.818  0.00  0.00    +0.220 C 
ATOM     12  O   UNL     1       2.566  -8.464  -4.397  0.00  0.00    -0.275 OA
ATOM     13  H   UNL     1       6.238  -5.534  -9.027  0.00  0.00    -0.086 HD
ATOM     14  H   UNL     1       6.148  -7.100  -9.526  0.00  0.00    -0.086 HD
ENDROOT
BRANCH   1  16
ATOM     15  N   UNL     1       4.486  -2.640  -5.883  0.00  0.00    -0.308 N 
ATOM     16  C   UNL     1       4.116  -3.785  -5.277  0.00  0.00    +0.219 C 
ATOM     17  O   UNL     1       2.945  -3.995  -5.039  0.00  0.00    -0.275 OA
ATOM     18  H   UNL     1       5.423  -2.473  -6.073  0.00  0.00    +0.149 HD
BRANCH  15  19
ATOM     19  C   UNL     1       3.475  -1.648  -6.254  0.00  0.00    +0.100 C 
ATOM     20  C   UNL     1       2.885  -2.007  -7.619  0.00  0.00    +0.033 C 
BRANCH  19  24
ATOM     21  C   UNL     1       5.281   2.218  -6.455  0.00  0.00    -0.048 A 
ATOM     22  C   UNL     1       4.019   2.072  -5.911  0.00  0.00    +0.004 A 
ATOM     23  C   UNL     1       3.434   0.822  -5.846  0.00  0.00    +0.006 A 
ATOM     24  C   UNL     1       4.112  -0.284  -6.326  0.00  0.00    -0.027 A 
ATOM     25  C   UNL     1       5.374  -0.138  -6.871  0.00  0.00    +0.006 A 
ATOM     26  C   UNL     1       5.957   1.114  -6.940  0.00  0.00    +0.004 A 
BRANCH  21  28
ATOM     27  C   UNL     1       5.543   4.252  -7.849  0.00  0.00    +0.009 C 
ATOM     28  C   UNL     1       5.918   3.582  -6.526  0.00  0.00    +0.032 C 
ENDBRANCH  21  28
ENDBRANCH  19  24
ENDBRANCH  15  19
ENDBRANCH   1  16
BRANCH  11  29
ATOM     29  C   UNL     1       2.191  -6.947  -2.628  0.00  0.00    +0.131 C 
BRANCH  29  30
ATOM     30  C   UNL     1       0.998  -7.831  -2.366  0.00  0.00    -0.039 A 
ATOM     31  C   UNL     1      -0.212  -7.558  -2.977  0.00  0.00    +0.004 A 
ATOM     32  C   UNL     1      -1.305  -8.368  -2.736  0.00  0.00    +0.003 A 
ATOM     33  C   UNL     1      -1.189  -9.452  -1.887  0.00  0.00    -0.050 A 
ATOM     34  C   UNL     1       0.021  -9.726  -1.277  0.00  0.00    +0.003 A 
ATOM     35  C   UNL     1       1.116  -8.918  -1.521  0.00  0.00    +0.004 A 
ATOM     36  C   UNL     1      -2.381 -10.335  -1.624  0.00  0.00    +0.044 C 
ENDBRANCH  29  30
ENDBRANCH  11  29
TORSDOF 6
