REMARK  Name = ZINC41121024
REMARK  2 active torsions:
REMARK  status: ('A' for Active; 'I' for Inactive)
REMARK    1  A    between atoms: C_1  and  S_2
REMARK    2  A    between atoms: S_2  and  N_5
REMARK                            x       y       z     vdW  Elec       q    Type
REMARK                         _______ _______ _______ _____ _____    ______ ____
ROOT
ATOM      1  N   UNL     1       0.832  -0.410  -1.373  0.00  0.00    -0.178 NA
ATOM      2  C   UNL     1       0.084  -0.643  -2.617  0.00  0.00    +0.128 C 
ATOM      3  C   UNL     1       0.648   0.277  -3.707  0.00  0.00    +0.123 C 
ATOM      4  N   UNL     1       2.111   0.142  -3.724  0.00  0.00    -0.312 N 
ATOM      5  C   UNL     1       2.859   0.375  -2.480  0.00  0.00    +0.123 C 
ATOM      6  C   UNL     1       2.295  -0.539  -1.392  0.00  0.00    +0.128 C 
ATOM      7  C   UNL     1       2.773  -0.197  -4.888  0.00  0.00    +0.135 A 
ATOM      8  C   UNL     1       3.167   0.793  -5.809  0.00  0.00    +0.078 A 
ATOM      9  C   UNL     1       3.054   2.199  -5.864  0.00  0.00    +0.147 A 
ATOM     10  N   UNL     1       3.606   2.614  -6.968  0.00  0.00    -0.180 NA
ATOM     11  N   UNL     1       4.104   1.520  -7.687  0.00  0.00    -0.260 N 
ATOM     12  H   UNL     1       4.561   1.562  -8.542  0.00  0.00    +0.191 HD
ATOM     13  C   UNL     1       3.838   0.387  -6.979  0.00  0.00    +0.161 A 
ATOM     14  N   UNL     1       4.072  -0.911  -7.168  0.00  0.00    -0.216 NA
ATOM     15  C   UNL     1       3.684  -1.799  -6.279  0.00  0.00    +0.225 A 
ATOM     16  N   UNL     1       3.057  -1.465  -5.165  0.00  0.00    -0.220 NA
ENDROOT
BRANCH   1  18
ATOM     17  C   UNL     1      -0.040   1.809   0.002  0.00  0.00    +0.215 C 
ATOM     18  S   UNL     1       0.039  -0.003   0.023  0.00  0.00    +0.029 S 
ATOM     19  O   UNL     1       0.895  -0.444   1.068  0.00  0.00    -0.158 OA
ATOM     20  O   UNL     1      -1.264  -0.551  -0.127  0.00  0.00    -0.158 OA
ENDBRANCH   1  18
TORSDOF 1
