REMARK  Name = ZINC18093949
REMARK  11 active torsions:
REMARK  status: ('A' for Active; 'I' for Inactive)
REMARK    1  A    between atoms: C_1  and  C_2
REMARK    2  A    between atoms: C_2  and  C_3
REMARK    3  A    between atoms: C_3  and  O_4
REMARK    4  A    between atoms: O_4  and  C_5
REMARK    5  A    between atoms: C_6  and  C_13
REMARK    6  A    between atoms: C_10  and  O_11
REMARK    7  A    between atoms: O_11  and  C_12
REMARK    8  A    between atoms: C_15  and  C_22
REMARK    9  A    between atoms: C_16  and  C_21
REMARK   10  A    between atoms: N_24  and  C_25
REMARK   11  A    between atoms: C_28  and  C_31
REMARK                            x       y       z     vdW  Elec       q    Type
REMARK                         _______ _______ _______ _____ _____    ______ ____
ROOT
ATOM      1  C   UNL     1       0.118   3.704  -0.407  0.00  0.00    +0.143 C 
ATOM      2  C   UNL     1      -1.269   3.640   0.200  0.00  0.00    +0.056 C 
ATOM      3  C   UNL     1      -1.594   2.539   0.910  0.00  0.00    +0.017 C 
ATOM      4  N   UNL     1      -0.698   1.523   1.085  0.00  0.00    -0.300 N 
ATOM      5  C   UNL     1       0.538   1.527   0.571  0.00  0.00    +0.135 C 
ATOM      6  S   UNL     1       1.560   0.184   0.861  0.00  0.00    -0.019 S 
ATOM      7  N   UNL     1       1.006   2.554  -0.166  0.00  0.00    -0.315 N 
ATOM      8  C   UNL     1      -2.965   2.432   1.527  0.00  0.00    +0.061 C 
ATOM      9  H   UNL     1      -0.979   0.638   1.674  0.00  0.00    +0.154 HD
ATOM     10  H   UNL     1       2.023   2.548  -0.583  0.00  0.00    +0.149 HD
ENDROOT
BRANCH   1  12
ATOM     11  C   UNL     1       1.645   5.669  -0.696  0.00  0.00    +0.167 A 
ATOM     12  C   UNL     1       0.800   4.938   0.123  0.00  0.00    +0.023 A 
ATOM     13  C   UNL     1       0.589   5.337   1.430  0.00  0.00    +0.009 A 
ATOM     14  C   UNL     1       1.214   6.469   1.920  0.00  0.00    +0.004 A 
ATOM     15  C   UNL     1       2.053   7.206   1.106  0.00  0.00    +0.049 A 
ATOM     16  C   UNL     1       2.270   6.811  -0.205  0.00  0.00    +0.162 A 
BRANCH  16  17
ATOM     17  O   UNL     1       3.096   7.535  -1.007  0.00  0.00    -0.491 OA
ATOM     18  C   UNL     1       3.708   8.692  -0.433  0.00  0.00    +0.277 C 
ENDBRANCH  16  17
BRANCH  11  19
ATOM     19  O   UNL     1       1.859   5.275  -1.980  0.00  0.00    -0.488 OA
BRANCH  19  20
ATOM     20  C   UNL     1       1.071   5.905  -2.992  0.00  0.00    +0.229 C 
BRANCH  20  22
ATOM     21  C   UNL     1       0.631   6.026  -5.449  0.00  0.00    +0.007 C 
ATOM     22  C   UNL     1       1.388   5.277  -4.351  0.00  0.00    +0.038 C 
ENDBRANCH  20  22
ENDBRANCH  19  20
ENDBRANCH  11  19
ENDBRANCH   1  12
BRANCH   2  23
ATOM     23  C   UNL     1      -2.195   4.697   0.023  0.00  0.00    +0.248 C 
ATOM     24  O   UNL     1      -3.338   4.578   0.426  0.00  0.00    -0.270 OA
ATOM     25  N   UNL     1      -1.812   5.833  -0.591  0.00  0.00    -0.282 N 
ATOM     26  H   UNL     1      -0.790   5.926  -0.989  0.00  0.00    +0.155 HD
BRANCH  25  27
ATOM     27  C   UNL     1      -2.712   6.896  -0.721  0.00  0.00    +0.034 A 
ATOM     28  C   UNL     1      -4.069   6.643  -0.876  0.00  0.00    +0.023 A 
ATOM     29  C   UNL     1      -4.955   7.695  -1.000  0.00  0.00    +0.005 A 
ATOM     30  C   UNL     1      -4.492   8.998  -0.980  0.00  0.00    -0.050 A 
ATOM     31  C   UNL     1      -3.141   9.252  -0.832  0.00  0.00    +0.005 A 
ATOM     32  C   UNL     1      -2.250   8.205  -0.702  0.00  0.00    +0.023 A 
ATOM     33  C   UNL     1      -5.462  10.143  -1.121  0.00  0.00    +0.044 C 
ENDBRANCH  25  27
ENDBRANCH   2  23
TORSDOF 7
