REMARK  Name = ZINC39709261
REMARK  8 active torsions:
REMARK  status: ('A' for Active; 'I' for Inactive)
REMARK    1  A    between atoms: C_1  and  C_2
REMARK    2  A    between atoms: C_9  and  C_14
REMARK    3  A    between atoms: C_14  and  N_15
REMARK    4  A    between atoms: N_15  and  C_16
REMARK    5  A    between atoms: N_15  and  C_22
REMARK    6  A    between atoms: C_22  and  N_24
REMARK    7  A    between atoms: N_24  and  C_25
REMARK    8  A    between atoms: C_25  and  C_26
REMARK                            x       y       z     vdW  Elec       q    Type
REMARK                         _______ _______ _______ _____ _____    ______ ____
ROOT
ATOM      1  N   UNL     1       1.176  -6.284   3.192  0.00  0.00    -0.309 N 
ENDROOT
BRANCH   1   2
ATOM      2  C   UNL     1       1.654  -7.325   2.280  0.00  0.00    +0.075 C 
ATOM      3  C   UNL     1       2.537  -8.311   3.048  0.00  0.00    +0.022 C 
ATOM      4  C   UNL     1       3.036  -9.399   2.095  0.00  0.00    +0.002 C 
ATOM      5  C   UNL     1       1.839 -10.143   1.500  0.00  0.00    +0.000 C 
ATOM      6  C   UNL     1       0.956  -9.158   0.732  0.00  0.00    +0.002 C 
ATOM      7  C   UNL     1       0.457  -8.070   1.685  0.00  0.00    +0.022 C 
ENDBRANCH   1   2
BRANCH   1   8
ATOM      8  C   UNL     1       0.424  -6.617   4.260  0.00  0.00    +0.133 C 
ATOM      9  S   UNL     1      -0.070  -5.409   5.369  0.00  0.00    -0.019 S 
BRANCH   8  10
ATOM     10  N   UNL     1       0.062  -7.900   4.456  0.00  0.00    -0.322 N 
ATOM     11  H   UNL     1       0.407  -8.595   3.874  0.00  0.00    +0.148 HD
BRANCH  10  12
ATOM     12  C   UNL     1      -0.853  -8.245   5.547  0.00  0.00    +0.138 C 
BRANCH  12  13
ATOM     13  C   UNL     1      -1.095  -9.732   5.549  0.00  0.00    -0.030 A 
ATOM     14  C   UNL     1      -2.136 -10.263   4.810  0.00  0.00    +0.005 A 
ATOM     15  C   UNL     1      -2.358 -11.628   4.812  0.00  0.00    +0.000 A 
ATOM     16  C   UNL     1      -1.540 -12.461   5.551  0.00  0.00    +0.000 A 
ATOM     17  C   UNL     1      -0.498 -11.929   6.288  0.00  0.00    +0.000 A 
ATOM     18  C   UNL     1      -0.273 -10.565   6.284  0.00  0.00    +0.005 A 
ENDBRANCH  12  13
ENDBRANCH  10  12
ENDBRANCH   8  10
ENDBRANCH   1   8
BRANCH   1  19
ATOM     19  C   UNL     1       1.515  -4.880   2.944  0.00  0.00    +0.124 C 
BRANCH  19  28
ATOM     20  C   UNL     1       0.869   1.841   0.617  0.00  0.00    +0.044 C 
ATOM     21  C   UNL     1       0.805   0.345   0.445  0.00  0.00    -0.050 A 
ATOM     22  C   UNL     1       0.905  -0.200  -0.836  0.00  0.00    +0.005 A 
ATOM     23  C   UNL     1       0.856  -1.538  -1.068  0.00  0.00    +0.024 A 
ATOM     24  C   UNL     1       0.700  -2.443  -0.003  0.00  0.00    +0.040 A 
ATOM     25  N   UNL     1       0.654  -3.753  -0.243  0.00  0.00    -0.284 N 
ATOM     26  C   UNL     1       0.509  -4.658   0.711  0.00  0.00    +0.226 C 
ATOM     27  O   UNL     1       0.474  -5.841   0.430  0.00  0.00    -0.275 OA
ATOM     28  C   UNL     1       0.387  -4.216   2.152  0.00  0.00    +0.116 C 
ATOM     29  C   UNL     1       0.440  -2.726   2.430  0.00  0.00    -0.003 C 
ATOM     30  C   UNL     1       0.593  -1.895   1.361  0.00  0.00    -0.007 A 
ATOM     31  C   UNL     1       0.658  -0.444   1.540  0.00  0.00    +0.012 A 
ATOM     32  H   UNL     1       0.730  -4.058  -1.161  0.00  0.00    +0.155 HD
ENDBRANCH  19  28
ENDBRANCH   1  19
TORSDOF 7
