REMARK  Name = ZINC06336722
REMARK  5 active torsions:
REMARK  status: ('A' for Active; 'I' for Inactive)
REMARK    1  A    between atoms: C_5  and  C_7
REMARK    2  A    between atoms: C_7  and  S_8
REMARK    3  A    between atoms: S_8  and  C_9
REMARK    4  A    between atoms: N_15  and  N_16
REMARK    5  A    between atoms: C_17  and  C_18
REMARK                            x       y       z     vdW  Elec       q    Type
REMARK                         _______ _______ _______ _____ _____    ______ ____
ROOT
ATOM      1  C   UNL     1      -3.333  -1.974  -1.520  0.00  0.00    +0.191 A 
ATOM      2  N   UNL     1      -4.119  -2.432  -2.539  0.00  0.00    -0.303 N 
ATOM      3  H   UNL     1      -3.947  -2.319  -3.487  0.00  0.00    +0.171 HD
ATOM      4  C   UNL     1      -5.192  -3.077  -1.988  0.00  0.00    +0.235 A 
ATOM      5  N   UNL     1      -5.073  -3.020  -0.684  0.00  0.00    -0.111 NA
ATOM      6  N   UNL     1      -3.892  -2.326  -0.387  0.00  0.00    -0.121 NA
ATOM      7  N   UNL     1      -6.225  -3.684  -2.687  0.00  0.00    -0.205 N 
ATOM      8  H   UNL     1      -6.226  -3.674  -3.657  0.00  0.00    +0.177 HD
ENDROOT
BRANCH   7   9
ATOM      9  N   UNL     1      -7.266  -4.312  -1.991  0.00  0.00    -0.184 NA
ATOM     10  C   UNL     1      -8.236  -4.881  -2.647  0.00  0.00    +0.176 C 
BRANCH  10  11
ATOM     11  C   UNL     1      -9.326  -5.539  -1.919  0.00  0.00    +0.147 A 
ATOM     12  C   UNL     1     -10.398  -6.170  -2.480  0.00  0.00    +0.051 A 
ATOM     13  C   UNL     1     -11.185  -6.652  -1.417  0.00  0.00    +0.042 A 
ATOM     14  C   UNL     1     -10.567  -6.297  -0.273  0.00  0.00    +0.196 A 
ATOM     15  O   UNL     1      -9.441  -5.630  -0.579  0.00  0.00    -0.462 OA
ENDBRANCH  10  11
ENDBRANCH   7   9
BRANCH   1  16
ATOM     16  S   UNL     1      -1.828  -1.076  -1.697  0.00  0.00    -0.081 S 
BRANCH  16  17
ATOM     17  C   UNL     1      -1.292  -0.775   0.010  0.00  0.00    +0.114 C 
BRANCH  17  22
ATOM     18  C   UNL     1       2.396   0.029  -0.021  0.00  0.00    +0.000 A 
ATOM     19  C   UNL     1       2.378   1.411  -0.013  0.00  0.00    +0.001 A 
ATOM     20  C   UNL     1       1.173   2.087   0.002  0.00  0.00    +0.020 A 
ATOM     21  C   UNL     1      -0.017   1.379   0.010  0.00  0.00    +0.045 A 
ATOM     22  C   UNL     1       0.002  -0.004   0.002  0.00  0.00    -0.019 A 
ATOM     23  C   UNL     1       1.209  -0.679  -0.013  0.00  0.00    +0.006 A 
ATOM     24 CL   UNL     1      -1.532   2.227   0.021  0.00  0.00    -0.083 Cl
ENDBRANCH  17  22
ENDBRANCH  16  17
ENDBRANCH   1  16
TORSDOF 5
