REMARK  Name = ZINC63625142
REMARK  5 active torsions:
REMARK  status: ('A' for Active; 'I' for Inactive)
REMARK    1  A    between atoms: C_1  and  C_2
REMARK    2  A    between atoms: N_4  and  C_5
REMARK    3  A    between atoms: C_10  and  N_15
REMARK    4  A    between atoms: C_16  and  C_18
REMARK    5  A    between atoms: C_21  and  C_24
REMARK                            x       y       z     vdW  Elec       q    Type
REMARK                         _______ _______ _______ _____ _____    ______ ____
ROOT
ATOM      1  C   UNL     1      -1.120  -2.176  -0.012  0.00  0.00    +0.224 C 
ATOM      2  N   UNL     1      -2.457  -2.715   0.275  0.00  0.00    -0.316 N 
ATOM      3  C   UNL     1      -3.063  -3.494  -0.710  0.00  0.00    +0.044 A 
ATOM      4  C   UNL     1      -4.332  -4.091  -0.613  0.00  0.00    +0.047 A 
ATOM      5  C   UNL     1      -4.846  -4.848  -1.647  0.00  0.00    +0.035 A 
ATOM      6  C   UNL     1      -4.123  -5.043  -2.817  0.00  0.00    +0.024 A 
ATOM      7  C   UNL     1      -2.871  -4.465  -2.934  0.00  0.00    +0.018 A 
ATOM      8  C   UNL     1      -2.362  -3.711  -1.901  0.00  0.00    +0.032 A 
ATOM      9  S   UNL     1      -0.825  -2.837  -1.701  0.00  0.00    -0.082 S 
ATOM     10  H   UNL     1      -2.901  -2.536   1.118  0.00  0.00    +0.149 HD
ENDROOT
BRANCH   1  14
ATOM     11  C   UNL     1       0.018   1.479  -0.026  0.00  0.00    +0.109 C 
ATOM     12  C   UNL     1       0.030  -0.028  -0.024  0.00  0.00    +0.212 C 
ATOM     13  O   UNL     1       1.085  -0.626  -0.032  0.00  0.00    -0.276 OA
ATOM     14  N   UNL     1      -1.132  -0.711  -0.014  0.00  0.00    -0.288 N 
ATOM     15  H   UNL     1      -1.976  -0.233  -0.008  0.00  0.00    +0.151 HD
ENDBRANCH   1  14
BRANCH   5  16
ATOM     16  N   UNL     1      -6.115  -5.427  -1.515  0.00  0.00    -0.283 N 
ATOM     17  C   UNL     1      -6.923  -5.532  -2.588  0.00  0.00    +0.248 C 
ATOM     18  O   UNL     1      -6.522  -5.202  -3.684  0.00  0.00    -0.273 OA
ATOM     19  H   UNL     1      -6.412  -5.752  -0.650  0.00  0.00    +0.155 HD
BRANCH  17  20
ATOM     20  C   UNL     1      -8.326  -6.060  -2.426  0.00  0.00    +0.239 C 
ATOM     21  C   UNL     1      -9.262  -4.959  -1.959  0.00  0.00    +0.041 C 
ATOM     22  C   UNL     1     -10.165  -4.858  -2.957  0.00  0.00    +0.098 C 
ATOM     23  N   UNL     1      -9.882  -5.751  -3.943  0.00  0.00    -0.153 NA
ATOM     24  N   UNL     1      -8.886  -6.453  -3.730  0.00  0.00    -0.170 NA
BRANCH  22  25
ATOM     25  C   UNL     1     -11.300  -3.912  -2.975  0.00  0.00    +0.039 A 
ATOM     26  C   UNL     1     -12.265  -3.740  -3.932  0.00  0.00    +0.018 A 
ATOM     27  C   UNL     1     -13.236  -2.784  -3.729  0.00  0.00    +0.008 A 
ATOM     28  C   UNL     1     -13.208  -2.045  -2.591  0.00  0.00    +0.046 A 
ATOM     29  S   UNL     1     -11.776  -2.702  -1.752  0.00  0.00    -0.095 S 
ENDBRANCH  22  25
ENDBRANCH  17  20
ENDBRANCH   5  16
TORSDOF 4
