REMARK  Name = ZINC00877179
REMARK  8 active torsions:
REMARK  status: ('A' for Active; 'I' for Inactive)
REMARK    1  A    between atoms: C_1  and  C_2
REMARK    2  A    between atoms: C_7  and  C_25
REMARK    3  A    between atoms: C_11  and  S_16
REMARK    4  A    between atoms: C_14  and  C_15
REMARK    5  A    between atoms: S_16  and  C_17
REMARK    6  A    between atoms: C_17  and  C_18
REMARK    7  A    between atoms: N_20  and  N_21
REMARK    8  A    between atoms: C_22  and  C_24
REMARK                            x       y       z     vdW  Elec       q    Type
REMARK                         _______ _______ _______ _____ _____    ______ ____
ROOT
ATOM      1  C   UNL     1      -1.297  -0.791  -0.377  0.00  0.00    +0.044 C 
ATOM      2  C   UNL     1      -0.016  -0.014  -0.212  0.00  0.00    -0.046 A 
ATOM      3  C   UNL     1      -0.064   1.352   0.012  0.00  0.00    +0.004 A 
ATOM      4  C   UNL     1       1.104   2.052   0.207  0.00  0.00    +0.010 A 
ATOM      5  C   UNL     1       2.331   1.387   0.130  0.00  0.00    -0.000 A 
ATOM      6  C   UNL     1       3.568   2.083   0.495  0.00  0.00    +0.017 A 
ATOM      7  C   UNL     1       4.728   1.392   0.485  0.00  0.00    -0.005 A 
ATOM      8  C   UNL     1       4.763   0.081  -0.045  0.00  0.00    +0.165 A 
ATOM      9  N   UNL     1       5.762  -0.757  -0.241  0.00  0.00    -0.128 NA
ATOM     10  N   UNL     1       5.362  -1.729  -0.974  0.00  0.00    -0.122 NA
ATOM     11  C   UNL     1       4.092  -1.561  -1.289  0.00  0.00    +0.197 A 
ATOM     12  N   UNL     1       3.623  -0.514  -0.557  0.00  0.00    -0.270 N 
ATOM     13  C   UNL     1       2.385   0.030  -0.263  0.00  0.00    +0.061 A 
ATOM     14  C   UNL     1       1.196  -0.675  -0.311  0.00  0.00    -0.023 A 
ATOM     15  C   UNL     1       1.167  -2.181  -0.388  0.00  0.00    +0.046 C 
ATOM     16  C   UNL     1       5.983   2.015   1.036  0.00  0.00    +0.047 C 
ENDROOT
BRANCH  11  17
ATOM     17  S   UNL     1       3.230  -2.506  -2.503  0.00  0.00    -0.076 S 
BRANCH  17  18
ATOM     18  C   UNL     1       4.533  -3.668  -2.980  0.00  0.00    +0.174 C 
BRANCH  18  19
ATOM     19  C   UNL     1       4.009  -4.603  -4.039  0.00  0.00    +0.239 C 
ATOM     20  O   UNL     1       2.867  -4.494  -4.433  0.00  0.00    -0.273 OA
ATOM     21  N   UNL     1       4.810  -5.559  -4.549  0.00  0.00    -0.234 N 
ATOM     22  H   UNL     1       5.723  -5.646  -4.234  0.00  0.00    +0.173 HD
BRANCH  21  23
ATOM     23  N   UNL     1       4.323  -6.428  -5.534  0.00  0.00    -0.235 N 
ATOM     24  C   UNL     1       5.123  -7.386  -6.044  0.00  0.00    +0.226 C 
ATOM     25  O   UNL     1       6.265  -7.494  -5.651  0.00  0.00    -0.275 OA
ATOM     26  C   UNL     1       4.599  -8.320  -7.104  0.00  0.00    +0.110 C 
ATOM     27  H   UNL     1       3.409  -6.341  -5.849  0.00  0.00    +0.173 HD
ENDBRANCH  21  23
ENDBRANCH  18  19
ENDBRANCH  17  18
ENDBRANCH  11  17
TORSDOF 4
