REMARK  Name = ZINC01394333
REMARK  6 active torsions:
REMARK  status: ('A' for Active; 'I' for Inactive)
REMARK    1  A    between atoms: C_1  and  C_2
REMARK    2  A    between atoms: C_5  and  S_8
REMARK    3  A    between atoms: S_8  and  N_11
REMARK    4  A    between atoms: N_11  and  N_12
REMARK    5  A    between atoms: C_13  and  C_15
REMARK    6  A    between atoms: C_20  and  N_21
REMARK                            x       y       z     vdW  Elec       q    Type
REMARK                         _______ _______ _______ _____ _____    ______ ____
ROOT
ATOM      1  N   UNL     1       3.717  -5.193   0.339  0.00  0.00    -0.228 N 
ATOM      2  C   UNL     1       3.707  -5.889   1.492  0.00  0.00    +0.261 C 
ATOM      3  O   UNL     1       3.182  -6.985   1.536  0.00  0.00    -0.269 OA
ATOM      4  H   UNL     1       4.136  -4.319   0.303  0.00  0.00    +0.171 HD
ENDROOT
BRANCH   2   5
ATOM      5  C   UNL     1       4.333  -5.322   2.702  0.00  0.00    +0.062 A 
ATOM      6  C   UNL     1       5.048  -4.125   2.628  0.00  0.00    +0.015 A 
ATOM      7  C   UNL     1       5.630  -3.600   3.761  0.00  0.00    +0.001 A 
ATOM      8  C   UNL     1       5.509  -4.255   4.976  0.00  0.00    +0.002 A 
ATOM      9  C   UNL     1       4.805  -5.439   5.065  0.00  0.00    +0.027 A 
ATOM     10  C   UNL     1       4.208  -5.979   3.935  0.00  0.00    +0.058 A 
BRANCH  10  11
ATOM     11  N   UNL     1       3.490  -7.174   4.023  0.00  0.00    -0.322 N 
ATOM     12  C   UNL     1       2.171  -7.336   3.708  0.00  0.00    +0.091 A 
ATOM     13  C   UNL     1       1.842  -8.626   3.923  0.00  0.00    +0.019 A 
ATOM     14  C   UNL     1       2.997  -9.286   4.388  0.00  0.00    +0.019 A 
ATOM     15  C   UNL     1       3.992  -8.377   4.435  0.00  0.00    +0.091 A 
ENDBRANCH  10  11
ENDBRANCH   2   5
BRANCH   1  16
ATOM     16  N   UNL     1       3.123  -5.731  -0.810  0.00  0.00    -0.108 NA
ATOM     17  H   UNL     1       3.393  -6.606  -1.131  0.00  0.00    +0.172 HD
BRANCH  16  18
ATOM     18  S   UNL     1       1.960  -4.875  -1.620  0.00  0.00    +0.074 S 
ATOM     19  O   UNL     1       0.965  -4.537  -0.663  0.00  0.00    -0.152 OA
ATOM     20  O   UNL     1       1.663  -5.608  -2.800  0.00  0.00    -0.152 OA
BRANCH  18  25
ATOM     21  C   UNL     1       4.473   0.314  -3.398  0.00  0.00    +0.044 C 
ATOM     22  C   UNL     1       3.845  -0.982  -2.954  0.00  0.00    -0.050 A 
ATOM     23  C   UNL     1       3.894  -2.091  -3.777  0.00  0.00    +0.005 A 
ATOM     24  C   UNL     1       3.318  -3.280  -3.370  0.00  0.00    +0.029 A 
ATOM     25  C   UNL     1       2.695  -3.360  -2.139  0.00  0.00    +0.107 A 
ATOM     26  C   UNL     1       2.647  -2.251  -1.315  0.00  0.00    +0.029 A 
ATOM     27  C   UNL     1       3.226  -1.063  -1.721  0.00  0.00    +0.005 A 
ENDBRANCH  18  25
ENDBRANCH  16  18
ENDBRANCH   1  16
TORSDOF 5
