REMARK  Name = ZINC36544940
REMARK  11 active torsions:
REMARK  status: ('A' for Active; 'I' for Inactive)
REMARK    1  A    between atoms: C_1  and  C_2
REMARK    2  A    between atoms: C_2  and  C_3
REMARK    3  A    between atoms: C_2  and  C_4
REMARK    4  A    between atoms: C_2  and  N_5
REMARK    5  A    between atoms: C_6  and  C_8
REMARK    6  A    between atoms: C_8  and  C_10
REMARK    7  A    between atoms: C_8  and  N_17
REMARK    8  A    between atoms: C_13  and  O_16
REMARK    9  A    between atoms: N_17  and  C_18
REMARK   10  A    between atoms: C_25  and  C_27
REMARK   11  A    between atoms: C_30  and  O_33
REMARK                            x       y       z     vdW  Elec       q    Type
REMARK                         _______ _______ _______ _____ _____    ______ ____
ROOT
ATOM      1  N   UNL     1       4.454  -0.361  -2.576  0.00  0.00    -0.250 N 
ATOM      2  C   UNL     1       5.127  -1.313  -1.900  0.00  0.00    +0.252 C 
ATOM      3  O   UNL     1       4.557  -1.978  -1.057  0.00  0.00    -0.270 OA
ENDROOT
BRANCH   1   4
ATOM      4  C   UNL     1       5.129   0.466  -3.480  0.00  0.00    +0.056 A 
ATOM      5  C   UNL     1       4.921   0.321  -4.846  0.00  0.00    +0.025 A 
ATOM      6  C   UNL     1       5.590   1.138  -5.736  0.00  0.00    +0.002 A 
ATOM      7  C   UNL     1       6.466   2.101  -5.269  0.00  0.00    +0.002 A 
ATOM      8  C   UNL     1       6.676   2.249  -3.910  0.00  0.00    +0.022 A 
ATOM      9  C   UNL     1       6.006   1.438  -3.014  0.00  0.00    +0.062 A 
ATOM     10 CL   UNL     1       6.264   1.630  -1.308  0.00  0.00    -0.082 Cl
ENDBRANCH   1   4
BRANCH   2  11
ATOM     11  C   UNL     1       6.556  -1.547  -2.184  0.00  0.00    +0.037 A 
ATOM     12  C   UNL     1       7.412  -1.971  -1.164  0.00  0.00    +0.016 A 
ATOM     13  C   UNL     1       8.745  -2.190  -1.432  0.00  0.00    +0.046 A 
ATOM     14  C   UNL     1       9.239  -1.989  -2.716  0.00  0.00    +0.117 A 
ATOM     15  C   UNL     1       8.391  -1.567  -3.733  0.00  0.00    +0.046 A 
ATOM     16  C   UNL     1       7.056  -1.352  -3.474  0.00  0.00    +0.016 A 
BRANCH  14  17
ATOM     17  O   UNL     1      10.553  -2.205  -2.976  0.00  0.00    -0.507 OA
ATOM     18  H   UNL     1      10.756  -3.110  -3.252  0.00  0.00    +0.292 HD
ENDBRANCH  14  17
ENDBRANCH   2  11
BRANCH   1  19
ATOM     19  C   UNL     1       3.014  -0.191  -2.364  0.00  0.00    +0.198 C 
BRANCH  19  20
ATOM     20  C   UNL     1       2.473   0.801  -3.360  0.00  0.00    -0.018 A 
ATOM     21  C   UNL     1       1.397   0.461  -4.159  0.00  0.00    +0.009 A 
ATOM     22  C   UNL     1       0.899   1.369  -5.074  0.00  0.00    +0.046 A 
ATOM     23  C   UNL     1       1.479   2.623  -5.189  0.00  0.00    +0.117 A 
ATOM     24  C   UNL     1       2.558   2.963  -4.386  0.00  0.00    +0.046 A 
ATOM     25  C   UNL     1       3.049   2.054  -3.470  0.00  0.00    +0.009 A 
BRANCH  23  26
ATOM     26  O   UNL     1       0.992   3.518  -6.088  0.00  0.00    -0.507 OA
ATOM     27  H   UNL     1       0.296   4.090  -5.737  0.00  0.00    +0.292 HD
ENDBRANCH  23  26
ENDBRANCH  19  20
BRANCH  19  29
ATOM     28  N   UNL     1       1.509   0.546  -0.544  0.00  0.00    -0.309 N 
ATOM     29  C   UNL     1       2.768   0.315  -0.966  0.00  0.00    +0.239 C 
ATOM     30  O   UNL     1       3.704   0.515  -0.220  0.00  0.00    -0.273 OA
ATOM     31  H   UNL     1       0.761   0.386  -1.141  0.00  0.00    +0.149 HD
BRANCH  28  33
ATOM     32  C   UNL     1       1.975   2.384   1.001  0.00  0.00    +0.031 C 
ATOM     33  C   UNL     1       1.270   1.038   0.815  0.00  0.00    +0.026 C 
ATOM     34  C   UNL     1       1.820   0.031   1.826  0.00  0.00    +0.031 C 
ATOM     35  C   UNL     1      -0.233   1.215   1.036  0.00  0.00    +0.031 C 
ENDBRANCH  28  33
ENDBRANCH  19  29
ENDBRANCH   1  19
TORSDOF 8
