REMARK  Name = ZINC39370763
REMARK  7 active torsions:
REMARK  status: ('A' for Active; 'I' for Inactive)
REMARK    1  A    between atoms: C_4  and  C_29
REMARK    2  A    between atoms: C_5  and  C_7
REMARK    3  A    between atoms: C_7  and  O_8
REMARK    4  A    between atoms: O_8  and  C_9
REMARK    5  A    between atoms: C_12  and  C_16
REMARK    6  A    between atoms: C_17  and  C_18
REMARK    7  A    between atoms: C_17  and  C_20
REMARK                            x       y       z     vdW  Elec       q    Type
REMARK                         _______ _______ _______ _____ _____    ______ ____
ROOT
ATOM      1  C   UNL     1      -0.703  -4.048  -0.679  0.00  0.00    +0.135 A 
ATOM      2  C   UNL     1       0.478  -4.731  -0.416  0.00  0.00    +0.047 A 
ATOM      3  C   UNL     1       0.457  -6.092  -0.207  0.00  0.00    +0.011 A 
ATOM      4  C   UNL     1      -0.756  -6.788  -0.260  0.00  0.00    -0.023 A 
ATOM      5  C   UNL     1      -1.943  -6.096  -0.525  0.00  0.00    +0.027 A 
ATOM      6  C   UNL     1      -1.912  -4.733  -0.727  0.00  0.00    +0.060 A 
ATOM      7 BR   UNL     1      -3.516  -3.795  -1.079  0.00  0.00    -0.046 Br
ENDROOT
BRANCH   4   8
ATOM      8  C   UNL     1      -0.783  -8.241  -0.038  0.00  0.00    +0.026 C 
ATOM      9  C   UNL     1      -1.810  -8.802   0.635  0.00  0.00    +0.072 C 
BRANCH   9  10
ATOM     10  C   UNL     1      -1.924 -10.302   0.722  0.00  0.00    +0.216 C 
ATOM     11  N   UNL     1      -3.221 -10.740   0.190  0.00  0.00    -0.359 N 
ATOM     12  C   UNL     1      -3.855 -11.343   1.154  0.00  0.00    +0.060 A 
ATOM     13  C   UNL     1      -5.174 -11.985   1.234  0.00  0.00    +0.027 A 
ATOM     14  C   UNL     1      -5.574 -12.541   2.396  0.00  0.00    +0.002 A 
ATOM     15  C   UNL     1      -4.776 -12.535   3.553  0.00  0.00    +0.002 A 
ATOM     16  C   UNL     1      -3.551 -11.973   3.589  0.00  0.00    +0.027 A 
ATOM     17  C   UNL     1      -3.010 -11.337   2.380  0.00  0.00    +0.060 A 
ATOM     18  N   UNL     1      -1.887 -10.730   2.126  0.00  0.00    -0.359 N 
ATOM     19  H   UNL     1      -3.546 -10.605  -0.714  0.00  0.00    +0.162 HD
ATOM     20  H   UNL     1      -1.158 -10.588   2.750  0.00  0.00    +0.162 HD
ENDBRANCH   9  10
BRANCH   9  21
ATOM     21  C   UNL     1      -2.790  -7.971   1.267  0.00  0.00    +0.099 C 
ATOM     22  N   UNL     1      -3.568  -7.312   1.769  0.00  0.00    -0.191 NA
ENDBRANCH   9  21
ENDBRANCH   4   8
BRANCH   1  23
ATOM     23  O   UNL     1      -0.677  -2.706  -0.885  0.00  0.00    -0.486 OA
BRANCH  23  24
ATOM     24  C   UNL     1       0.598  -2.065  -0.822  0.00  0.00    +0.265 C 
BRANCH  24  29
ATOM     25  C   UNL     1      -0.978   1.289  -1.547  0.00  0.00    +0.000 A 
ATOM     26  C   UNL     1       0.121   2.130  -1.537  0.00  0.00    +0.001 A 
ATOM     27  C   UNL     1       1.381   1.621  -1.296  0.00  0.00    +0.019 A 
ATOM     28  C   UNL     1       1.544   0.254  -1.062  0.00  0.00    +0.058 A 
ATOM     29  C   UNL     1       0.431  -0.588  -1.073  0.00  0.00    +0.007 A 
ATOM     30  C   UNL     1      -0.823  -0.066  -1.316  0.00  0.00    +0.008 A 
BRANCH  28  31
ATOM     31  C   UNL     1       2.849  -0.282  -0.811  0.00  0.00    +0.100 C 
ATOM     32  N   UNL     1       3.884  -0.706  -0.613  0.00  0.00    -0.191 NA
ENDBRANCH  28  31
ENDBRANCH  24  29
ENDBRANCH  23  24
ENDBRANCH   1  23
TORSDOF 7
