REMARK  Name = ZINC06330111
REMARK  8 active torsions:
REMARK  status: ('A' for Active; 'I' for Inactive)
REMARK    1  A    between atoms: C_3  and  C_9
REMARK    2  A    between atoms: C_4  and  O_8
REMARK    3  A    between atoms: C_6  and  O_7
REMARK    4  A    between atoms: N_10  and  N_11
REMARK    5  A    between atoms: C_15  and  S_18
REMARK    6  A    between atoms: S_18  and  C_19
REMARK    7  A    between atoms: C_19  and  C_20
REMARK    8  A    between atoms: N_22  and  C_23
REMARK                            x       y       z     vdW  Elec       q    Type
REMARK                         _______ _______ _______ _____ _____    ______ ____
ROOT
ATOM      1  N   UNL     1       3.955  -7.848   0.560  0.00  0.00    -0.205 N 
ATOM      2  C   UNL     1       3.243  -6.662   0.458  0.00  0.00    +0.235 A 
ATOM      3  N   UNL     1       3.764  -5.401   0.548  0.00  0.00    -0.303 N 
ATOM      4  H   UNL     1       4.697  -5.178   0.694  0.00  0.00    +0.171 HD
ATOM      5  C   UNL     1       2.740  -4.509   0.395  0.00  0.00    +0.191 A 
ATOM      6  N   UNL     1       1.632  -5.189   0.223  0.00  0.00    -0.121 NA
ATOM      7  N   UNL     1       1.952  -6.553   0.257  0.00  0.00    -0.111 NA
ATOM      8  H   UNL     1       4.914  -7.826   0.709  0.00  0.00    +0.177 HD
ENDROOT
BRANCH   1  10
ATOM      9  C   UNL     1       3.958 -10.186   0.543  0.00  0.00    +0.142 C 
ATOM     10  N   UNL     1       3.291  -9.076   0.447  0.00  0.00    -0.187 NA
BRANCH   9  13
ATOM     11  C   UNL     1       3.316 -13.880   0.416  0.00  0.00    +0.046 A 
ATOM     12  C   UNL     1       3.974 -12.674   0.527  0.00  0.00    +0.016 A 
ATOM     13  C   UNL     1       3.259 -11.478   0.425  0.00  0.00    +0.036 A 
ATOM     14  C   UNL     1       1.873 -11.512   0.214  0.00  0.00    +0.129 A 
ATOM     15  C   UNL     1       1.225 -12.729   0.099  0.00  0.00    +0.091 A 
ATOM     16  C   UNL     1       1.944 -13.911   0.202  0.00  0.00    +0.120 A 
BRANCH  16  17
ATOM     17  O   UNL     1       1.303 -15.104   0.093  0.00  0.00    -0.507 OA
ATOM     18  H   UNL     1       0.981 -15.456   0.935  0.00  0.00    +0.292 HD
ENDBRANCH  16  17
BRANCH  14  19
ATOM     19  O   UNL     1       1.170 -10.354   0.120  0.00  0.00    -0.506 OA
ATOM     20  H   UNL     1       1.098 -10.009  -0.781  0.00  0.00    +0.292 HD
ENDBRANCH  14  19
ENDBRANCH   9  13
ENDBRANCH   1  10
BRANCH   5  21
ATOM     21  S   UNL     1       2.883  -2.753   0.431  0.00  0.00    -0.077 S 
BRANCH  21  22
ATOM     22  C   UNL     1       1.185  -2.170   0.170  0.00  0.00    +0.173 C 
BRANCH  22  23
ATOM     23  C   UNL     1       1.164  -0.663   0.178  0.00  0.00    +0.224 C 
ATOM     24  O   UNL     1       2.194  -0.044   0.344  0.00  0.00    -0.275 OA
ATOM     25  N   UNL     1       0.002  -0.004   0.002  0.00  0.00    -0.312 N 
ATOM     26  H   UNL     1      -0.821  -0.500  -0.130  0.00  0.00    +0.149 HD
BRANCH  25  27
ATOM     27  C   UNL     1      -0.018   1.461   0.010  0.00  0.00    +0.073 C 
ATOM     28  C   UNL     1      -1.141   2.148   0.790  0.00  0.00    +0.024 C 
ATOM     29  C   UNL     1      -1.155   2.156  -0.741  0.00  0.00    +0.024 C 
ENDBRANCH  25  27
ENDBRANCH  22  23
ENDBRANCH  21  22
ENDBRANCH   5  21
TORSDOF 8
