REMARK  Name = ZINC57236354
REMARK  6 active torsions:
REMARK  status: ('A' for Active; 'I' for Inactive)
REMARK    1  A    between atoms: C_1  and  C_2
REMARK    2  A    between atoms: C_3  and  C_7
REMARK    3  A    between atoms: N_9  and  C_10
REMARK    4  A    between atoms: C_13  and  N_16
REMARK    5  A    between atoms: C_17  and  C_19
REMARK    6  A    between atoms: C_20  and  C_21
REMARK                            x       y       z     vdW  Elec       q    Type
REMARK                         _______ _______ _______ _____ _____    ______ ____
ROOT
ATOM      1  C   UNL     1      -4.803  -0.857  -0.051  0.00  0.00    +0.034 A 
ATOM      2  C   UNL     1      -5.071   0.503  -0.140  0.00  0.00    +0.025 A 
ATOM      3  C   UNL     1      -6.376   0.945  -0.228  0.00  0.00    +0.025 A 
ATOM      4  C   UNL     1      -7.421   0.030  -0.226  0.00  0.00    +0.034 A 
ATOM      5  C   UNL     1      -7.152  -1.330  -0.136  0.00  0.00    +0.025 A 
ATOM      6  C   UNL     1      -5.847  -1.772  -0.054  0.00  0.00    +0.025 A 
ENDROOT
BRANCH   1   9
ATOM      7  C   UNL     1      -3.118  -2.459  -0.558  0.00  0.00    +0.253 C 
ATOM      8  O   UNL     1      -3.957  -3.153  -1.100  0.00  0.00    -0.270 OA
ATOM      9  N   UNL     1      -3.479  -1.305   0.037  0.00  0.00    -0.281 N 
ATOM     10  H   UNL     1      -2.823  -0.785   0.526  0.00  0.00    +0.155 HD
BRANCH   7  13
ATOM     11  C   UNL     1      -1.974  -5.071  -1.849  0.00  0.00    +0.090 C 
ATOM     12  C   UNL     1      -1.192  -4.015  -1.111  0.00  0.00    +0.146 A 
ATOM     13  C   UNL     1      -1.705  -2.880  -0.553  0.00  0.00    +0.098 A 
ATOM     14  C   UNL     1      -0.583  -2.160   0.052  0.00  0.00    +0.170 A 
ATOM     15  N   UNL     1       0.487  -2.867  -0.166  0.00  0.00    -0.086 NA
ATOM     16  O   UNL     1       0.124  -4.029  -0.884  0.00  0.00    -0.359 OA
ENDBRANCH   7  13
ENDBRANCH   1   9
BRANCH   4  17
ATOM     17  N   UNL     1      -8.744   0.478  -0.314  0.00  0.00    -0.282 N 
ATOM     18  C   UNL     1      -9.041   1.559  -1.061  0.00  0.00    +0.241 C 
ATOM     19  O   UNL     1      -8.149   2.196  -1.593  0.00  0.00    -0.270 OA
ATOM     20  H   UNL     1      -9.447   0.010   0.164  0.00  0.00    +0.155 HD
BRANCH  18  21
ATOM     21  C   UNL     1     -10.390   1.955  -1.230  0.00  0.00    +0.068 C 
ATOM     22  C   UNL     1     -10.689   3.040  -1.980  0.00  0.00    +0.013 C 
BRANCH  22  23
ATOM     23  C   UNL     1     -12.086   3.450  -2.155  0.00  0.00    -0.018 A 
ATOM     24  C   UNL     1     -12.444   4.598  -2.952  0.00  0.00    +0.015 A 
ATOM     25  C   UNL     1     -13.762   4.868  -3.033  0.00  0.00    +0.046 A 
ATOM     26  S   UNL     1     -14.499   3.586  -2.043  0.00  0.00    -0.104 S 
ATOM     27  C   UNL     1     -13.123   2.752  -1.569  0.00  0.00    +0.053 A 
ENDBRANCH  22  23
ENDBRANCH  18  21
ENDBRANCH   4  17
TORSDOF 5
