REMARK  Name = ZINC49114732
REMARK  6 active torsions:
REMARK  status: ('A' for Active; 'I' for Inactive)
REMARK    1  A    between atoms: C_1  and  C_2
REMARK    2  A    between atoms: C_4  and  N_7
REMARK    3  A    between atoms: N_7  and  S_8
REMARK    4  A    between atoms: S_8  and  C_11
REMARK    5  A    between atoms: C_14  and  N_17
REMARK    6  A    between atoms: C_18  and  C_19
REMARK                            x       y       z     vdW  Elec       q    Type
REMARK                         _______ _______ _______ _____ _____    ______ ____
ROOT
ATOM      1  C   UNL     1      -2.050  -5.963  -0.022  0.00  0.00    +0.111 A 
ATOM      2  C   UNL     1      -2.561  -6.425   1.178  0.00  0.00    +0.031 A 
ATOM      3  C   UNL     1      -3.588  -7.345   1.185  0.00  0.00    +0.029 A 
ATOM      4  C   UNL     1      -4.113  -7.811  -0.022  0.00  0.00    +0.064 A 
ATOM      5  C   UNL     1      -3.594  -7.339  -1.230  0.00  0.00    +0.029 A 
ATOM      6  C   UNL     1      -2.570  -6.415  -1.222  0.00  0.00    +0.031 A 
ENDROOT
BRANCH   1   7
ATOM      7  S   UNL     1      -0.738  -4.787  -0.022  0.00  0.00    +0.093 S 
ATOM      8  O   UNL     1      -0.075  -4.918  -1.272  0.00  0.00    -0.148 OA
ATOM      9  O   UNL     1      -0.062  -4.933   1.218  0.00  0.00    -0.148 OA
BRANCH   7  10
ATOM     10  N   UNL     1      -1.430  -3.282  -0.010  0.00  0.00    -0.074 NA
BRANCH  10  14
ATOM     11  C   UNL     1      -0.018   1.503   0.010  0.00  0.00    +0.089 C 
ATOM     12  C   UNL     1       0.002  -0.004   0.002  0.00  0.00    +0.136 A 
ATOM     13  C   UNL     1      -1.076  -0.807   0.003  0.00  0.00    +0.094 A 
ATOM     14  C   UNL     1      -0.625  -2.147  -0.008  0.00  0.00    +0.205 A 
ATOM     15  N   UNL     1       0.684  -2.130  -0.014  0.00  0.00    -0.060 NA
ATOM     16  O   UNL     1       1.100  -0.776  -0.013  0.00  0.00    -0.358 OA
ENDBRANCH  10  14
ENDBRANCH   7  10
ENDBRANCH   1   7
BRANCH   4  17
ATOM     17  N   UNL     1      -5.132  -8.724  -0.022  0.00  0.00    -0.255 NA
ATOM     18  C   UNL     1      -6.154  -8.563  -0.819  0.00  0.00    +0.121 C 
BRANCH  18  19
ATOM     19  C   UNL     1      -7.245  -9.541  -0.819  0.00  0.00    +0.018 A 
ATOM     20  C   UNL     1      -8.369  -9.512  -1.594  0.00  0.00    +0.093 A 
ATOM     21  N   UNL     1      -9.147 -10.588  -1.312  0.00  0.00    -0.360 N 
ATOM     22  H   UNL     1      -9.997 -10.783  -1.737  0.00  0.00    +0.165 HD
ATOM     23  C   UNL     1      -8.558 -11.366  -0.337  0.00  0.00    +0.047 A 
ATOM     24  C   UNL     1      -7.343 -10.755   0.013  0.00  0.00    +0.008 A 
ATOM     25  C   UNL     1      -6.525 -11.331   0.982  0.00  0.00    +0.010 A 
ATOM     26  C   UNL     1      -6.913 -12.504   1.592  0.00  0.00    +0.001 A 
ATOM     27  C   UNL     1      -8.111 -13.111   1.245  0.00  0.00    +0.002 A 
ATOM     28  C   UNL     1      -8.934 -12.547   0.294  0.00  0.00    +0.026 A 
ENDBRANCH  18  19
ENDBRANCH   4  17
TORSDOF 5
