REMARK  Name = ZINC39915956
REMARK  10 active torsions:
REMARK  status: ('A' for Active; 'I' for Inactive)
REMARK    1  A    between atoms: C_4  and  C_7
REMARK    2  A    between atoms: C_7  and  C_8
REMARK    3  A    between atoms: C_8  and  N_9
REMARK    4  A    between atoms: C_17  and  S_18
REMARK    5  A    between atoms: S_18  and  C_19
REMARK    6  A    between atoms: C_21  and  O_34
REMARK    7  A    between atoms: C_23  and  O_33
REMARK    8  A    between atoms: C_25  and  O_32
REMARK    9  A    between atoms: C_27  and  C_30
REMARK   10  A    between atoms: C_30  and  O_31
REMARK                            x       y       z     vdW  Elec       q    Type
REMARK                         _______ _______ _______ _____ _____    ______ ____
ROOT
ATOM      1  N   UNL     1       5.450  -1.678   1.382  0.00  0.00    -0.318 N 
ATOM      2  C   UNL     1       5.622  -3.053   1.368  0.00  0.00    +0.069 A 
ATOM      3  C   UNL     1       4.751  -4.131   1.365  0.00  0.00    +0.028 A 
ATOM      4  C   UNL     1       5.249  -5.418   1.349  0.00  0.00    +0.002 A 
ATOM      5  C   UNL     1       6.618  -5.640   1.336  0.00  0.00    +0.002 A 
ATOM      6  C   UNL     1       7.499  -4.582   1.339  0.00  0.00    +0.030 A 
ATOM      7  C   UNL     1       7.010  -3.273   1.355  0.00  0.00    +0.090 A 
ATOM      8  N   UNL     1       7.608  -2.053   1.361  0.00  0.00    -0.222 NA
ATOM      9  C   UNL     1       6.694  -1.114   1.371  0.00  0.00    +0.172 A 
ENDROOT
BRANCH   1  10
ATOM     10  C   UNL     1       4.171  -0.963   1.399  0.00  0.00    +0.129 C 
BRANCH  10  11
ATOM     11  C   UNL     1       3.711  -0.707  -0.038  0.00  0.00    +0.057 C 
BRANCH  11  15
ATOM     12  C   UNL     1      -0.017   1.378   0.010  0.00  0.00    +0.000 A 
ATOM     13  C   UNL     1       1.171   2.086   0.002  0.00  0.00    +0.000 A 
ATOM     14  C   UNL     1       2.377   1.411  -0.013  0.00  0.00    +0.004 A 
ATOM     15  C   UNL     1       2.396   0.029  -0.020  0.00  0.00    -0.046 A 
ATOM     16  C   UNL     1       1.208  -0.679  -0.012  0.00  0.00    +0.004 A 
ATOM     17  C   UNL     1       0.002  -0.004   0.002  0.00  0.00    +0.000 A 
ENDBRANCH  11  15
ENDBRANCH  10  11
ENDBRANCH   1  10
BRANCH   9  18
ATOM     18  S   UNL     1       7.021   0.617   1.376  0.00  0.00    -0.054 S 
BRANCH  18  19
ATOM     19  C   UNL     1       8.832   0.722   1.357  0.00  0.00    +0.214 C 
ATOM     20  C   UNL     1       9.262   2.170   1.609  0.00  0.00    +0.185 C 
ATOM     21  C   UNL     1      10.789   2.261   1.532  0.00  0.00    +0.177 C 
ATOM     22  C   UNL     1      11.252   1.747   0.165  0.00  0.00    +0.176 C 
ATOM     23  C   UNL     1      10.745   0.316  -0.031  0.00  0.00    +0.176 C 
ATOM     24  O   UNL     1       9.320   0.296   0.083  0.00  0.00    -0.355 OA
BRANCH  22  25
ATOM     25  O   UNL     1      10.726   2.587  -0.864  0.00  0.00    -0.386 OA
ATOM     26  H   UNL     1      11.004   3.511  -0.799  0.00  0.00    +0.210 HD
ENDBRANCH  22  25
BRANCH  21  27
ATOM     27  O   UNL     1      11.195   3.622   1.695  0.00  0.00    -0.386 OA
ATOM     28  H   UNL     1      10.929   4.013   2.538  0.00  0.00    +0.210 HD
ENDBRANCH  21  27
BRANCH  20  29
ATOM     29  O   UNL     1       8.681   3.020   0.619  0.00  0.00    -0.386 OA
ATOM     30  H   UNL     1       7.714   3.008   0.608  0.00  0.00    +0.210 HD
ENDBRANCH  20  29
BRANCH  23  31
ATOM     31  C   UNL     1      11.152  -0.184  -1.419  0.00  0.00    +0.190 C 
BRANCH  31  32
ATOM     32  O   UNL     1      10.781  -1.557  -1.558  0.00  0.00    -0.392 OA
ATOM     33  H   UNL     1      11.010  -1.941  -2.416  0.00  0.00    +0.210 HD
ENDBRANCH  31  32
ENDBRANCH  23  31
ENDBRANCH  18  19
ENDBRANCH   9  18
TORSDOF 10
