REMARK  Name = ZINC40687319
REMARK  5 active torsions:
REMARK  status: ('A' for Active; 'I' for Inactive)
REMARK    1  A    between atoms: C_1  and  C_2
REMARK    2  A    between atoms: C_9  and  O_12
REMARK    3  A    between atoms: O_12  and  C_13
REMARK    4  A    between atoms: C_14  and  N_28
REMARK    5  A    between atoms: C_15  and  N_19
REMARK                            x       y       z     vdW  Elec       q    Type
REMARK                         _______ _______ _______ _____ _____    ______ ____
ROOT
ATOM      1  C   UNL     1      -0.013  -2.680   4.749  0.00  0.00    +0.246 A 
ATOM      2  C   UNL     1      -0.142  -2.024   5.973  0.00  0.00    +0.128 A 
ATOM      3  C   UNL     1      -0.262  -2.800   7.128  0.00  0.00    +0.153 A 
ATOM      4  N   UNL     1      -0.247  -4.126   7.018  0.00  0.00    -0.218 NA
ATOM      5  C   UNL     1      -0.122  -4.706   5.841  0.00  0.00    +0.227 A 
ATOM      6  N   UNL     1      -0.013  -4.010   4.727  0.00  0.00    -0.199 NA
ENDROOT
BRANCH   3   7
ATOM      7  N   UNL     1      -0.393  -2.197   8.373  0.00  0.00    -0.283 N 
ATOM      8  C   UNL     1      -1.661  -1.765   8.967  0.00  0.00    +0.117 C 
ATOM      9  C   UNL     1      -1.284  -1.167  10.332  0.00  0.00    +0.056 C 
ATOM     10  C   UNL     1       0.220  -1.311  10.408  0.00  0.00    -0.025 A 
ATOM     11  C   UNL     1       0.663  -1.920   9.244  0.00  0.00    +0.038 A 
ATOM     12  C   UNL     1       2.028  -2.165   9.086  0.00  0.00    +0.024 A 
ATOM     13  C   UNL     1       2.918  -1.810  10.077  0.00  0.00    +0.002 A 
ATOM     14  C   UNL     1       2.465  -1.208  11.236  0.00  0.00    +0.000 A 
ATOM     15  C   UNL     1       1.115  -0.953  11.396  0.00  0.00    +0.005 A 
ENDBRANCH   3   7
BRANCH   2  16
ATOM     16  N   UNL     1      -0.153  -0.623   6.041  0.00  0.00    -0.351 N 
ATOM     17  H   UNL     1      -0.150  -0.097   5.226  0.00  0.00    +0.143 HD
ATOM     18  H   UNL     1      -0.163  -0.180   6.904  0.00  0.00    +0.143 HD
ENDBRANCH   2  16
BRANCH   1  19
ATOM     19  O   UNL     1       0.106  -1.973   3.598  0.00  0.00    -0.434 OA
BRANCH  19  28
ATOM     20  C   UNL     1      -4.641  -2.782   2.278  0.00  0.00    +0.065 C 
ATOM     21  C   UNL     1      -3.311  -3.137   1.665  0.00  0.00    +0.039 A 
ATOM     22  C   UNL     1      -3.284  -3.847   0.466  0.00  0.00    +0.023 A 
ATOM     23  C   UNL     1      -2.087  -4.176  -0.103  0.00  0.00    +0.012 A 
ATOM     24  C   UNL     1      -0.907  -3.780   0.554  0.00  0.00    +0.004 A 
ATOM     25  C   UNL     1       0.360  -4.083   0.028  0.00  0.00    +0.010 A 
ATOM     26  C   UNL     1       1.480  -3.683   0.691  0.00  0.00    +0.004 A 
ATOM     27  C   UNL     1       1.389  -2.975   1.887  0.00  0.00    +0.048 A 
ATOM     28  C   UNL     1       0.175  -2.663   2.430  0.00  0.00    +0.156 A 
ATOM     29  C   UNL     1      -1.007  -3.061   1.770  0.00  0.00    +0.113 A 
ATOM     30  N   UNL     1      -2.209  -2.765   2.271  0.00  0.00    -0.248 NA
ENDBRANCH  19  28
ENDBRANCH   1  19
TORSDOF 4
