REMARK  Name = ZINC51951861
REMARK  8 active torsions:
REMARK  status: ('A' for Active; 'I' for Inactive)
REMARK    1  A    between atoms: C_1  and  C_2
REMARK    2  A    between atoms: C_2  and  C_4
REMARK    3  A    between atoms: C_2  and  N_14
REMARK    4  A    between atoms: N_9  and  C_10
REMARK    5  A    between atoms: C_10  and  C_11
REMARK    6  A    between atoms: C_11  and  C_12
REMARK    7  A    between atoms: C_11  and  C_13
REMARK    8  A    between atoms: C_17  and  N_20
REMARK                            x       y       z     vdW  Elec       q    Type
REMARK                         _______ _______ _______ _____ _____    ______ ____
ROOT
ATOM      1  C   UNL     1      -0.697   1.312  -0.343  0.00  0.00    -0.004 C 
ATOM      2  C   UNL     1       0.002  -0.004   0.002  0.00  0.00    +0.017 C 
ENDROOT
BRANCH   2   3
ATOM      3  C   UNL     1       0.597  -0.600  -1.248  0.00  0.00    +0.207 C 
ATOM      4  O   UNL     1      -0.041  -1.395  -1.904  0.00  0.00    -0.277 OA
ATOM      5  N   UNL     1       1.839  -0.249  -1.637  0.00  0.00    -0.242 N 
ATOM      6  C   UNL     1       2.371  -0.781  -2.754  0.00  0.00    +0.306 C 
ATOM      7  O   UNL     1       1.731  -1.579  -3.412  0.00  0.00    -0.252 OA
ATOM      8  N   UNL     1       3.613  -0.430  -3.143  0.00  0.00    -0.299 N 
ATOM      9  H   UNL     1       2.350   0.388  -1.112  0.00  0.00    +0.159 HD
ATOM     10  H   UNL     1       4.123   0.206  -2.619  0.00  0.00    +0.150 HD
BRANCH   8  11
ATOM     11  C   UNL     1       4.191  -1.009  -4.358  0.00  0.00    +0.108 C 
BRANCH  11  12
ATOM     12  C   UNL     1       5.598  -0.448  -4.571  0.00  0.00    -0.000 C 
ATOM     13  C   UNL     1       6.509  -0.907  -3.430  0.00  0.00    +0.009 C 
ATOM     14  C   UNL     1       6.154  -0.955  -5.903  0.00  0.00    +0.009 C 
ENDBRANCH  11  12
ENDBRANCH   8  11
ENDBRANCH   2   3
BRANCH   2  15
ATOM     15  N   UNL     1      -0.974  -0.941   0.575  0.00  0.00    +0.387 N 
ATOM     16  C   UNL     1      -0.296  -2.194   0.930  0.00  0.00    -0.079 C 
ATOM     17  C   UNL     1      -1.322  -3.202   1.452  0.00  0.00    -0.034 C 
ATOM     18  C   UNL     1      -2.014  -2.625   2.690  0.00  0.00    -0.072 C 
ATOM     19  C   UNL     1      -2.654  -1.282   2.325  0.00  0.00    -0.034 C 
ATOM     20  C   UNL     1      -1.579  -0.345   1.772  0.00  0.00    -0.079 C 
ATOM     21  H   UNL     1      -1.694  -1.132  -0.106  0.00  0.00    -0.081 HD
BRANCH  18  22
ATOM     22  N   UNL     1      -3.053  -3.555   3.151  0.00  0.00    +0.381 N 
ATOM     23  C   UNL     1      -3.709  -3.010   4.359  0.00  0.00    -0.079 C 
ATOM     24  C   UNL     1      -4.008  -4.249   5.240  0.00  0.00    -0.020 C 
ATOM     25  C   UNL     1      -2.757  -5.128   4.979  0.00  0.00    -0.020 C 
ATOM     26  C   UNL     1      -2.441  -4.852   3.494  0.00  0.00    -0.079 C 
ATOM     27  H   UNL     1      -3.740  -3.685   2.424  0.00  0.00    -0.081 HD
ENDBRANCH  18  22
ENDBRANCH   2  15
TORSDOF 5
