REMARK  Name = ZINC04226978
REMARK  1 active torsions:
REMARK  status: ('A' for Active; 'I' for Inactive)
REMARK    1  A    between atoms: C_1  and  N_2
REMARK                            x       y       z     vdW  Elec       q    Type
REMARK                         _______ _______ _______ _____ _____    ______ ____
ROOT
ATOM      1  C   UNL     1       0.846  -2.217   0.055  0.00  0.00    +0.131 C 
ATOM      2  N   UNL     1       1.079  -0.771   0.050  0.00  0.00    -0.308 N 
ATOM      3  C   UNL     1       2.465  -0.342  -0.063  0.00  0.00    +0.123 C 
ATOM      4  C   UNL     1       3.351  -1.399   0.652  0.00  0.00    +0.190 C 
ATOM      5  S   UNL     1       3.465  -0.735   2.364  0.00  0.00    -0.027 S 
ATOM      6  O   UNL     1       4.824  -0.440   2.656  0.00  0.00    -0.174 OA
ATOM      7  O   UNL     1       2.729  -1.580   3.237  0.00  0.00    -0.174 OA
ATOM      8  C   UNL     1       2.542   0.846   2.140  0.00  0.00    +0.195 C 
ATOM      9  C   UNL     1       2.675   1.026   0.605  0.00  0.00    +0.194 C 
ATOM     10  S   UNL     1       1.407   2.182   0.018  0.00  0.00    +0.051 S 
ATOM     11  O   UNL     1       1.545   2.396  -1.380  0.00  0.00    -0.155 OA
ATOM     12  O   UNL     1       1.285   3.277   0.915  0.00  0.00    -0.155 OA
ATOM     13  N   UNL     1      -0.009   1.334   0.183  0.00  0.00    -0.201 N 
ATOM     14  C   UNL     1       0.005  -0.004   0.148  0.00  0.00    +0.152 C 
ATOM     15  S   UNL     1      -1.508  -0.799   0.238  0.00  0.00    -0.017 S 
ATOM     16  H   UNL     1      -0.848   1.808   0.301  0.00  0.00    +0.175 HD
ENDROOT
TORSDOF 0
