REMARK  Name = ZINC24704661
REMARK  6 active torsions:
REMARK  status: ('A' for Active; 'I' for Inactive)
REMARK    1  A    between atoms: C_1  and  C_2
REMARK    2  A    between atoms: C_2  and  C_4
REMARK    3  A    between atoms: C_2  and  N_24
REMARK    4  A    between atoms: N_6  and  C_7
REMARK    5  A    between atoms: C_10  and  N_13
REMARK    6  A    between atoms: C_14  and  C_16
REMARK                            x       y       z     vdW  Elec       q    Type
REMARK                         _______ _______ _______ _____ _____    ______ ____
ROOT
ATOM      1  C   UNL     1       1.739   0.247  -0.193  0.00  0.00    +0.034 A 
ATOM      2  C   UNL     1       0.677  -0.647  -0.236  0.00  0.00    +0.025 A 
ATOM      3  C   UNL     1      -0.616  -0.178  -0.352  0.00  0.00    +0.025 A 
ATOM      4  C   UNL     1      -0.855   1.189  -0.426  0.00  0.00    +0.034 A 
ATOM      5  C   UNL     1       0.207   2.083  -0.383  0.00  0.00    +0.025 A 
ATOM      6  C   UNL     1       1.500   1.613  -0.267  0.00  0.00    +0.025 A 
ENDROOT
BRANCH   1   9
ATOM      7  C   UNL     1       3.403  -1.387  -0.670  0.00  0.00    +0.242 C 
ATOM      8  O   UNL     1       2.614  -1.966  -1.386  0.00  0.00    -0.273 OA
ATOM      9  N   UNL     1       3.051  -0.230  -0.076  0.00  0.00    -0.284 N 
ATOM     10  H   UNL     1       3.793   0.341   0.502  0.00  0.00    +0.155 HD
BRANCH   7  12
ATOM     11  C   UNL     1       5.833  -0.962  -0.926  0.00  0.00    +0.042 C 
ATOM     12  C   UNL     1       4.779  -1.960  -0.446  0.00  0.00    +0.191 C 
BRANCH  12  13
ATOM     13  N   UNL     1       4.914  -3.212  -1.195  0.00  0.00    -0.240 N 
ATOM     14  C   UNL     1       5.262  -3.344  -2.487  0.00  0.00    +0.219 A 
ATOM     15  N   UNL     1       5.271  -4.620  -2.776  0.00  0.00    -0.223 NA
ATOM     16  C   UNL     1       4.929  -5.330  -1.702  0.00  0.00    +0.245 A 
ATOM     17  N   UNL     1       4.700  -4.512  -0.709  0.00  0.00    -0.158 NA
ENDBRANCH  12  13
ENDBRANCH   7  12
ENDBRANCH   1   9
BRANCH   4  18
ATOM     18  N   UNL     1      -2.166   1.665  -0.548  0.00  0.00    -0.281 N 
ATOM     19  C   UNL     1      -2.521   2.821   0.045  0.00  0.00    +0.250 C 
ATOM     20  O   UNL     1      -1.734   3.401   0.767  0.00  0.00    -0.270 OA
ATOM     21  H   UNL     1      -2.906   1.094  -1.130  0.00  0.00    +0.155 HD
BRANCH  19  22
ATOM     22  C   UNL     1      -3.869   3.384  -0.181  0.00  0.00    +0.057 A 
ATOM     23  C   UNL     1      -4.776   2.720  -1.009  0.00  0.00    +0.034 A 
ATOM     24  C   UNL     1      -6.033   3.252  -1.216  0.00  0.00    +0.042 A 
ATOM     25  C   UNL     1      -6.395   4.440  -0.604  0.00  0.00    +0.021 A 
ATOM     26  C   UNL     1      -5.502   5.103   0.217  0.00  0.00    +0.022 A 
ATOM     27  C   UNL     1      -4.242   4.580   0.438  0.00  0.00    +0.053 A 
ATOM     28 CL   UNL     1      -3.125   5.409   1.475  0.00  0.00    -0.083 Cl
ATOM     29 CL   UNL     1      -7.162   2.428  -2.245  0.00  0.00    -0.084 Cl
ENDBRANCH  19  22
ENDBRANCH   4  18
TORSDOF 5
