REMARK  Name = ZINC08961054
REMARK  4 active torsions:
REMARK  status: ('A' for Active; 'I' for Inactive)
REMARK    1  A    between atoms: C_1  and  N_2
REMARK    2  A    between atoms: C_13  and  N_18
REMARK    3  A    between atoms: N_18  and  S_19
REMARK    4  A    between atoms: S_19  and  C_22
REMARK                            x       y       z     vdW  Elec       q    Type
REMARK                         _______ _______ _______ _____ _____    ______ ____
ROOT
ATOM      1  C   UNL     1       1.037   7.612   6.695  0.00  0.00    +0.139 C 
ATOM      2  N   UNL     1       0.232   7.834   5.492  0.00  0.00    -0.267 N 
ATOM      3  C   UNL     1      -0.257   9.124   5.290  0.00  0.00    +0.079 A 
ATOM      4  C   UNL     1      -0.687   9.860   6.389  0.00  0.00    +0.027 A 
ATOM      5  C   UNL     1      -1.110  11.165   6.232  0.00  0.00    +0.002 A 
ATOM      6  C   UNL     1      -1.109  11.747   4.978  0.00  0.00    +0.004 A 
ATOM      7  C   UNL     1      -0.698  11.018   3.878  0.00  0.00    +0.048 A 
ATOM      8  C   UNL     1      -0.283   9.702   4.027  0.00  0.00    +0.150 A 
ATOM      9  O   UNL     1       0.086   9.002   2.925  0.00  0.00    -0.453 OA
ATOM     10  C   UNL     1      -0.641   7.913   2.583  0.00  0.00    +0.141 A 
ATOM     11  C   UNL     1      -1.334   7.902   1.380  0.00  0.00    +0.049 A 
ATOM     12  C   UNL     1      -2.110   6.814   1.034  0.00  0.00    +0.028 A 
ATOM     13  C   UNL     1      -2.212   5.725   1.893  0.00  0.00    +0.049 A 
ATOM     14  C   UNL     1      -1.530   5.725   3.098  0.00  0.00    +0.041 A 
ATOM     15  C   UNL     1      -0.725   6.814   3.443  0.00  0.00    +0.081 A 
ATOM     16  C   UNL     1       0.037   6.788   4.700  0.00  0.00    +0.254 C 
ATOM     17  O   UNL     1       0.526   5.728   5.039  0.00  0.00    -0.270 OA
ENDROOT
BRANCH  13  18
ATOM     18  N   UNL     1      -3.010   4.631   1.542  0.00  0.00    -0.216 N 
ATOM     19  H   UNL     1      -3.620   4.247   2.191  0.00  0.00    +0.174 HD
BRANCH  18  20
ATOM     20  S   UNL     1      -2.913   3.991   0.018  0.00  0.00    +0.073 S 
ATOM     21  O   UNL     1      -3.086   5.071  -0.889  0.00  0.00    -0.150 OA
ATOM     22  O   UNL     1      -3.752   2.844   0.004  0.00  0.00    -0.150 OA
BRANCH  20  23
ATOM     23  C   UNL     1      -1.264   3.410  -0.200  0.00  0.00    +0.116 A 
ATOM     24  C   UNL     1      -0.459   3.974  -1.141  0.00  0.00    +0.029 A 
ATOM     25  C   UNL     1       0.847   3.525  -1.331  0.00  0.00    +0.003 A 
ATOM     26  C   UNL     1       1.359   2.518  -0.573  0.00  0.00    +0.008 A 
ATOM     27  C   UNL     1       0.559   1.915   0.414  0.00  0.00    -0.016 A 
ATOM     28  C   UNL     1      -0.770   2.368   0.603  0.00  0.00    +0.009 A 
ATOM     29  C   UNL     1      -1.569   1.766   1.590  0.00  0.00    +0.010 A 
ATOM     30  C   UNL     1      -1.058   0.758   2.348  0.00  0.00    +0.001 A 
ATOM     31  C   UNL     1       0.250   0.313   2.162  0.00  0.00    +0.001 A 
ATOM     32  C   UNL     1       1.053   0.872   1.216  0.00  0.00    +0.008 A 
ENDBRANCH  20  23
ENDBRANCH  18  20
ENDBRANCH  13  18
TORSDOF 3
