REMARK  Name = ZINC61691882
REMARK  4 active torsions:
REMARK  status: ('A' for Active; 'I' for Inactive)
REMARK    1  A    between atoms: C_4  and  N_8
REMARK    2  A    between atoms: N_8  and  S_9
REMARK    3  A    between atoms: S_9  and  C_12
REMARK    4  A    between atoms: C_13  and  C_18
REMARK                            x       y       z     vdW  Elec       q    Type
REMARK                         _______ _______ _______ _____ _____    ______ ____
ROOT
ATOM      1  S   UNL     1       3.645  -2.307  -0.045  0.00  0.00    +0.109 S 
ATOM      2  O   UNL     1       3.113  -2.728   1.203  0.00  0.00    -0.147 OA
ATOM      3  O   UNL     1       3.088  -2.714  -1.288  0.00  0.00    -0.147 OA
ENDROOT
BRANCH   1   4
ATOM      4  C   UNL     1       5.336  -2.803  -0.065  0.00  0.00    +0.207 A 
ATOM      5  C   UNL     1       6.260  -2.567  -1.110  0.00  0.00    +0.125 A 
ATOM      6  C   UNL     1       7.466  -3.119  -0.718  0.00  0.00    +0.120 A 
ATOM      7  N   UNL     1       7.284  -3.659   0.496  0.00  0.00    -0.305 N 
ATOM      8  N   UNL     1       5.957  -3.446   0.884  0.00  0.00    -0.282 N 
ATOM      9  H   UNL     1       7.961  -4.117   1.019  0.00  0.00    +0.186 HD
ATOM     10  H   UNL     1       5.562  -3.733   1.722  0.00  0.00    +0.188 HD
BRANCH   5  11
ATOM     11  C   UNL     1       5.988  -1.868  -2.374  0.00  0.00    +0.391 C 
ATOM     12  O   UNL     1       6.880  -1.730  -3.201  0.00  0.00    -0.240 OA
ATOM     13  O   UNL     1       4.871  -1.424  -2.600  0.00  0.00    -0.240 OA
ENDBRANCH   5  11
ENDBRANCH   1   4
BRANCH   1  14
ATOM     14  N   UNL     1       3.621  -0.651  -0.036  0.00  0.00    -0.095 NA
BRANCH  14  18
ATOM     15  C   UNL     1      -0.017   1.379   0.010  0.00  0.00    +0.017 A 
ATOM     16  C   UNL     1       1.170   2.090   0.002  0.00  0.00    +0.023 A 
ATOM     17  C   UNL     1       2.378   1.420  -0.013  0.00  0.00    +0.065 A 
ATOM     18  C   UNL     1       2.400   0.030  -0.021  0.00  0.00    +0.094 A 
ATOM     19  C   UNL     1       1.208  -0.680  -0.013  0.00  0.00    +0.043 A 
ATOM     20  C   UNL     1       0.002  -0.004   0.002  0.00  0.00    +0.020 A 
ATOM     21 BR   UNL     1      -1.623  -0.971   0.013  0.00  0.00    -0.050 Br
ATOM     22 CL   UNL     1       3.867   2.313  -0.023  0.00  0.00    -0.082 Cl
ENDBRANCH  14  18
ENDBRANCH   1  14
TORSDOF 4
