REMARK  Name = ZINC50253715
REMARK  7 active torsions:
REMARK  status: ('A' for Active; 'I' for Inactive)
REMARK    1  A    between atoms: C_1  and  C_2
REMARK    2  A    between atoms: C_3  and  S_9
REMARK    3  A    between atoms: C_4  and  C_8
REMARK    4  A    between atoms: N_5  and  C_7
REMARK    5  A    between atoms: S_9  and  N_12
REMARK    6  A    between atoms: N_12  and  C_13
REMARK    7  A    between atoms: C_13  and  C_20
REMARK                            x       y       z     vdW  Elec       q    Type
REMARK                         _______ _______ _______ _____ _____    ______ ____
ROOT
ATOM      1  S   UNL     1       0.276  -0.430  -2.981  0.00  0.00    +0.063 S 
ATOM      2  O   UNL     1      -0.118   0.935  -2.974  0.00  0.00    -0.153 OA
ATOM      3  O   UNL     1       0.219  -1.245  -1.818  0.00  0.00    -0.153 OA
ENDROOT
BRANCH   1   6
ATOM      4  C   UNL     1      -1.050  -3.479  -2.970  0.00  0.00    +0.069 C 
ATOM      5  C   UNL     1      -1.228  -2.526  -4.124  0.00  0.00    +0.086 A 
ATOM      6  C   UNL     1      -0.705  -1.231  -4.206  0.00  0.00    +0.148 A 
ATOM      7  C   UNL     1      -1.085  -0.703  -5.392  0.00  0.00    +0.062 A 
ATOM      8  N   UNL     1      -1.823  -1.630  -6.038  0.00  0.00    -0.269 N 
ATOM      9  N   UNL     1      -1.894  -2.768  -5.223  0.00  0.00    -0.174 NA
ATOM     10  C   UNL     1      -2.437  -1.476  -7.359  0.00  0.00    +0.172 C 
ATOM     11  C   UNL     1      -0.746   0.674  -5.901  0.00  0.00    +0.067 C 
ENDBRANCH   1   6
BRANCH   1  12
ATOM     12  N   UNL     1       1.845  -0.467  -3.509  0.00  0.00    -0.170 NA
ATOM     13  H   UNL     1       2.323   0.362  -3.667  0.00  0.00    +0.150 HD
BRANCH  12  14
ATOM     14  C   UNL     1       2.511  -1.752  -3.736  0.00  0.00    +0.126 C 
ATOM     15  C   UNL     1       2.629  -2.498  -2.391  0.00  0.00    +0.039 C 
ATOM     16  C   UNL     1       2.824  -3.963  -2.673  0.00  0.00    +0.003 C 
ATOM     17  C   UNL     1       4.310  -4.366  -2.700  0.00  0.00    +0.000 C 
ATOM     18  C   UNL     1       5.195  -3.337  -3.430  0.00  0.00    +0.000 C 
ATOM     19  C   UNL     1       4.554  -2.815  -4.687  0.00  0.00    +0.003 C 
ATOM     20  C   UNL     1       3.808  -1.508  -4.351  0.00  0.00    +0.039 C 
BRANCH  14  21
ATOM     21  C   UNL     1       1.692  -2.557  -4.655  0.00  0.00    +0.086 C 
ATOM     22  N   UNL     1       1.059  -3.179  -5.365  0.00  0.00    -0.195 NA
ENDBRANCH  14  21
ENDBRANCH  12  14
ENDBRANCH   1  12
TORSDOF 4
