REMARK  Name = ZINC11694930
REMARK  4 active torsions:
REMARK  status: ('A' for Active; 'I' for Inactive)
REMARK    1  A    between atoms: C_1  and  C_2
REMARK    2  A    between atoms: C_4  and  C_19
REMARK    3  A    between atoms: C_6  and  C_14
REMARK    4  A    between atoms: N_21  and  C_22
REMARK                            x       y       z     vdW  Elec       q    Type
REMARK                         _______ _______ _______ _____ _____    ______ ____
ROOT
ATOM      1  C   UNL     1      -2.728   4.392  -2.233  0.00  0.00    +0.028 C 
ATOM      2  C   UNL     1      -3.430   3.854  -0.985  0.00  0.00    +0.084 C 
ATOM      3  C   UNL     1      -2.570   4.140   0.252  0.00  0.00    +0.125 C 
ATOM      4  C   UNL     1      -2.310   5.647   0.363  0.00  0.00    +0.161 C 
ATOM      5  N   UNL     1      -3.581   6.357   0.225  0.00  0.00    -0.224 N 
ATOM      6  C   UNL     1      -4.698   5.822  -0.324  0.00  0.00    +0.214 A 
ATOM      7  N   UNL     1      -5.640   6.725  -0.284  0.00  0.00    -0.202 NA
ATOM      8  C   UNL     1      -5.165   7.842   0.278  0.00  0.00    +0.247 A 
ATOM      9  N   UNL     1      -3.910   7.660   0.603  0.00  0.00    -0.156 NA
ATOM     10  N   UNL     1      -4.734   4.524  -0.817  0.00  0.00    -0.310 N 
ATOM     11  H   UNL     1      -5.569   4.083  -1.039  0.00  0.00    +0.149 HD
ENDROOT
BRANCH   4  12
ATOM     12  C   UNL     1      -1.703   5.957   1.708  0.00  0.00    +0.015 A 
ATOM     13  C   UNL     1      -0.506   6.525   1.993  0.00  0.00    +0.013 A 
ATOM     14  C   UNL     1      -0.153   6.716   3.316  0.00  0.00    +0.008 A 
ATOM     15  C   UNL     1      -1.015   6.330   4.288  0.00  0.00    +0.045 A 
ATOM     16  S   UNL     1      -2.378   5.679   3.337  0.00  0.00    -0.099 S 
ENDBRANCH   4  12
BRANCH   3  17
ATOM     17  C   UNL     1      -1.256   3.412   0.128  0.00  0.00    +0.224 C 
ATOM     18  O   UNL     1      -0.216   4.035   0.127  0.00  0.00    -0.275 OA
ATOM     19  N   UNL     1      -1.238   2.069   0.019  0.00  0.00    -0.285 N 
ATOM     20  H   UNL     1      -2.070   1.577  -0.057  0.00  0.00    +0.155 HD
BRANCH  19  21
ATOM     21  C   UNL     1      -0.017   1.384   0.015  0.00  0.00    +0.033 A 
ATOM     22  C   UNL     1       0.126   0.222  -0.732  0.00  0.00    +0.025 A 
ATOM     23  C   UNL     1       1.330  -0.455  -0.730  0.00  0.00    +0.022 A 
ATOM     24  C   UNL     1       2.393   0.024   0.017  0.00  0.00    +0.041 A 
ATOM     25  C   UNL     1       2.253   1.181   0.762  0.00  0.00    +0.022 A 
ATOM     26  C   UNL     1       1.051   1.862   0.763  0.00  0.00    +0.025 A 
ATOM     27 CL   UNL     1       3.905  -0.830   0.017  0.00  0.00    -0.084 Cl
ENDBRANCH  19  21
ENDBRANCH   3  17
TORSDOF 3
