REMARK  Name = ZINC13878641
REMARK  10 active torsions:
REMARK  status: ('A' for Active; 'I' for Inactive)
REMARK    1  A    between atoms: C_1  and  C_2
REMARK    2  A    between atoms: C_3  and  O_25
REMARK    3  A    between atoms: C_4  and  C_10
REMARK    4  A    between atoms: C_5  and  C_8
REMARK    5  A    between atoms: C_8  and  O_9
REMARK    6  A    between atoms: N_11  and  N_12
REMARK    7  A    between atoms: N_14  and  C_15
REMARK    8  A    between atoms: C_18  and  C_21
REMARK    9  A    between atoms: C_21  and  C_22
REMARK   10  A    between atoms: C_21  and  C_23
REMARK                            x       y       z     vdW  Elec       q    Type
REMARK                         _______ _______ _______ _____ _____    ______ ____
ROOT
ATOM      1  N   UNL     1       1.177  -3.090  -5.014  0.00  0.00    -0.258 N 
ATOM      2  C   UNL     1       0.628  -2.366  -5.971  0.00  0.00    +0.163 C 
ATOM      3  N   UNL     1       0.007  -2.984  -7.029  0.00  0.00    -0.294 N 
ATOM      4  S   UNL     1       0.692  -0.607  -5.892  0.00  0.00    -0.014 SA
ATOM      5  H   UNL     1      -0.348  -3.881  -6.926  0.00  0.00    +0.154 HD
ATOM      6  H   UNL     1       1.142  -4.058  -5.057  0.00  0.00    +0.191 HD
ENDROOT
BRANCH   3   7
ATOM      7  C   UNL     1      -0.114  -2.320  -8.253  0.00  0.00    +0.033 A 
ATOM      8  C   UNL     1       0.886  -1.453  -8.676  0.00  0.00    +0.023 A 
ATOM      9  C   UNL     1       0.763  -0.799  -9.887  0.00  0.00    +0.006 A 
ATOM     10  C   UNL     1      -0.352  -1.007 -10.677  0.00  0.00    -0.045 A 
ATOM     11  C   UNL     1      -1.350  -1.869 -10.258  0.00  0.00    +0.006 A 
ATOM     12  C   UNL     1      -1.231  -2.530  -9.051  0.00  0.00    +0.023 A 
BRANCH  10  13
ATOM     13  C   UNL     1      -0.482  -0.292 -11.997  0.00  0.00    +0.013 C 
ATOM     14  C   UNL     1      -0.582  -1.319 -13.126  0.00  0.00    +0.012 C 
ATOM     15  C   UNL     1      -1.742   0.576 -11.985  0.00  0.00    +0.012 C 
ENDBRANCH  10  13
ENDBRANCH   3   7
BRANCH   1  17
ATOM     16  C   UNL     1       2.304  -3.226  -3.073  0.00  0.00    +0.144 C 
ATOM     17  N   UNL     1       1.760  -2.510  -4.020  0.00  0.00    -0.180 NA
BRANCH  16  21
ATOM     18  C   UNL     1       3.745   0.916  -0.665  0.00  0.00    +0.069 C 
ATOM     19  C   UNL     1       3.668  -0.586  -0.771  0.00  0.00    +0.080 A 
ATOM     20  C   UNL     1       3.031  -1.162  -1.857  0.00  0.00    +0.147 A 
ATOM     21  C   UNL     1       2.968  -2.565  -1.941  0.00  0.00    +0.045 A 
ATOM     22  C   UNL     1       3.558  -3.314  -0.912  0.00  0.00    +0.008 A 
ATOM     23  C   UNL     1       4.170  -2.653   0.131  0.00  0.00    +0.117 A 
ATOM     24  N   UNL     1       4.213  -1.334   0.169  0.00  0.00    -0.256 NA
BRANCH  20  25
ATOM     25  O   UNL     1       2.477  -0.386  -2.825  0.00  0.00    -0.504 OA
ATOM     26  H   UNL     1       3.080  -0.169  -3.549  0.00  0.00    +0.292 HD
ENDBRANCH  20  25
BRANCH  22  27
ATOM     27  C   UNL     1       3.522  -4.820  -0.946  0.00  0.00    +0.193 C 
BRANCH  27  28
ATOM     28  O   UNL     1       4.187  -5.339   0.208  0.00  0.00    -0.390 OA
ATOM     29  H   UNL     1       4.202  -6.305   0.253  0.00  0.00    +0.210 HD
ENDBRANCH  27  28
ENDBRANCH  22  27
ENDBRANCH  16  21
ENDBRANCH   1  17
TORSDOF 7
