REMARK  Name = ZINC31659284
REMARK  9 active torsions:
REMARK  status: ('A' for Active; 'I' for Inactive)
REMARK    1  A    between atoms: C_1  and  C_2
REMARK    2  A    between atoms: C_4  and  C_29
REMARK    3  A    between atoms: C_5  and  C_9
REMARK    4  A    between atoms: C_6  and  C_8
REMARK    5  A    between atoms: C_9  and  C_11
REMARK    6  A    between atoms: C_11  and  N_12
REMARK    7  A    between atoms: C_15  and  C_19
REMARK    8  A    between atoms: C_15  and  C_20
REMARK    9  A    between atoms: C_24  and  N_26
REMARK                            x       y       z     vdW  Elec       q    Type
REMARK                         _______ _______ _______ _____ _____    ______ ____
ROOT
ATOM      1  N   UNL     1       1.706   4.885  -1.832  0.00  0.00    -0.216 N 
ATOM      2  C   UNL     1       2.198   4.179  -0.794  0.00  0.00    +0.251 C 
ATOM      3  O   UNL     1       3.365   4.013  -0.510  0.00  0.00    -0.272 OA
ATOM      4  C   UNL     1       0.990   3.636  -0.058  0.00  0.00    +0.135 C 
ATOM      5  N   UNL     1      -0.152   4.146  -0.836  0.00  0.00    -0.281 N 
ATOM      6  C   UNL     1       0.368   4.862  -1.853  0.00  0.00    +0.310 C 
ATOM      7  O   UNL     1      -0.303   5.427  -2.694  0.00  0.00    -0.252 OA
ATOM      8  C   UNL     1       0.947   4.171   1.375  0.00  0.00    +0.047 C 
ATOM      9  H   UNL     1      -1.180   3.906  -0.526  0.00  0.00    +0.152 HD
ENDROOT
BRANCH   4  10
ATOM     10  C   UNL     1       1.002   2.129  -0.059  0.00  0.00    -0.013 A 
ATOM     11  C   UNL     1       2.205   1.447  -0.043  0.00  0.00    +0.006 A 
ATOM     12  C   UNL     1       2.216   0.065  -0.045  0.00  0.00    +0.003 A 
ATOM     13  C   UNL     1       1.024  -0.636  -0.063  0.00  0.00    +0.033 A 
ATOM     14  C   UNL     1      -0.178   0.046  -0.079  0.00  0.00    +0.127 A 
ATOM     15  C   UNL     1      -0.189   1.428  -0.078  0.00  0.00    +0.039 A 
BRANCH  14  16
ATOM     16  N   UNL     1      -1.454  -0.704  -0.099  0.00  0.00    +0.056 N 
ATOM     17  O   UNL     1      -2.514  -0.104  -0.113  0.00  0.00    -0.126 OA
ATOM     18  O   UNL     1      -1.444  -1.922  -0.100  0.00  0.00    -0.126 OA
ENDBRANCH  14  16
ENDBRANCH   4  10
BRANCH   1  19
ATOM     19  C   UNL     1       2.533   5.589  -2.815  0.00  0.00    +0.197 C 
BRANCH  19  20
ATOM     20  C   UNL     1       2.850   4.663  -3.961  0.00  0.00    +0.181 C 
ATOM     21  O   UNL     1       2.505   3.502  -3.915  0.00  0.00    -0.290 OA
BRANCH  20  26
ATOM     22  C   UNL     1       5.695   6.638  -8.550  0.00  0.00    +0.044 C 
ATOM     23  C   UNL     1       4.949   6.120  -7.347  0.00  0.00    -0.050 A 
ATOM     24  C   UNL     1       5.643   5.507  -6.318  0.00  0.00    +0.007 A 
ATOM     25  C   UNL     1       4.968   5.030  -5.214  0.00  0.00    -0.039 A 
ATOM     26  C   UNL     1       3.578   5.169  -5.136  0.00  0.00    +0.025 A 
ATOM     27  C   UNL     1       2.884   5.785  -6.181  0.00  0.00    -0.039 A 
ATOM     28  C   UNL     1       3.574   6.261  -7.276  0.00  0.00    +0.007 A 
ATOM     29  C   UNL     1       1.386   5.934  -6.110  0.00  0.00    +0.044 C 
ATOM     30  C   UNL     1       5.725   4.363  -4.096  0.00  0.00    +0.044 C 
ENDBRANCH  20  26
ENDBRANCH  19  20
ENDBRANCH   1  19
TORSDOF 5
