REMARK  Name = ZINC38776712
REMARK  6 active torsions:
REMARK  status: ('A' for Active; 'I' for Inactive)
REMARK    1  A    between atoms: C_4  and  C_7
REMARK    2  A    between atoms: C_11  and  C_13
REMARK    3  A    between atoms: C_16  and  O_20
REMARK    4  A    between atoms: C_18  and  O_19
REMARK    5  A    between atoms: O_20  and  C_21
REMARK    6  A    between atoms: C_21  and  C_22
REMARK                            x       y       z     vdW  Elec       q    Type
REMARK                         _______ _______ _______ _____ _____    ______ ____
ROOT
ATOM      1  C   UNL     1       4.447  -0.794  -2.408  0.00  0.00    +0.022 A 
ATOM      2  C   UNL     1       5.702  -0.331  -2.754  0.00  0.00    +0.013 A 
ATOM      3  C   UNL     1       5.880   0.381  -3.924  0.00  0.00    +0.046 A 
ATOM      4  C   UNL     1       4.797   0.634  -4.755  0.00  0.00    +0.124 A 
ATOM      5  C   UNL     1       3.537   0.171  -4.411  0.00  0.00    +0.091 A 
ATOM      6  C   UNL     1       3.362  -0.549  -3.239  0.00  0.00    +0.126 A 
ENDROOT
BRANCH   1  11
ATOM      7  C   UNL     1       3.692  -0.680  -0.038  0.00  0.00    +0.008 C 
ATOM      8  C   UNL     1       4.649  -0.703   0.918  0.00  0.00    +0.139 C 
ATOM      9  N   UNL     1       5.679  -1.469   0.535  0.00  0.00    -0.185 NA
ATOM     10  N   UNL     1       5.557  -1.985  -0.577  0.00  0.00    -0.297 N 
ATOM     11  C   UNL     1       4.256  -1.571  -1.131  0.00  0.00    +0.164 C 
ATOM     12  H   UNL     1       6.202  -2.566  -1.010  0.00  0.00    +0.183 HD
BRANCH   7  16
ATOM     13  C   UNL     1      -0.017   1.380   0.010  0.00  0.00    +0.000 A 
ATOM     14  C   UNL     1       1.168   2.095   0.002  0.00  0.00    +0.001 A 
ATOM     15  C   UNL     1       2.377   1.433  -0.013  0.00  0.00    +0.008 A 
ATOM     16  C   UNL     1       2.405   0.035  -0.021  0.00  0.00    -0.018 A 
ATOM     17  C   UNL     1       1.203  -0.681  -0.013  0.00  0.00    +0.008 A 
ATOM     18  C   UNL     1       0.002  -0.004   0.002  0.00  0.00    +0.001 A 
ENDBRANCH   7  16
ENDBRANCH   1  11
BRANCH   6  19
ATOM     19  O   UNL     1       2.129  -1.009  -2.901  0.00  0.00    -0.506 OA
ATOM     20  H   UNL     1       1.610  -0.390  -2.369  0.00  0.00    +0.292 HD
ENDBRANCH   6  19
BRANCH   4  21
ATOM     21  O   UNL     1       4.973   1.336  -5.906  0.00  0.00    -0.487 OA
BRANCH  21  22
ATOM     22  C   UNL     1       6.298   1.783  -6.198  0.00  0.00    +0.267 C 
BRANCH  22  23
ATOM     23  C   UNL     1       6.298   2.536  -7.503  0.00  0.00    +0.026 A 
ATOM     24  C   UNL     1       6.507   1.861  -8.692  0.00  0.00    +0.049 A 
ATOM     25  C   UNL     1       6.507   2.554  -9.890  0.00  0.00    +0.020 A 
ATOM     26  C   UNL     1       6.299   3.920  -9.898  0.00  0.00    +0.003 A 
ATOM     27  C   UNL     1       6.091   4.596  -8.710  0.00  0.00    +0.020 A 
ATOM     28  C   UNL     1       6.084   3.903  -7.513  0.00  0.00    +0.049 A 
ATOM     29 CL   UNL     1       5.815   4.750  -6.021  0.00  0.00    -0.083 Cl
ATOM     30 CL   UNL     1       6.769   0.145  -8.681  0.00  0.00    -0.083 Cl
ENDBRANCH  22  23
ENDBRANCH  21  22
ENDBRANCH   4  21
TORSDOF 6
