REMARK  Name = ZINC05261701
REMARK  8 active torsions:
REMARK  status: ('A' for Active; 'I' for Inactive)
REMARK    1  A    between atoms: C_1  and  C_2
REMARK    2  A    between atoms: C_2  and  C_3
REMARK    3  A    between atoms: C_2  and  C_4
REMARK    4  A    between atoms: C_4  and  C_6
REMARK    5  A    between atoms: C_4  and  S_12
REMARK    6  A    between atoms: S_12  and  C_13
REMARK    7  A    between atoms: C_16  and  S_19
REMARK    8  A    between atoms: S_19  and  N_22
REMARK                            x       y       z     vdW  Elec       q    Type
REMARK                         _______ _______ _______ _____ _____    ______ ____
ROOT
ATOM      1  S   UNL     1      -4.037   1.560   0.848  0.00  0.00    -0.093 S 
ENDROOT
BRANCH   1   2
ATOM      2  C   UNL     1      -5.237   0.286   0.650  0.00  0.00    +0.098 A 
ATOM      3  C   UNL     1      -6.537   0.486   1.104  0.00  0.00    +0.037 A 
ATOM      4  C   UNL     1      -7.470  -0.521   0.938  0.00  0.00    +0.032 A 
ATOM      5  C   UNL     1      -7.068  -1.704   0.330  0.00  0.00    +0.124 A 
ATOM      6  C   UNL     1      -5.760  -1.837  -0.092  0.00  0.00    +0.140 A 
ATOM      7  N   UNL     1      -4.892  -0.857   0.075  0.00  0.00    -0.247 NA
BRANCH   5   8
ATOM      8  S   UNL     1      -8.215  -3.021   0.099  0.00  0.00    +0.062 S 
ATOM      9  O   UNL     1      -9.510  -2.435   0.091  0.00  0.00    -0.153 OA
ATOM     10  O   UNL     1      -7.725  -3.802  -0.982  0.00  0.00    -0.153 OA
BRANCH   8  11
ATOM     11  N   UNL     1      -8.138  -3.979   1.448  0.00  0.00    -0.177 NA
ATOM     12  C   UNL     1      -7.247  -5.134   1.628  0.00  0.00    +0.109 C 
ATOM     13  C   UNL     1      -7.543  -5.728   3.021  0.00  0.00    +0.018 C 
ATOM     14  C   UNL     1      -8.981  -5.225   3.313  0.00  0.00    +0.018 C 
ATOM     15  C   UNL     1      -8.957  -3.819   2.663  0.00  0.00    +0.109 C 
ENDBRANCH   8  11
ENDBRANCH   5   8
ENDBRANCH   1   2
BRANCH   1  16
ATOM     16  C   UNL     1      -2.544   0.882   0.074  0.00  0.00    +0.141 C 
BRANCH  16  17
ATOM     17  C   UNL     1      -1.374   1.788   0.358  0.00  0.00    +0.234 C 
ATOM     18  O   UNL     1      -1.565   2.940   0.685  0.00  0.00    -0.274 OA
ATOM     19  N   UNL     1      -0.115   1.319   0.248  0.00  0.00    -0.239 N 
ATOM     20  C   UNL     1       0.931   2.132   0.496  0.00  0.00    +0.303 C 
ATOM     21  O   UNL     1       0.739   3.286   0.825  0.00  0.00    -0.253 OA
ATOM     22  N   UNL     1       2.190   1.664   0.381  0.00  0.00    -0.313 N 
ATOM     23  H   UNL     1       0.038   0.398  -0.015  0.00  0.00    +0.159 HD
ATOM     24  H   UNL     1       2.343   0.743   0.119  0.00  0.00    +0.146 HD
ATOM     25  H   UNL     1       2.943   2.249   0.560  0.00  0.00    +0.146 HD
ENDBRANCH  16  17
BRANCH  16  27
ATOM     26  C   UNL     1      -2.917   2.183  -2.026  0.00  0.00    +0.009 C 
ATOM     27  C   UNL     1      -2.755   0.780  -1.438  0.00  0.00    +0.005 C 
ATOM     28  C   UNL     1      -1.544   0.097  -2.078  0.00  0.00    +0.009 C 
ENDBRANCH  16  27
ENDBRANCH   1  16
TORSDOF 6
