REMARK  Name = ZINC28160907
REMARK  9 active torsions:
REMARK  status: ('A' for Active; 'I' for Inactive)
REMARK    1  A    between atoms: C_1  and  O_2
REMARK    2  A    between atoms: O_2  and  C_3
REMARK    3  A    between atoms: C_6  and  C_9
REMARK    4  A    between atoms: C_12  and  C_34
REMARK    5  A    between atoms: C_19  and  C_22
REMARK    6  A    between atoms: C_22  and  C_23
REMARK    7  A    between atoms: N_25  and  C_26
REMARK    8  A    between atoms: C_29  and  O_32
REMARK    9  A    between atoms: O_32  and  C_33
REMARK                            x       y       z     vdW  Elec       q    Type
REMARK                         _______ _______ _______ _____ _____    ______ ____
ROOT
ATOM      1  C   UNL     1       1.512   0.062   6.146  0.00  0.00    +0.136 C 
ATOM      2  C   UNL     1       1.139  -1.394   6.489  0.00  0.00    +0.087 C 
ATOM      3  C   UNL     1       2.477  -2.100   6.576  0.00  0.00    +0.075 C 
ATOM      4  N   UNL     1       3.426  -1.256   6.342  0.00  0.00    -0.181 NA
ATOM      5  N   UNL     1       2.982   0.039   6.078  0.00  0.00    -0.195 N 
ATOM      6  C   UNL     1       3.780   1.110   5.802  0.00  0.00    +0.170 C 
ATOM      7  N   UNL     1       3.414   2.358   5.538  0.00  0.00    -0.157 NA
ATOM      8  C   UNL     1       4.246   3.331   5.287  0.00  0.00    +0.252 C 
ATOM      9  O   UNL     1       3.871   4.464   5.055  0.00  0.00    -0.272 OA
ATOM     10  C   UNL     1       5.721   2.948   5.298  0.00  0.00    +0.150 C 
ATOM     11  S   UNL     1       5.564   1.161   5.701  0.00  0.00    -0.078 S 
ENDROOT
BRANCH   1  15
ATOM     12  C   UNL     1      -0.150   1.194   2.376  0.00  0.00    +0.120 A 
ATOM     13  C   UNL     1       0.986   0.399   2.424  0.00  0.00    +0.046 A 
ATOM     14  C   UNL     1       1.525   0.040   3.644  0.00  0.00    +0.009 A 
ATOM     15  C   UNL     1       0.926   0.461   4.817  0.00  0.00    -0.025 A 
ATOM     16  C   UNL     1      -0.210   1.248   4.772  0.00  0.00    +0.009 A 
ATOM     17  C   UNL     1      -0.749   1.615   3.554  0.00  0.00    +0.046 A 
BRANCH  12  19
ATOM     18  C   UNL     1      -0.010   1.083   0.005  0.00  0.00    +0.277 C 
ATOM     19  O   UNL     1      -0.679   1.554   1.177  0.00  0.00    -0.495 OA
ENDBRANCH  12  19
ENDBRANCH   1  15
BRANCH   3  20
ATOM     20  C   UNL     1       2.666  -3.522   6.880  0.00  0.00    +0.035 A 
ATOM     21  C   UNL     1       3.841  -4.246   6.976  0.00  0.00    +0.017 A 
ATOM     22  C   UNL     1       3.762  -5.585   7.280  0.00  0.00    +0.008 A 
ATOM     23  C   UNL     1       2.542  -6.153   7.467  0.00  0.00    +0.046 A 
ATOM     24  S   UNL     1       1.437  -4.773   7.218  0.00  0.00    -0.095 S 
ENDBRANCH   3  20
BRANCH  10  25
ATOM     25  C   UNL     1       6.487   3.701   6.388  0.00  0.00    +0.120 C 
BRANCH  25  26
ATOM     26  C   UNL     1       7.917   3.227   6.416  0.00  0.00    +0.219 C 
ATOM     27  O   UNL     1       8.287   2.370   5.640  0.00  0.00    -0.275 OA
ATOM     28  N   UNL     1       8.785   3.754   7.302  0.00  0.00    -0.285 N 
ATOM     29  H   UNL     1       8.470   4.583   7.953  0.00  0.00    +0.155 HD
BRANCH  28  30
ATOM     30  C   UNL     1      10.087   3.246   7.394  0.00  0.00    +0.034 A 
ATOM     31  C   UNL     1      10.727   3.196   8.625  0.00  0.00    +0.027 A 
ATOM     32  C   UNL     1      12.009   2.690   8.716  0.00  0.00    +0.047 A 
ATOM     33  C   UNL     1      12.662   2.244   7.576  0.00  0.00    +0.120 A 
ATOM     34  C   UNL     1      12.024   2.298   6.345  0.00  0.00    +0.047 A 
ATOM     35  C   UNL     1      10.741   2.798   6.254  0.00  0.00    +0.027 A 
BRANCH  33  36
ATOM     36  O   UNL     1      13.926   1.751   7.666  0.00  0.00    -0.495 OA
ATOM     37  C   UNL     1      14.521   1.724   8.965  0.00  0.00    +0.277 C 
ENDBRANCH  33  36
ENDBRANCH  28  30
ENDBRANCH  25  26
ENDBRANCH  10  25
TORSDOF 7
