REMARK  Name = ZINC15942836
REMARK  9 active torsions:
REMARK  status: ('A' for Active; 'I' for Inactive)
REMARK    1  A    between atoms: C_1  and  C_2
REMARK    2  A    between atoms: C_2  and  O_3
REMARK    3  A    between atoms: O_3  and  C_4
REMARK    4  A    between atoms: C_4  and  C_6
REMARK    5  A    between atoms: C_7  and  C_27
REMARK    6  A    between atoms: C_10  and  C_26
REMARK    7  A    between atoms: C_11  and  S_12
REMARK    8  A    between atoms: S_12  and  N_15
REMARK    9  A    between atoms: C_23  and  C_25
REMARK                            x       y       z     vdW  Elec       q    Type
REMARK                         _______ _______ _______ _____ _____    ______ ____
ROOT
ATOM      1  C   UNL     1      -2.856  -2.445   0.264  0.00  0.00    +0.106 A 
ATOM      2  C   UNL     1      -3.642  -2.796  -0.813  0.00  0.00    +0.029 A 
ATOM      3  N   UNL     1      -4.801  -3.294  -0.343  0.00  0.00    -0.360 N 
ATOM      4  H   UNL     1      -5.530  -3.615  -0.896  0.00  0.00    +0.165 HD
ATOM      5  C   UNL     1      -4.805  -3.282   1.021  0.00  0.00    +0.041 A 
ATOM      6  C   UNL     1      -3.638  -2.779   1.460  0.00  0.00    +0.143 A 
ATOM      7  C   UNL     1      -5.934  -3.762   1.896  0.00  0.00    +0.065 C 
ATOM      8  C   UNL     1      -3.268  -2.648  -2.265  0.00  0.00    +0.064 C 
ENDROOT
BRANCH   6   9
ATOM      9  S   UNL     1      -3.147  -2.561   3.138  0.00  0.00    +0.077 S 
ATOM     10  O   UNL     1      -2.253  -1.456   3.159  0.00  0.00    -0.150 OA
ATOM     11  O   UNL     1      -4.335  -2.594   3.916  0.00  0.00    -0.150 OA
BRANCH   9  12
ATOM     12  N   UNL     1      -2.262  -3.893   3.567  0.00  0.00    -0.200 N 
ATOM     13  C   UNL     1      -2.801  -5.102   4.010  0.00  0.00    +0.055 A 
ATOM     14  C   UNL     1      -4.139  -5.462   4.190  0.00  0.00    +0.025 A 
ATOM     15  C   UNL     1      -4.465  -6.722   4.643  0.00  0.00    +0.002 A 
ATOM     16  C   UNL     1      -3.470  -7.640   4.923  0.00  0.00    +0.000 A 
ATOM     17  C   UNL     1      -2.143  -7.292   4.748  0.00  0.00    +0.005 A 
ATOM     18  C   UNL     1      -1.812  -6.030   4.293  0.00  0.00    -0.023 A 
ATOM     19  C   UNL     1      -0.466  -5.397   4.018  0.00  0.00    +0.061 C 
ATOM     20  C   UNL     1      -0.800  -3.978   3.530  0.00  0.00    +0.099 C 
ATOM     21  C   UNL     1      -0.184  -2.938   4.468  0.00  0.00    +0.030 C 
ENDBRANCH   9  12
ENDBRANCH   6   9
BRANCH   1  22
ATOM     22  C   UNL     1      -1.506  -1.861   0.223  0.00  0.00    +0.343 C 
ATOM     23  O   UNL     1      -0.530  -2.582   0.296  0.00  0.00    -0.245 OA
BRANCH  22  24
ATOM     24  O   UNL     1      -1.352  -0.527   0.104  0.00  0.00    -0.461 OA
BRANCH  24  26
ATOM     25  C   UNL     1      -0.031   1.491  -0.041  0.00  0.00    +0.048 C 
ATOM     26  C   UNL     1      -0.018  -0.039  -0.043  0.00  0.00    +0.229 C 
ENDBRANCH  24  26
ENDBRANCH  22  24
ENDBRANCH   1  22
TORSDOF 5
