REMARK  Name = ZINC09165228
REMARK  9 active torsions:
REMARK  status: ('A' for Active; 'I' for Inactive)
REMARK    1  A    between atoms: C_1  and  C_2
REMARK    2  A    between atoms: C_5  and  N_9
REMARK    3  A    between atoms: C_6  and  C_8
REMARK    4  A    between atoms: C_10  and  C_12
REMARK    5  A    between atoms: N_14  and  C_15
REMARK    6  A    between atoms: C_15  and  C_16
REMARK    7  A    between atoms: C_16  and  C_18
REMARK    8  A    between atoms: C_16  and  N_69
REMARK    9  A    between atoms: N_27  and  C_28
REMARK                            x       y       z     vdW  Elec       q    Type
REMARK                         _______ _______ _______ _____ _____    ______ ____
ROOT
ATOM      1  C   UNL     1      -2.412  -0.209   0.818  0.00  0.00    -0.020 C 
ENDROOT
BRANCH   1   2
ATOM      2  C   UNL     1      -0.960   0.177   0.701  0.00  0.00    -0.059 A 
ATOM      3  C   UNL     1      -0.603   1.341   0.045  0.00  0.00    +0.004 A 
ATOM      4  C   UNL     1       0.726   1.688  -0.069  0.00  0.00    +0.023 A 
ATOM      5  C   UNL     1       1.719   0.871   0.475  0.00  0.00    +0.033 A 
ATOM      6  C   UNL     1       1.356  -0.291   1.134  0.00  0.00    -0.026 A 
ATOM      7  C   UNL     1       0.017  -0.633   1.244  0.00  0.00    +0.007 A 
ATOM      8  C   UNL     1       2.378  -1.211   1.753  0.00  0.00    +0.038 C 
ATOM      9  C   UNL     1       3.768  -0.878   1.207  0.00  0.00    +0.024 C 
ATOM     10  C   UNL     1       3.953   0.643   1.280  0.00  0.00    +0.105 C 
ATOM     11  N   UNL     1       3.045   1.272   0.319  0.00  0.00    -0.333 N 
ATOM     12  C   UNL     1       3.161   2.735   0.365  0.00  0.00    +0.129 C 
ENDBRANCH   1   2
BRANCH   1  18
ATOM     13  C   UNL     1      -4.359   0.710   1.924  0.00  0.00    -0.078 C 
ATOM     14  C   UNL     1      -5.095   2.012   2.249  0.00  0.00    -0.019 C 
ATOM     15  C   UNL     1      -5.584   2.655   0.949  0.00  0.00    -0.004 C 
ATOM     16  C   UNL     1      -4.386   2.898   0.027  0.00  0.00    -0.019 C 
ATOM     17  C   UNL     1      -3.671   1.571  -0.234  0.00  0.00    -0.078 C 
ATOM     18  N   UNL     1      -3.204   1.016   1.054  0.00  0.00    +0.385 N 
ATOM     19  H   UNL     1      -2.611   1.712   1.520  0.00  0.00    -0.081 HD
ENDBRANCH   1  18
BRANCH   1  20
ATOM     20  C   UNL     1      -2.862  -0.896  -0.472  0.00  0.00    +0.094 C 
BRANCH  20  23
ATOM     21  C   UNL     1      -4.903  -1.870  -1.380  0.00  0.00    +0.299 C 
ATOM     22  O   UNL     1      -4.353  -1.942  -2.459  0.00  0.00    -0.265 OA
ATOM     23  N   UNL     1      -4.243  -1.362  -0.320  0.00  0.00    -0.309 N 
ATOM     24  H   UNL     1      -4.682  -1.305   0.543  0.00  0.00    +0.149 HD
BRANCH  21  26
ATOM     25  N   UNL     1      -6.970  -2.854  -2.285  0.00  0.00    -0.278 N 
ATOM     26  C   UNL     1      -6.310  -2.346  -1.225  0.00  0.00    +0.303 C 
ATOM     27  O   UNL     1      -6.860  -2.274  -0.145  0.00  0.00    -0.265 OA
ATOM     28  H   UNL     1      -6.510  -2.977  -3.130  0.00  0.00    +0.155 HD
BRANCH  25  33
ATOM     29  C   UNL     1     -12.439  -4.276  -1.803  0.00  0.00    +0.044 C 
ATOM     30  C   UNL     1     -10.986  -3.898  -1.931  0.00  0.00    -0.050 A 
ATOM     31  C   UNL     1     -10.144  -4.014  -0.840  0.00  0.00    +0.005 A 
ATOM     32  C   UNL     1      -8.812  -3.669  -0.954  0.00  0.00    +0.024 A 
ATOM     33  C   UNL     1      -8.318  -3.204  -2.166  0.00  0.00    +0.037 A 
ATOM     34  C   UNL     1      -9.167  -3.084  -3.259  0.00  0.00    -0.029 A 
ATOM     35  C   UNL     1     -10.497  -3.436  -3.139  0.00  0.00    +0.008 A 
ATOM     36  C   UNL     1      -8.636  -2.575  -4.574  0.00  0.00    +0.045 C 
ENDBRANCH  25  33
ENDBRANCH  21  26
ENDBRANCH  20  23
ENDBRANCH   1  20
TORSDOF 6
