REMARK  Name = ZINC09828388
REMARK  7 active torsions:
REMARK  status: ('A' for Active; 'I' for Inactive)
REMARK    1  A    between atoms: C_1  and  N_2
REMARK    2  A    between atoms: C_10  and  C_12
REMARK    3  A    between atoms: C_12  and  C_14
REMARK    4  A    between atoms: C_12  and  N_60
REMARK    5  A    between atoms: C_14  and  N_15
REMARK    6  A    between atoms: C_16  and  C_18
REMARK    7  A    between atoms: N_20  and  C_21
REMARK                            x       y       z     vdW  Elec       q    Type
REMARK                         _______ _______ _______ _____ _____    ______ ____
ROOT
ATOM      1  C   UNL     1       2.412   0.989   0.341  0.00  0.00    -0.020 C 
ENDROOT
BRANCH   1  11
ATOM      2  C   UNL     1      -3.329   3.608   0.651  0.00  0.00    +0.129 C 
ATOM      3  N   UNL     1      -2.267   4.154  -0.205  0.00  0.00    -0.333 N 
ATOM      4  C   UNL     1      -2.083   5.587   0.037  0.00  0.00    +0.105 C 
ATOM      5  C   UNL     1      -0.948   6.094  -0.862  0.00  0.00    +0.024 C 
ATOM      6  C   UNL     1       0.359   5.474  -0.365  0.00  0.00    +0.038 C 
ATOM      7  C   UNL     1       0.168   3.994  -0.145  0.00  0.00    -0.026 A 
ATOM      8  C   UNL     1      -1.090   3.420  -0.070  0.00  0.00    +0.033 A 
ATOM      9  C   UNL     1      -1.204   2.045   0.140  0.00  0.00    +0.023 A 
ATOM     10  C   UNL     1      -0.076   1.264   0.278  0.00  0.00    +0.004 A 
ATOM     11  C   UNL     1       1.178   1.842   0.199  0.00  0.00    -0.059 A 
ATOM     12  C   UNL     1       1.297   3.202  -0.011  0.00  0.00    +0.007 A 
ENDBRANCH   1  11
BRANCH   1  17
ATOM     13  C   UNL     1       1.979  -0.058  -1.815  0.00  0.00    -0.078 C 
ATOM     14  C   UNL     1       2.316  -1.432  -2.446  0.00  0.00    -0.020 C 
ATOM     15  C   UNL     1       3.517  -1.915  -1.601  0.00  0.00    -0.020 C 
ATOM     16  C   UNL     1       3.419  -1.134  -0.278  0.00  0.00    -0.078 C 
ATOM     17  N   UNL     1       2.218  -0.303  -0.384  0.00  0.00    +0.385 N 
ATOM     18  H   UNL     1       1.416  -0.799   0.022  0.00  0.00    -0.081 HD
ENDBRANCH   1  17
BRANCH   1  19
ATOM     19  C   UNL     1       2.675   0.715   1.823  0.00  0.00    +0.094 C 
BRANCH  19  20
ATOM     20  N   UNL     1       2.958   1.977   2.510  0.00  0.00    -0.309 N 
ATOM     21  C   UNL     1       3.317   1.971   3.809  0.00  0.00    +0.299 C 
ATOM     22  O   UNL     1       3.406   0.920   4.409  0.00  0.00    -0.265 OA
ATOM     23  H   UNL     1       2.886   2.817   2.031  0.00  0.00    +0.149 HD
BRANCH  21  24
ATOM     24  C   UNL     1       3.605   3.258   4.510  0.00  0.00    +0.303 C 
ATOM     25  O   UNL     1       3.516   4.309   3.910  0.00  0.00    -0.265 OA
ATOM     26  N   UNL     1       3.964   3.252   5.809  0.00  0.00    -0.278 N 
ATOM     27  H   UNL     1       3.961   2.421   6.309  0.00  0.00    +0.155 HD
BRANCH  26  28
ATOM     28  C   UNL     1       4.341   4.443   6.436  0.00  0.00    +0.034 A 
ATOM     29  C   UNL     1       5.335   4.435   7.406  0.00  0.00    +0.025 A 
ATOM     30  C   UNL     1       5.709   5.614   8.019  0.00  0.00    +0.022 A 
ATOM     31  C   UNL     1       5.087   6.802   7.677  0.00  0.00    +0.041 A 
ATOM     32  C   UNL     1       4.092   6.812   6.714  0.00  0.00    +0.022 A 
ATOM     33  C   UNL     1       3.718   5.637   6.093  0.00  0.00    +0.025 A 
ATOM     34 CL   UNL     1       5.554   8.281   8.455  0.00  0.00    -0.084 Cl
ENDBRANCH  26  28
ENDBRANCH  21  24
ENDBRANCH  19  20
ENDBRANCH   1  19
TORSDOF 6
