REMARK  Name = ZINC43737143
REMARK  8 active torsions:
REMARK  status: ('A' for Active; 'I' for Inactive)
REMARK    1  A    between atoms: C_1  and  C_2
REMARK    2  A    between atoms: C_6  and  C_37
REMARK    3  A    between atoms: C_17  and  C_19
REMARK    4  A    between atoms: C_19  and  N_20
REMARK    5  A    between atoms: N_20  and  C_21
REMARK    6  A    between atoms: C_25  and  C_35
REMARK    7  A    between atoms: C_25  and  C_36
REMARK    8  A    between atoms: C_27  and  C_29
REMARK                            x       y       z     vdW  Elec       q    Type
REMARK                         _______ _______ _______ _____ _____    ______ ____
ROOT
ATOM      1  C   UNL     1       1.834  -0.456   5.832  0.00  0.00    -0.067 C 
ENDROOT
BRANCH   1  16
ATOM      2  C   UNL     1      -0.018   1.503   0.010  0.00  0.00    +0.044 C 
ATOM      3  C   UNL     1       0.002  -0.004   0.002  0.00  0.00    -0.051 C 
ATOM      4  C   UNL     1       0.006  -0.666  -1.143  0.00  0.00    -0.023 C 
ATOM      5  C   UNL     1       0.006  -2.159  -1.261  0.00  0.00    +0.028 C 
ATOM      6  C   UNL     1       0.433  -2.837   0.043  0.00  0.00    +0.015 C 
ATOM      7  C   UNL     1      -0.352  -2.211   1.194  0.00  0.00    -0.003 C 
ATOM      8  C   UNL     1       0.025  -0.760   1.277  0.00  0.00    -0.042 C 
ATOM      9  C   UNL     1       0.370  -0.157   2.390  0.00  0.00    -0.015 C 
ATOM     10  C   UNL     1       0.490  -0.863   3.715  0.00  0.00    +0.065 C 
ATOM     11  C   UNL     1       0.744  -2.368   3.461  0.00  0.00    +0.185 C 
ATOM     12  C   UNL     1      -0.218  -2.966   2.487  0.00  0.00    +0.056 C 
ATOM     13  O   UNL     1       2.097  -2.404   2.996  0.00  0.00    -0.461 OA
ATOM     14  C   UNL     1       2.811  -1.551   3.767  0.00  0.00    +0.309 C 
ATOM     15  O   UNL     1       3.993  -1.638   4.001  0.00  0.00    -0.251 OA
ATOM     16  C   UNL     1       1.874  -0.445   4.303  0.00  0.00    +0.091 C 
ATOM     17  C   UNL     1      -1.830  -2.257   0.799  0.00  0.00    +0.016 C 
ENDBRANCH   1  16
BRANCH   1  18
ATOM     18  N   UNL     1       3.107   0.054   6.359  0.00  0.00    +0.385 N 
ATOM     19  H   UNL     1       3.863  -0.532   6.038  0.00  0.00    -0.085 HD
ATOM     20  H   UNL     1       3.251   0.998   6.033  0.00  0.00    -0.085 HD
BRANCH  18  21
ATOM     21  C   UNL     1       3.068   0.043   7.828  0.00  0.00    -0.012 C 
ATOM     22  C   UNL     1       2.981  -1.403   8.328  0.00  0.00    +0.150 C 
ATOM     23  O   UNL     1       4.186  -2.090   7.977  0.00  0.00    -0.351 OA
ATOM     24  C   UNL     1       5.369  -1.482   8.501  0.00  0.00    +0.165 C 
ATOM     25  O   UNL     1       5.466  -0.138   8.025  0.00  0.00    -0.343 OA
ATOM     26  C   UNL     1       4.346   0.685   8.379  0.00  0.00    +0.140 C 
ATOM     27  C   UNL     1       5.306  -1.478  10.030  0.00  0.00    +0.074 C 
ATOM     28  C   UNL     1       6.595  -2.275   8.043  0.00  0.00    +0.074 C 
BRANCH  26  29
ATOM     29  C   UNL     1       4.517   2.060   7.787  0.00  0.00    -0.020 A 
ATOM     30  C   UNL     1       5.031   2.204   6.512  0.00  0.00    +0.006 A 
ATOM     31  C   UNL     1       5.188   3.465   5.968  0.00  0.00    +0.000 A 
ATOM     32  C   UNL     1       4.830   4.582   6.699  0.00  0.00    +0.000 A 
ATOM     33  C   UNL     1       4.315   4.438   7.974  0.00  0.00    +0.000 A 
ATOM     34  C   UNL     1       4.154   3.176   8.516  0.00  0.00    +0.006 A 
ENDBRANCH  26  29
ENDBRANCH  18  21
ENDBRANCH   1  18
TORSDOF 4
