REMARK  Name = ZINC53533879
REMARK  6 active torsions:
REMARK  status: ('A' for Active; 'I' for Inactive)
REMARK    1  A    between atoms: C_3  and  C_6
REMARK    2  A    between atoms: C_6  and  C_8
REMARK    3  A    between atoms: C_6  and  N_25
REMARK    4  A    between atoms: C_8  and  N_9
REMARK    5  A    between atoms: N_15  and  C_18
REMARK    6  A    between atoms: C_21  and  O_24
REMARK                            x       y       z     vdW  Elec       q    Type
REMARK                         _______ _______ _______ _____ _____    ______ ____
ROOT
ATOM      1  N   UNL     1       5.655   0.348  -1.321  0.00  0.00    -0.300 N 
ATOM      2  C   UNL     1       6.404   0.203  -2.431  0.00  0.00    +0.302 C 
ATOM      3  O   UNL     1       5.869  -0.008  -3.502  0.00  0.00    -0.253 OA
ATOM      4  N   UNL     1       7.747   0.290  -2.355  0.00  0.00    -0.283 N 
ATOM      5  C   UNL     1       8.414   0.431  -1.053  0.00  0.00    +0.128 C 
ATOM      6  C   UNL     1       9.445  -0.695  -0.907  0.00  0.00    +0.124 C 
ATOM      7  N   UNL     1      10.268  -0.738  -2.123  0.00  0.00    -0.327 N 
ATOM      8  C   UNL     1       9.601  -0.879  -3.425  0.00  0.00    +0.124 C 
ATOM      9  C   UNL     1       8.570   0.241  -3.571  0.00  0.00    +0.128 C 
ATOM     10  H   UNL     1       6.083   0.445  -0.456  0.00  0.00    +0.150 HD
ENDROOT
BRANCH   7  11
ATOM     11  C   UNL     1      11.663  -0.647  -2.044  0.00  0.00    +0.030 A 
ATOM     12  C   UNL     1      12.420  -0.557  -3.204  0.00  0.00    +0.027 A 
ATOM     13  C   UNL     1      13.796  -0.467  -3.125  0.00  0.00    +0.047 A 
ATOM     14  C   UNL     1      14.421  -0.466  -1.886  0.00  0.00    +0.117 A 
ATOM     15  C   UNL     1      13.665  -0.556  -0.727  0.00  0.00    +0.047 A 
ATOM     16  C   UNL     1      12.289  -0.641  -0.804  0.00  0.00    +0.027 A 
BRANCH  14  17
ATOM     17  O   UNL     1      15.776  -0.377  -1.809  0.00  0.00    -0.507 OA
ATOM     18  H   UNL     1      16.108   0.530  -1.757  0.00  0.00    +0.292 HD
ENDBRANCH  14  17
ENDBRANCH   7  11
BRANCH   1  19
ATOM     19  C   UNL     1       4.193   0.362  -1.420  0.00  0.00    +0.098 C 
BRANCH  19  20
ATOM     20  C   UNL     1       3.592   0.666  -0.046  0.00  0.00    +0.016 C 
BRANCH  20  21
ATOM     21  N   UNL     1       2.127   0.585  -0.124  0.00  0.00    +0.387 N 
ATOM     22  C   UNL     1       1.704  -0.819  -0.362  0.00  0.00    -0.078 C 
ATOM     23  C   UNL     1       0.237  -0.837   0.136  0.00  0.00    -0.020 C 
ATOM     24  C   UNL     1       0.280   0.089   1.373  0.00  0.00    -0.020 C 
ATOM     25  C   UNL     1       1.525   0.973   1.170  0.00  0.00    -0.078 C 
ATOM     26  H   UNL     1       1.783   1.182  -0.861  0.00  0.00    -0.081 HD
ENDBRANCH  20  21
BRANCH  20  29
ATOM     27  C   UNL     1       5.016   3.764   1.354  0.00  0.00    +0.041 A 
ATOM     28  C   UNL     1       4.986   2.354   1.241  0.00  0.00    +0.043 A 
ATOM     29  C   UNL     1       3.995   2.054   0.383  0.00  0.00    +0.093 A 
ATOM     30  O   UNL     1       3.427   3.199  -0.028  0.00  0.00    -0.469 OA
ATOM     31  C   UNL     1       4.042   4.239   0.558  0.00  0.00    +0.195 A 
ENDBRANCH  20  29
ENDBRANCH  19  20
ENDBRANCH   1  19
TORSDOF 6
