REMARK  Name = ZINC01060850
REMARK  8 active torsions:
REMARK  status: ('A' for Active; 'I' for Inactive)
REMARK    1  A    between atoms: C_1  and  C_2
REMARK    2  A    between atoms: C_2  and  C_4
REMARK    3  A    between atoms: C_2  and  O_18
REMARK    4  A    between atoms: N_6  and  N_7
REMARK    5  A    between atoms: C_8  and  C_10
REMARK    6  A    between atoms: C_13  and  O_17
REMARK    7  A    between atoms: C_14  and  O_16
REMARK    8  A    between atoms: O_18  and  C_19
REMARK                            x       y       z     vdW  Elec       q    Type
REMARK                         _______ _______ _______ _____ _____    ______ ____
ROOT
ATOM      1  C   UNL     1       1.168   1.666  -0.244  0.00  0.00    +0.270 C 
ATOM      2  O   UNL     1       1.181   2.868  -0.405  0.00  0.00    -0.270 OA
ATOM      3  N   UNL     1      -0.000   0.995  -0.274  0.00  0.00    -0.231 N 
ATOM      4  H   UNL     1      -0.011   0.034  -0.145  0.00  0.00    +0.173 HD
ENDROOT
BRANCH   3   5
ATOM      5  N   UNL     1      -1.199   1.685  -0.498  0.00  0.00    -0.230 N 
ATOM      6  C   UNL     1      -2.366   1.013  -0.535  0.00  0.00    +0.260 C 
ATOM      7  O   UNL     1      -2.380  -0.192  -0.373  0.00  0.00    -0.269 OA
ATOM      8  H   UNL     1      -1.188   2.646  -0.628  0.00  0.00    +0.173 HD
BRANCH   6   9
ATOM      9  C   UNL     1      -3.629   1.740  -0.771  0.00  0.00    +0.042 A 
ATOM     10  C   UNL     1      -3.616   3.125  -0.951  0.00  0.00    +0.017 A 
ATOM     11  C   UNL     1      -4.795   3.801  -1.177  0.00  0.00    +0.050 A 
ATOM     12  C   UNL     1      -5.999   3.111  -1.215  0.00  0.00    +0.158 A 
ATOM     13  C   UNL     1      -6.020   1.729  -1.030  0.00  0.00    +0.159 A 
ATOM     14  C   UNL     1      -4.841   1.044  -0.809  0.00  0.00    +0.062 A 
BRANCH  13  15
ATOM     15  O   UNL     1      -7.201   1.055  -1.068  0.00  0.00    -0.503 OA
ATOM     16  H   UNL     1      -7.637   0.978  -0.208  0.00  0.00    +0.292 HD
ENDBRANCH  13  15
BRANCH  12  17
ATOM     17  O   UNL     1      -7.159   3.782  -1.433  0.00  0.00    -0.503 OA
ATOM     18  H   UNL     1      -7.590   4.095  -0.625  0.00  0.00    +0.292 HD
ENDBRANCH  12  17
ENDBRANCH   6   9
ENDBRANCH   3   5
BRANCH   1  20
ATOM     19  C   UNL     1       2.720  -0.027  -1.179  0.00  0.00    +0.062 C 
ATOM     20  C   UNL     1       2.458   0.923  -0.009  0.00  0.00    +0.257 C 
BRANCH  20  21
ATOM     21  O   UNL     1       3.534   1.858   0.096  0.00  0.00    -0.478 OA
BRANCH  21  22
ATOM     22  C   UNL     1       4.629   1.463   0.797  0.00  0.00    +0.140 A 
ATOM     23  C   UNL     1       4.715   0.164   1.277  0.00  0.00    +0.048 A 
ATOM     24  C   UNL     1       5.831  -0.237   1.986  0.00  0.00    +0.023 A 
ATOM     25  C   UNL     1       6.859   0.658   2.226  0.00  0.00    +0.043 A 
ATOM     26  C   UNL     1       6.773   1.955   1.753  0.00  0.00    +0.043 A 
ATOM     27  C   UNL     1       5.661   2.360   1.039  0.00  0.00    +0.084 A 
ATOM     28 CL   UNL     1       5.553   3.988   0.447  0.00  0.00    -0.080 Cl
ATOM     29 CL   UNL     1       8.257   0.152   3.123  0.00  0.00    -0.083 Cl
ENDBRANCH  21  22
ENDBRANCH  20  21
ENDBRANCH   1  20
TORSDOF 7
