REMARK  Name = ZINC12791450
REMARK  6 active torsions:
REMARK  status: ('A' for Active; 'I' for Inactive)
REMARK    1  A    between atoms: C_1  and  C_2
REMARK    2  A    between atoms: C_10  and  C_12
REMARK    3  A    between atoms: C_12  and  S_13
REMARK    4  A    between atoms: S_13  and  C_14
REMARK    5  A    between atoms: C_17  and  C_22
REMARK    6  A    between atoms: N_18  and  C_19
REMARK                            x       y       z     vdW  Elec       q    Type
REMARK                         _______ _______ _______ _____ _____    ______ ____
ROOT
ATOM      1  C   UNL     1       1.776   5.663   0.009  0.00  0.00    +0.193 A 
ATOM      2  N   UNL     1       0.468   5.571  -0.069  0.00  0.00    -0.122 NA
ATOM      3  N   UNL     1       0.110   4.337  -0.039  0.00  0.00    -0.128 NA
ATOM      4  C   UNL     1       1.167   3.566   0.070  0.00  0.00    +0.168 A 
ATOM      5  N   UNL     1       2.267   4.392   0.100  0.00  0.00    -0.299 N 
ENDROOT
BRANCH   4   6
ATOM      6  C   UNL     1       1.174   2.090   0.140  0.00  0.00    +0.054 A 
ATOM      7  C   UNL     1       2.054   1.354  -0.655  0.00  0.00    +0.014 A 
ATOM      8  C   UNL     1       2.057  -0.023  -0.585  0.00  0.00    +0.001 A 
ATOM      9  C   UNL     1       1.190  -0.678   0.272  0.00  0.00    +0.003 A 
ATOM     10  C   UNL     1       0.314   0.043   1.064  0.00  0.00    +0.039 A 
ATOM     11  C   UNL     1       0.300   1.423   1.003  0.00  0.00    +0.134 A 
ATOM     12  F   UNL     1      -0.556   2.127   1.776  0.00  0.00    -0.205 F 
ENDBRANCH   4   6
BRANCH   5  13
ATOM     13  C   UNL     1       3.672   3.991   0.206  0.00  0.00    +0.091 C 
ATOM     14  C   UNL     1       4.684   5.064   0.613  0.00  0.00    +0.027 C 
ATOM     15  C   UNL     1       4.648   4.553  -0.829  0.00  0.00    +0.027 C 
ENDBRANCH   5  13
BRANCH   1  16
ATOM     16  S   UNL     1       2.721   7.150  -0.001  0.00  0.00    -0.079 S 
BRANCH  16  17
ATOM     17  C   UNL     1       1.390   8.368  -0.143  0.00  0.00    +0.142 C 
BRANCH  17  27
ATOM     18  C   UNL     1       4.189  15.676  -0.310  0.00  0.00    +0.066 C 
ATOM     19  C   UNL     1       3.991  14.183  -0.253  0.00  0.00    +0.046 A 
ATOM     20  C   UNL     1       5.073  13.336  -0.145  0.00  0.00    +0.095 A 
ATOM     21  C   UNL     1       4.869  11.957  -0.093  0.00  0.00    +0.275 A 
ATOM     22  O   UNL     1       5.824  11.200   0.003  0.00  0.00    -0.266 OA
ATOM     23  N   UNL     1       3.601  11.453  -0.149  0.00  0.00    -0.171 N 
ATOM     24  C   UNL     1       2.587  12.365  -0.256  0.00  0.00    +0.199 A 
ATOM     25  N   UNL     1       2.769  13.660  -0.304  0.00  0.00    -0.227 NA
ATOM     26  S   UNL     1       1.141  11.327  -0.298  0.00  0.00    -0.032 S 
ATOM     27  C   UNL     1       1.978   9.755  -0.171  0.00  0.00    +0.113 A 
ATOM     28  N   UNL     1       3.224  10.115  -0.104  0.00  0.00    -0.158 NA
ENDBRANCH  17  27
ENDBRANCH  16  17
ENDBRANCH   1  16
TORSDOF 5
