REMARK  Name = ZINC20190608
REMARK  15 active torsions:
REMARK  status: ('A' for Active; 'I' for Inactive)
REMARK    1  A    between atoms: C_1  and  C_2
REMARK    2  A    between atoms: C_2  and  S_3
REMARK    3  A    between atoms: S_3  and  C_4
REMARK    4  A    between atoms: C_4  and  C_5
REMARK    5  A    between atoms: C_5  and  O_6
REMARK    6  A    between atoms: O_6  and  C_7
REMARK    7  A    between atoms: C_7  and  C_9
REMARK    8  A    between atoms: C_10  and  C_36
REMARK    9  A    between atoms: C_14  and  C_16
REMARK   10  A    between atoms: C_19  and  O_22
REMARK   11  A    between atoms: O_22  and  C_23
REMARK   12  A    between atoms: C_26  and  C_32
REMARK   13  A    between atoms: C_28  and  C_31
REMARK   14  A    between atoms: C_32  and  O_34
REMARK   15  A    between atoms: O_34  and  C_35
REMARK                            x       y       z     vdW  Elec       q    Type
REMARK                         _______ _______ _______ _____ _____    ______ ____
ROOT
ATOM      1  C   UNL     1       0.085   1.016   4.814  0.00  0.00    +0.065 C 
ATOM      2  C   UNL     1      -0.361   1.463   6.000  0.00  0.00    +0.016 C 
ATOM      3  N   UNL     1       0.241   1.064   7.162  0.00  0.00    -0.321 N 
ATOM      4  C   UNL     1       1.512   0.557   7.149  0.00  0.00    +0.016 C 
ATOM      5  C   UNL     1       2.047   0.077   6.006  0.00  0.00    +0.025 C 
ATOM      6  C   UNL     1       1.252   0.076   4.725  0.00  0.00    +0.092 C 
ATOM      7  C   UNL     1       3.357  -0.432   5.976  0.00  0.00    +0.176 C 
ATOM      8  O   UNL     1       3.805  -0.864   4.932  0.00  0.00    -0.291 OA
ATOM      9  C   UNL     1       4.214  -0.454   7.212  0.00  0.00    +0.171 C 
ATOM     10  C   UNL     1       3.788   0.694   8.134  0.00  0.00    +0.013 C 
ATOM     11  C   UNL     1       2.296   0.545   8.438  0.00  0.00    +0.055 C 
ATOM     12  C   UNL     1       4.040   2.033   7.438  0.00  0.00    +0.009 C 
ATOM     13  C   UNL     1      -1.536   2.405   6.051  0.00  0.00    +0.061 C 
ATOM     14  H   UNL     1      -0.297   1.149   8.117  0.00  0.00    +0.152 HD
ENDROOT
BRANCH   6  15
ATOM     15  C   UNL     1       0.745  -1.318   4.459  0.00  0.00    -0.035 A 
ATOM     16  C   UNL     1      -0.107  -1.927   5.362  0.00  0.00    +0.008 A 
ATOM     17  C   UNL     1      -0.578  -3.203   5.118  0.00  0.00    +0.046 A 
ATOM     18  C   UNL     1      -0.186  -3.877   3.971  0.00  0.00    +0.120 A 
ATOM     19  C   UNL     1       0.673  -3.267   3.069  0.00  0.00    +0.046 A 
ATOM     20  C   UNL     1       1.136  -1.989   3.315  0.00  0.00    +0.008 A 
BRANCH  18  21
ATOM     21  O   UNL     1      -0.644  -5.134   3.731  0.00  0.00    -0.495 OA
ATOM     22  C   UNL     1      -1.525  -5.700   4.703  0.00  0.00    +0.277 C 
ENDBRANCH  18  21
ENDBRANCH   6  15
BRANCH   1  23
ATOM     23  C   UNL     1      -0.553   1.444   3.627  0.00  0.00    +0.338 C 
ATOM     24  O   UNL     1      -1.561   2.123   3.688  0.00  0.00    -0.245 OA
BRANCH  23  25
ATOM     25  O   UNL     1      -0.044   1.099   2.425  0.00  0.00    -0.460 OA
BRANCH  25  26
ATOM     26  C   UNL     1      -0.741   1.566   1.268  0.00  0.00    +0.243 C 
BRANCH  26  27
ATOM     27  C   UNL     1      -0.021   1.079   0.009  0.00  0.00    +0.110 C 
BRANCH  27  28
ATOM     28  S   UNL     1      -0.905   1.672  -1.461  0.00  0.00    -0.158 S 
BRANCH  28  30
ATOM     29  C   UNL     1      -0.581   1.449  -4.168  0.00  0.00    +0.015 C 
ATOM     30  C   UNL     1       0.063   1.017  -2.849  0.00  0.00    +0.066 C 
ENDBRANCH  28  30
ENDBRANCH  27  28
ENDBRANCH  26  27
ENDBRANCH  25  26
ENDBRANCH  23  25
ENDBRANCH   1  23
BRANCH   9  31
ATOM     31  C   UNL     1       5.661  -0.282   6.829  0.00  0.00    +0.318 C 
ATOM     32  O   UNL     1       6.290   0.660   7.248  0.00  0.00    -0.250 OA
BRANCH  31  33
ATOM     33  O   UNL     1       6.252  -1.177   6.021  0.00  0.00    -0.467 OA
ATOM     34  C   UNL     1       7.648  -0.949   5.693  0.00  0.00    +0.280 C 
ENDBRANCH  31  33
ENDBRANCH   9  31
TORSDOF 10
