REMARK  Name = ZINC09375395
REMARK  12 active torsions:
REMARK  status: ('A' for Active; 'I' for Inactive)
REMARK    1  A    between atoms: C_1  and  C_2
REMARK    2  A    between atoms: C_3  and  C_25
REMARK    3  A    between atoms: C_4  and  C_20
REMARK    4  A    between atoms: C_6  and  C_18
REMARK    5  A    between atoms: C_7  and  S_9
REMARK    6  A    between atoms: S_9  and  C_10
REMARK    7  A    between atoms: C_10  and  C_11
REMARK    8  A    between atoms: N_13  and  C_14
REMARK    9  A    between atoms: C_14  and  C_15
REMARK   10  A    between atoms: C_14  and  C_16
REMARK   11  A    between atoms: C_14  and  C_17
REMARK   12  A    between atoms: N_27  and  C_28
REMARK                            x       y       z     vdW  Elec       q    Type
REMARK                         _______ _______ _______ _____ _____    ______ ____
ROOT
ATOM      1  C   UNL     1      -3.366  -1.168  -0.102  0.00  0.00    +0.061 C 
ATOM      2  C   UNL     1      -2.360  -2.288  -0.039  0.00  0.00    +0.015 C 
ATOM      3  C   UNL     1      -1.059  -2.021  -0.237  0.00  0.00    +0.047 C 
ATOM      4  C   UNL     1      -0.014  -3.098  -0.190  0.00  0.00    +0.134 C 
ATOM      5  C   UNL     1      -0.554  -4.337   0.467  0.00  0.00    +0.072 C 
ATOM      6  C   UNL     1      -1.891  -4.521   0.637  0.00  0.00    +0.080 C 
ATOM      7  N   UNL     1      -2.786  -3.564   0.214  0.00  0.00    -0.312 N 
ATOM      8  H   UNL     1      -3.846  -3.826   0.081  0.00  0.00    +0.152 HD
ENDROOT
BRANCH   4   9
ATOM      9  C   UNL     1       1.175  -2.601   0.591  0.00  0.00    +0.118 A 
ATOM     10  C   UNL     1       2.418  -2.427   0.105  0.00  0.00    +0.045 A 
ATOM     11  C   UNL     1       3.212  -1.950   1.173  0.00  0.00    +0.041 A 
ATOM     12  C   UNL     1       2.407  -1.862   2.248  0.00  0.00    +0.195 A 
ATOM     13  O   UNL     1       1.174  -2.252   1.888  0.00  0.00    -0.467 OA
ENDBRANCH   4   9
BRANCH   3  14
ATOM     14  C   UNL     1      -0.661  -0.686  -0.492  0.00  0.00    +0.247 C 
ATOM     15  O   UNL     1      -0.251  -0.373  -1.595  0.00  0.00    -0.270 OA
ATOM     16  N   UNL     1      -0.737   0.238   0.486  0.00  0.00    -0.282 N 
ATOM     17  H   UNL     1      -1.006  -0.064   1.508  0.00  0.00    +0.155 HD
BRANCH  16  18
ATOM     18  C   UNL     1      -0.472   1.583   0.200  0.00  0.00    +0.034 A 
ATOM     19  C   UNL     1       0.516   1.917  -0.716  0.00  0.00    +0.026 A 
ATOM     20  C   UNL     1       0.772   3.244  -1.000  0.00  0.00    +0.040 A 
ATOM     21  C   UNL     1       0.052   4.241  -0.364  0.00  0.00    +0.124 A 
ATOM     22  C   UNL     1      -0.930   3.910   0.554  0.00  0.00    +0.040 A 
ATOM     23  C   UNL     1      -1.193   2.584   0.837  0.00  0.00    +0.026 A 
ATOM     24  F   UNL     1       0.308   5.539  -0.639  0.00  0.00    -0.205 F 
ENDBRANCH  16  18
ENDBRANCH   3  14
BRANCH   5  25
ATOM     25  C   UNL     1       0.357  -5.344   0.923  0.00  0.00    +0.098 C 
ATOM     26  N   UNL     1       1.079  -6.142   1.286  0.00  0.00    -0.191 NA
ENDBRANCH   5  25
BRANCH   6  27
ATOM     27  S   UNL     1      -2.481  -5.994   1.403  0.00  0.00    -0.100 S 
BRANCH  27  28
ATOM     28  C   UNL     1      -4.263  -5.681   1.353  0.00  0.00    +0.171 C 
BRANCH  28  29
ATOM     29  C   UNL     1      -4.994  -6.844   1.973  0.00  0.00    +0.224 C 
ATOM     30  O   UNL     1      -4.372  -7.790   2.406  0.00  0.00    -0.275 OA
ATOM     31  N   UNL     1      -6.340  -6.832   2.046  0.00  0.00    -0.310 N 
ATOM     32  H   UNL     1      -6.904  -5.974   1.653  0.00  0.00    +0.149 HD
BRANCH  31  33
ATOM     33  C   UNL     1      -7.051  -7.962   2.649  0.00  0.00    +0.026 C 
ATOM     34  C   UNL     1      -6.603  -8.129   4.103  0.00  0.00    +0.031 C 
ATOM     35  C   UNL     1      -8.557  -7.698   2.607  0.00  0.00    +0.031 C 
ATOM     36  C   UNL     1      -6.734  -9.239   1.868  0.00  0.00    +0.031 C 
ENDBRANCH  31  33
ENDBRANCH  28  29
ENDBRANCH  27  28
ENDBRANCH   6  27
TORSDOF 8
