REMARK  Name = ZINC09691369
REMARK  10 active torsions:
REMARK  status: ('A' for Active; 'I' for Inactive)
REMARK    1  A    between atoms: C_1  and  C_2
REMARK    2  A    between atoms: C_4  and  C_14
REMARK    3  A    between atoms: C_5  and  C_13
REMARK    4  A    between atoms: N_6  and  C_7
REMARK    5  A    between atoms: C_7  and  C_8
REMARK    6  A    between atoms: C_14  and  C_16
REMARK    7  A    between atoms: C_16  and  N_17
REMARK    8  A    between atoms: C_22  and  C_29
REMARK    9  A    between atoms: C_25  and  C_27
REMARK   10  A    between atoms: C_25  and  C_28
REMARK                            x       y       z     vdW  Elec       q    Type
REMARK                         _______ _______ _______ _____ _____    ______ ____
ROOT
ATOM      1  C   UNL     1       5.366   2.576  -5.422  0.00  0.00    +0.197 C 
ENDROOT
BRANCH   1   2
ATOM      2  N   UNL     1       5.687   3.527  -6.489  0.00  0.00    -0.217 N 
ATOM      3  C   UNL     1       4.800   3.965  -7.406  0.00  0.00    +0.247 C 
ATOM      4  O   UNL     1       3.630   3.660  -7.500  0.00  0.00    -0.273 OA
ATOM      5  C   UNL     1       5.571   4.919  -8.290  0.00  0.00    +0.113 C 
ATOM      6  C   UNL     1       4.975   6.321  -8.215  0.00  0.00    +0.038 C 
ATOM      7  C   UNL     1       5.793   7.272  -9.092  0.00  0.00    -0.011 C 
ATOM      8  C   UNL     1       5.779   6.770 -10.537  0.00  0.00    +0.009 C 
ATOM      9  C   UNL     1       6.399   5.372 -10.600  0.00  0.00    -0.032 C 
ATOM     10  C   UNL     1       5.583   4.414  -9.728  0.00  0.00    +0.041 C 
ATOM     11  C   UNL     1       7.839   5.429 -10.086  0.00  0.00    +0.011 C 
ATOM     12  C   UNL     1       6.393   4.876 -12.047  0.00  0.00    +0.011 C 
ATOM     13  C   UNL     1       5.181   8.673  -9.033  0.00  0.00    +0.007 C 
ATOM     14  N   UNL     1       6.928   4.907  -7.729  0.00  0.00    -0.285 N 
ATOM     15  C   UNL     1       6.899   4.064  -6.679  0.00  0.00    +0.310 C 
ATOM     16  O   UNL     1       7.864   3.819  -5.982  0.00  0.00    -0.252 OA
ATOM     17  H   UNL     1       7.694   5.407  -8.052  0.00  0.00    +0.151 HD
ENDBRANCH   1   2
BRANCH   1  18
ATOM     18  C   UNL     1       4.912   3.329  -4.198  0.00  0.00    +0.183 C 
ATOM     19  O   UNL     1       4.861   4.541  -4.216  0.00  0.00    -0.290 OA
BRANCH  18  23
ATOM     20  C   UNL     1       3.967  -0.426  -0.887  0.00  0.00    +0.063 C 
ATOM     21  C   UNL     1       4.118   0.925  -1.536  0.00  0.00    +0.017 A 
ATOM     22  C   UNL     1       4.534   1.141  -2.796  0.00  0.00    +0.034 A 
ATOM     23  C   UNL     1       4.531   2.598  -2.988  0.00  0.00    +0.040 A 
ATOM     24  C   UNL     1       4.096   3.136  -1.792  0.00  0.00    +0.027 A 
ATOM     25  N   UNL     1       3.852   2.124  -0.941  0.00  0.00    -0.340 N 
ATOM     26  C   UNL     1       3.925   4.603  -1.493  0.00  0.00    +0.064 C 
BRANCH  25  27
ATOM     27  C   UNL     1       3.373   2.285   0.434  0.00  0.00    +0.196 C 
BRANCH  27  28
ATOM     28  C   UNL     1       1.866   2.278   0.446  0.00  0.00    +0.124 A 
ATOM     29  C   UNL     1       1.086   1.191   0.581  0.00  0.00    +0.046 A 
ATOM     30  C   UNL     1      -0.254   1.640   0.537  0.00  0.00    +0.041 A 
ATOM     31  C   UNL     1      -0.212   2.975   0.378  0.00  0.00    +0.195 A 
ATOM     32  O   UNL     1       1.075   3.356   0.323  0.00  0.00    -0.466 OA
ENDBRANCH  27  28
ENDBRANCH  25  27
ENDBRANCH  18  23
ENDBRANCH   1  18
TORSDOF 5
