REMARK  Name = ZINC05574059
REMARK  8 active torsions:
REMARK  status: ('A' for Active; 'I' for Inactive)
REMARK    1  A    between atoms: C_1  and  C_2
REMARK    2  A    between atoms: C_5  and  C_8
REMARK    3  A    between atoms: C_11  and  C_26
REMARK    4  A    between atoms: C_17  and  N_19
REMARK    5  A    between atoms: N_19  and  S_20
REMARK    6  A    between atoms: S_20  and  N_23
REMARK    7  A    between atoms: N_23  and  C_24
REMARK    8  A    between atoms: N_23  and  C_25
REMARK                            x       y       z     vdW  Elec       q    Type
REMARK                         _______ _______ _______ _____ _____    ______ ____
ROOT
ATOM      1  C   UNL     1       0.059  -4.275  -0.021  0.00  0.00    +0.143 C 
ATOM      2  C   UNL     1      -1.178  -4.809   0.711  0.00  0.00    +0.058 C 
ATOM      3  C   UNL     1      -1.029  -6.317   0.947  0.00  0.00    +0.106 C 
ATOM      4  N   UNL     1       0.141  -6.544   1.817  0.00  0.00    -0.307 N 
ATOM      5  C   UNL     1       1.280  -5.807   1.518  0.00  0.00    +0.216 A 
ATOM      6  N   UNL     1       1.260  -4.754   0.664  0.00  0.00    -0.224 N 
ATOM      7  N   UNL     1       2.565  -4.264   0.599  0.00  0.00    -0.128 NA
ATOM      8  C   UNL     1       3.293  -5.019   1.392  0.00  0.00    +0.278 A 
ATOM      9  N   UNL     1       2.503  -5.954   1.952  0.00  0.00    -0.177 NA
ATOM     10  H   UNL     1       0.117  -7.172   2.555  0.00  0.00    +0.149 HD
ENDROOT
BRANCH   1  15
ATOM     11  C   UNL     1      -0.018   1.503   0.010  0.00  0.00    +0.044 C 
ATOM     12  C   UNL     1       0.002  -0.004   0.002  0.00  0.00    -0.050 A 
ATOM     13  C   UNL     1       0.006  -0.689  -1.199  0.00  0.00    +0.004 A 
ATOM     14  C   UNL     1       0.025  -2.071  -1.206  0.00  0.00    +0.006 A 
ATOM     15  C   UNL     1       0.040  -2.768  -0.013  0.00  0.00    -0.023 A 
ATOM     16  C   UNL     1       0.037  -2.084   1.188  0.00  0.00    +0.006 A 
ATOM     17  C   UNL     1       0.023  -0.702   1.195  0.00  0.00    +0.004 A 
ENDBRANCH   1  15
BRANCH   3  18
ATOM     18  C   UNL     1      -2.271  -6.849   1.615  0.00  0.00    -0.027 A 
ATOM     19  C   UNL     1      -2.448  -6.685   2.976  0.00  0.00    +0.005 A 
ATOM     20  C   UNL     1      -3.587  -7.173   3.588  0.00  0.00    +0.000 A 
ATOM     21  C   UNL     1      -4.549  -7.826   2.839  0.00  0.00    +0.000 A 
ATOM     22  C   UNL     1      -4.372  -7.989   1.478  0.00  0.00    +0.000 A 
ATOM     23  C   UNL     1      -3.235  -7.497   0.865  0.00  0.00    +0.005 A 
ENDBRANCH   3  18
BRANCH   8  24
ATOM     24  N   UNL     1       4.662  -4.870   1.619  0.00  0.00    -0.045 NA
BRANCH  24  25
ATOM     25  S   UNL     1       5.447  -5.902   2.650  0.00  0.00    +0.134 S 
ATOM     26  O   UNL     1       4.925  -5.654   3.948  0.00  0.00    -0.136 OA
ATOM     27  O   UNL     1       5.407  -7.188   2.045  0.00  0.00    -0.136 OA
BRANCH  25  28
ATOM     28  N   UNL     1       7.037  -5.445   2.683  0.00  0.00    -0.168 NA
ATOM     29  C   UNL     1       7.496  -4.461   3.668  0.00  0.00    +0.132 C 
ATOM     30  C   UNL     1       7.987  -6.023   1.729  0.00  0.00    +0.132 C 
ENDBRANCH  25  28
ENDBRANCH  24  25
ENDBRANCH   8  24
TORSDOF 5
