REMARK  Name = ZINC64538288
REMARK  7 active torsions:
REMARK  status: ('A' for Active; 'I' for Inactive)
REMARK    1  A    between atoms: C_1  and  C_2
REMARK    2  A    between atoms: C_2  and  C_4
REMARK    3  A    between atoms: C_2  and  N_19
REMARK    4  A    between atoms: N_6  and  C_7
REMARK    5  A    between atoms: C_7  and  C_8
REMARK    6  A    between atoms: C_8  and  C_9
REMARK    7  A    between atoms: C_27  and  C_31
REMARK                            x       y       z     vdW  Elec       q    Type
REMARK                         _______ _______ _______ _____ _____    ______ ____
ROOT
ATOM      1  C   UNL     1      -0.017   1.523   0.087  0.00  0.00    +0.038 C 
ATOM      2  C   UNL     1       0.002  -0.004   0.002  0.00  0.00    +0.164 C 
ENDROOT
BRANCH   2   3
ATOM      3  N   UNL     1      -1.372  -0.511   0.012  0.00  0.00    -0.256 N 
ATOM      4  C   UNL     1      -1.773  -1.407   1.012  0.00  0.00    +0.058 A 
ATOM      5  C   UNL     1      -0.836  -2.045   1.808  0.00  0.00    +0.025 A 
ATOM      6  C   UNL     1      -1.252  -2.922   2.792  0.00  0.00    +0.002 A 
ATOM      7  C   UNL     1      -2.600  -3.166   2.987  0.00  0.00    +0.002 A 
ATOM      8  C   UNL     1      -3.542  -2.535   2.195  0.00  0.00    +0.025 A 
ATOM      9  C   UNL     1      -3.132  -1.658   1.207  0.00  0.00    +0.050 A 
ATOM     10  N   UNL     1      -4.062  -1.011   0.381  0.00  0.00    -0.325 N 
ATOM     11  C   UNL     1      -3.641  -0.657  -0.983  0.00  0.00    +0.262 C 
ATOM     12  C   UNL     1      -2.239  -0.107  -0.936  0.00  0.00    +0.250 C 
ATOM     13  O   UNL     1      -1.885   0.707  -1.763  0.00  0.00    -0.273 OA
ATOM     14  H   UNL     1      -4.955  -0.804   0.698  0.00  0.00    +0.147 HD
BRANCH  11  15
ATOM     15  C   UNL     1      -3.680  -1.903  -1.870  0.00  0.00    +0.416 C 
ATOM     16  F   UNL     1      -4.982  -2.413  -1.902  0.00  0.00    -0.168 F 
ATOM     17  F   UNL     1      -3.279  -1.565  -3.167  0.00  0.00    -0.168 F 
ATOM     18  F   UNL     1      -2.812  -2.871  -1.352  0.00  0.00    -0.168 F 
ENDBRANCH  11  15
ENDBRANCH   2   3
BRANCH   2  19
ATOM     19  C   UNL     1       0.684  -0.427  -1.273  0.00  0.00    +0.234 C 
ATOM     20  O   UNL     1       0.081  -1.088  -2.093  0.00  0.00    -0.274 OA
ATOM     21  N   UNL     1       1.964  -0.072  -1.503  0.00  0.00    -0.313 N 
ATOM     22  H   UNL     1       2.446   0.456  -0.848  0.00  0.00    +0.149 HD
BRANCH  21  23
ATOM     23  C   UNL     1       2.627  -0.484  -2.743  0.00  0.00    +0.108 C 
BRANCH  23  24
ATOM     24  C   UNL     1       4.062   0.046  -2.754  0.00  0.00    +0.052 C 
BRANCH  24  25
ATOM     25  C   UNL     1       4.744  -0.378  -4.029  0.00  0.00    -0.040 C 
ATOM     26  C   UNL     1       4.859   0.343  -5.168  0.00  0.00    +0.000 A 
ATOM     27  C   UNL     1       4.399   1.685  -5.546  0.00  0.00    +0.030 A 
ATOM     28  C   UNL     1       4.670   2.145  -6.789  0.00  0.00    +0.042 A 
ATOM     29  C   UNL     1       5.377   1.374  -7.723  0.00  0.00    +0.022 A 
ATOM     30  C   UNL     1       5.831   0.133  -7.449  0.00  0.00    +0.027 A 
ATOM     31  C   UNL     1       5.603  -0.451  -6.172  0.00  0.00    +0.043 A 
ATOM     32  N   UNL     1       5.935  -1.617  -5.673  0.00  0.00    -0.380 N 
ATOM     33  C   UNL     1       5.445  -1.692  -4.293  0.00  0.00    +0.144 C 
ATOM     34 CL   UNL     1       4.129   3.732  -7.240  0.00  0.00    -0.084 Cl
ATOM     35  H   UNL     1       6.427  -2.312  -6.138  0.00  0.00    +0.160 HD
ENDBRANCH  24  25
ENDBRANCH  23  24
ENDBRANCH  21  23
ENDBRANCH   2  19
TORSDOF 6
