REMARK  Name = ZINC36290130
REMARK  4 active torsions:
REMARK  status: ('A' for Active; 'I' for Inactive)
REMARK    1  A    between atoms: C_1  and  C_2
REMARK    2  A    between atoms: C_3  and  N_16
REMARK    3  A    between atoms: C_5  and  C_11
REMARK    4  A    between atoms: C_6  and  C_10
REMARK                            x       y       z     vdW  Elec       q    Type
REMARK                         _______ _______ _______ _____ _____    ______ ____
ROOT
ATOM      1  C   UNL     1      -0.018   1.503   0.010  0.00  0.00    +0.069 C 
ATOM      2  C   UNL     1       0.002  -0.004   0.002  0.00  0.00    +0.079 A 
ATOM      3  C   UNL     1       0.008  -0.787  -1.095  0.00  0.00    +0.124 A 
ATOM      4  N   UNL     1       0.029  -2.112  -0.667  0.00  0.00    -0.274 N 
ATOM      5  C   UNL     1       0.043  -3.380  -1.228  0.00  0.00    +0.073 A 
ATOM      6  C   UNL     1       0.062  -4.471  -0.437  0.00  0.00    +0.015 A 
ATOM      7  S   UNL     1       0.060  -3.748   1.196  0.00  0.00    -0.054 S 
ATOM      8  C   UNL     1       0.034  -2.040   0.704  0.00  0.00    +0.180 A 
ATOM      9  N   UNL     1       0.024  -0.798   1.089  0.00  0.00    -0.225 NA
ATOM     10  C   UNL     1       0.080  -5.926  -0.829  0.00  0.00    +0.054 C 
ENDROOT
BRANCH   5  11
ATOM     11  C   UNL     1       0.038  -3.535  -2.694  0.00  0.00    +0.037 A 
ATOM     12  C   UNL     1      -0.926  -4.081  -3.501  0.00  0.00    +0.017 A 
ATOM     13  C   UNL     1      -0.707  -4.117  -4.862  0.00  0.00    +0.008 A 
ATOM     14  C   UNL     1       0.451  -3.612  -5.358  0.00  0.00    +0.046 A 
ATOM     15  S   UNL     1       1.281  -3.052  -3.881  0.00  0.00    -0.095 S 
ENDBRANCH   5  11
BRANCH   3  16
ATOM     16  N   UNL     1      -0.005  -0.348  -2.426  0.00  0.00    -0.343 N 
ATOM     17  H   UNL     1      -0.020   0.602  -2.623  0.00  0.00    +0.144 HD
ATOM     18  H   UNL     1      -0.000  -0.993  -3.151  0.00  0.00    +0.144 HD
ENDBRANCH   3  16
TORSDOF 2
