REMARK  Name = ZINC20099792
REMARK  15 active torsions:
REMARK  status: ('A' for Active; 'I' for Inactive)
REMARK    1  A    between atoms: C_1  and  C_2
REMARK    2  A    between atoms: C_2  and  C_4
REMARK    3  A    between atoms: C_2  and  O_27
REMARK    4  A    between atoms: C_7  and  S_13
REMARK    5  A    between atoms: N_8  and  C_9
REMARK    6  A    between atoms: C_9  and  C_10
REMARK    7  A    between atoms: C_10  and  C_11
REMARK    8  A    between atoms: C_10  and  C_12
REMARK    9  A    between atoms: S_13  and  C_14
REMARK   10  A    between atoms: C_14  and  C_16
REMARK   11  A    between atoms: C_14  and  C_17
REMARK   12  A    between atoms: N_19  and  C_20
REMARK   13  A    between atoms: O_27  and  C_28
REMARK   14  A    between atoms: C_31  and  O_34
REMARK   15  A    between atoms: O_34  and  C_35
REMARK                            x       y       z     vdW  Elec       q    Type
REMARK                         _______ _______ _______ _____ _____    ______ ____
ROOT
ATOM      1  C   UNL     1      -1.799  -0.902   0.941  0.00  0.00    +0.175 A 
ATOM      2  N   UNL     1      -2.429  -0.636  -0.167  0.00  0.00    -0.130 NA
ATOM      3  N   UNL     1      -3.691  -0.535   0.056  0.00  0.00    -0.122 NA
ATOM      4  C   UNL     1      -3.935  -0.734   1.331  0.00  0.00    +0.192 A 
ATOM      5  N   UNL     1      -2.736  -0.979   1.934  0.00  0.00    -0.303 N 
ENDROOT
BRANCH   1   7
ATOM      6  C   UNL     1       0.380   0.269   1.116  0.00  0.00    +0.060 C 
ATOM      7  C   UNL     1      -0.312  -1.095   1.099  0.00  0.00    +0.238 C 
BRANCH   7   8
ATOM      8  O   UNL     1       0.186  -1.869   0.005  0.00  0.00    -0.481 OA
BRANCH   8   9
ATOM      9  C   UNL     1       1.341  -2.556   0.211  0.00  0.00    +0.122 A 
ATOM     10  C   UNL     1       1.856  -3.362  -0.793  0.00  0.00    +0.049 A 
ATOM     11  C   UNL     1       3.029  -4.061  -0.584  0.00  0.00    +0.049 A 
ATOM     12  C   UNL     1       3.692  -3.956   0.629  0.00  0.00    +0.120 A 
ATOM     13  C   UNL     1       3.177  -3.150   1.633  0.00  0.00    +0.049 A 
ATOM     14  C   UNL     1       2.006  -2.447   1.423  0.00  0.00    +0.049 A 
BRANCH  12  15
ATOM     15  O   UNL     1       4.846  -4.645   0.836  0.00  0.00    -0.495 OA
ATOM     16  C   UNL     1       5.475  -4.490   2.109  0.00  0.00    +0.277 C 
ENDBRANCH  12  15
ENDBRANCH   8   9
ENDBRANCH   7   8
ENDBRANCH   1   7
BRANCH   5  17
ATOM     17  C   UNL     1      -2.500  -1.262   3.352  0.00  0.00    +0.128 C 
BRANCH  17  18
ATOM     18  C   UNL     1      -2.432  -2.776   3.565  0.00  0.00    +0.003 C 
ATOM     19  C   UNL     1      -2.047  -3.070   5.017  0.00  0.00    +0.009 C 
ATOM     20  C   UNL     1      -3.799  -3.395   3.265  0.00  0.00    +0.009 C 
ENDBRANCH  17  18
ENDBRANCH   5  17
BRANCH   4  21
ATOM     21  S   UNL     1      -5.514  -0.697   2.113  0.00  0.00    -0.074 S 
BRANCH  21  22
ATOM     22  C   UNL     1      -6.666  -0.331   0.760  0.00  0.00    +0.137 C 
ATOM     23  C   UNL     1      -6.665  -1.490  -0.238  0.00  0.00    +0.029 C 
BRANCH  22  24
ATOM     24  C   UNL     1      -8.054  -0.149   1.318  0.00  0.00    +0.230 C 
ATOM     25  O   UNL     1      -8.332  -0.596   2.410  0.00  0.00    -0.274 OA
ATOM     26  N   UNL     1      -8.986   0.511   0.603  0.00  0.00    -0.285 N 
ATOM     27  H   UNL     1      -8.787   0.803  -0.301  0.00  0.00    +0.155 HD
BRANCH  26  28
ATOM     28  C   UNL     1     -10.241   0.774   1.163  0.00  0.00    +0.036 A 
ATOM     29  C   UNL     1     -11.373   0.791   0.357  0.00  0.00    +0.023 A 
ATOM     30  C   UNL     1     -12.611   1.050   0.912  0.00  0.00    +0.005 A 
ATOM     31  C   UNL     1     -12.726   1.294   2.268  0.00  0.00    +0.038 A 
ATOM     32  C   UNL     1     -11.600   1.277   3.075  0.00  0.00    +0.125 A 
ATOM     33  C   UNL     1     -10.358   1.012   2.525  0.00  0.00    +0.061 A 
ATOM     34  F   UNL     1     -11.715   1.516   4.400  0.00  0.00    -0.205 F 
ENDBRANCH  26  28
ENDBRANCH  22  24
ENDBRANCH  21  22
ENDBRANCH   4  21
TORSDOF 10
