REMARK  Name = ZINC22609274
REMARK  5 active torsions:
REMARK  status: ('A' for Active; 'I' for Inactive)
REMARK    1  A    between atoms: C_1  and  C_2
REMARK    2  A    between atoms: C_5  and  C_8
REMARK    3  A    between atoms: C_8  and  C_10
REMARK    4  A    between atoms: C_8  and  N_19
REMARK    5  A    between atoms: C_11  and  O_18
REMARK                            x       y       z     vdW  Elec       q    Type
REMARK                         _______ _______ _______ _____ _____    ______ ____
ROOT
ATOM      1  C   UNL     1      -1.451   3.568   2.449  0.00  0.00    +0.129 C 
ENDROOT
BRANCH   1   2
ATOM      2  C   UNL     1      -2.804   2.904   2.421  0.00  0.00    +0.076 A 
ATOM      3  C   UNL     1      -4.008   3.428   2.676  0.00  0.00    +0.228 A 
ATOM      4  N   UNL     1      -5.140   2.654   2.598  0.00  0.00    -0.174 N 
ATOM      5  C   UNL     1      -4.979   1.347   2.252  0.00  0.00    +0.199 A 
ATOM      6  S   UNL     1      -3.221   1.211   2.030  0.00  0.00    -0.047 S 
ATOM      7  N   UNL     1      -6.142   0.755   2.223  0.00  0.00    -0.208 NA
ATOM      8  C   UNL     1      -7.091   1.633   2.541  0.00  0.00    +0.246 A 
ATOM      9  N   UNL     1      -6.541   2.794   2.777  0.00  0.00    -0.150 NA
BRANCH   3  10
ATOM     10  O   UNL     1      -4.112   4.741   3.017  0.00  0.00    -0.492 OA
ATOM     11  H   UNL     1      -5.100   5.178   3.228  0.00  0.00    +0.294 HD
ENDBRANCH   3  10
ENDBRANCH   1   2
BRANCH   1  16
ATOM     12  C   UNL     1       1.464   1.803   7.116  0.00  0.00    +0.044 C 
ATOM     13  C   UNL     1       0.704   2.263   5.899  0.00  0.00    -0.050 A 
ATOM     14  C   UNL     1       0.161   3.534   5.863  0.00  0.00    +0.004 A 
ATOM     15  C   UNL     1      -0.536   3.956   4.746  0.00  0.00    +0.006 A 
ATOM     16  C   UNL     1      -0.691   3.107   3.666  0.00  0.00    -0.025 A 
ATOM     17  C   UNL     1      -0.153   1.835   3.704  0.00  0.00    +0.006 A 
ATOM     18  C   UNL     1       0.549   1.414   4.819  0.00  0.00    +0.004 A 
ENDBRANCH   1  16
BRANCH   1  19
ATOM     19  N   UNL     1      -0.703   3.206   1.238  0.00  0.00    -0.287 NA
ATOM     20  C   UNL     1      -1.490   3.486   0.028  0.00  0.00    +0.113 C 
ATOM     21  C   UNL     1      -0.698   3.041  -1.204  0.00  0.00    +0.175 C 
ATOM     22  O   UNL     1       0.569   3.704  -1.216  0.00  0.00    -0.377 OA
ATOM     23  C   UNL     1       1.362   3.451  -0.053  0.00  0.00    +0.175 C 
ATOM     24  C   UNL     1       0.592   3.901   1.191  0.00  0.00    +0.113 C 
ENDBRANCH   1  19
TORSDOF 4
