REMARK  Name = ZINC16635869
REMARK  9 active torsions:
REMARK  status: ('A' for Active; 'I' for Inactive)
REMARK    1  A    between atoms: C_1  and  C_2
REMARK    2  A    between atoms: C_5  and  C_8
REMARK    3  A    between atoms: C_11  and  C_14
REMARK    4  A    between atoms: C_19  and  C_21
REMARK    5  A    between atoms: C_21  and  N_58
REMARK    6  A    between atoms: C_22  and  N_58
REMARK    7  A    between atoms: C_23  and  C_24
REMARK    8  A    between atoms: C_23  and  N_58
REMARK    9  A    between atoms: N_26  and  C_27
REMARK                            x       y       z     vdW  Elec       q    Type
REMARK                         _______ _______ _______ _____ _____    ______ ____
ROOT
ATOM      1  C   UNL     1      -0.865   1.918   8.345  0.00  0.00    +0.069 C 
ATOM      2  N   UNL     1      -1.065   2.220   7.109  0.00  0.00    -0.181 NA
ATOM      3  N   UNL     1      -2.409   2.334   6.761  0.00  0.00    -0.184 N 
ATOM      4  C   UNL     1      -3.233   2.055   7.948  0.00  0.00    +0.172 C 
ATOM      5  C   UNL     1      -2.194   1.766   9.050  0.00  0.00    +0.090 C 
ATOM      6  C   UNL     1      -2.879   2.643   5.536  0.00  0.00    +0.219 C 
ATOM      7  O   UNL     1      -4.074   2.710   5.344  0.00  0.00    -0.276 OA
ENDROOT
BRANCH   1  12
ATOM      8  C   UNL     1       4.291   1.227  10.800  0.00  0.00    +0.044 C 
ATOM      9  C   UNL     1       2.940   1.408  10.156  0.00  0.00    -0.050 A 
ATOM     10  C   UNL     1       2.854   1.740   8.816  0.00  0.00    +0.004 A 
ATOM     11  C   UNL     1       1.621   1.907   8.220  0.00  0.00    +0.010 A 
ATOM     12  C   UNL     1       0.457   1.740   8.974  0.00  0.00    -0.002 A 
ATOM     13  C   UNL     1       0.551   1.411  10.328  0.00  0.00    +0.010 A 
ATOM     14  C   UNL     1       1.791   1.242  10.909  0.00  0.00    +0.004 A 
ENDBRANCH   1  12
BRANCH   4  15
ATOM     15  C   UNL     1      -4.108   0.851   7.716  0.00  0.00    +0.128 A 
ATOM     16  C   UNL     1      -5.378   0.709   8.134  0.00  0.00    +0.046 A 
ATOM     17  C   UNL     1      -5.813  -0.565   7.700  0.00  0.00    +0.041 A 
ATOM     18  C   UNL     1      -4.782  -1.125   7.043  0.00  0.00    +0.195 A 
ATOM     19  O   UNL     1      -3.754  -0.261   7.050  0.00  0.00    -0.466 OA
ENDBRANCH   4  15
BRANCH   6  20
ATOM     20  C   UNL     1      -1.918   2.906   4.405  0.00  0.00    +0.021 C 
BRANCH  20  22
ATOM     21  C   UNL     1      -3.440   2.053   2.727  0.00  0.00    -0.095 C 
ATOM     22  N   UNL     1      -2.691   3.240   3.191  0.00  0.00    +0.389 N 
ATOM     23  H   UNL     1      -3.357   3.988   3.415  0.00  0.00    -0.081 HD
BRANCH  22  24
ATOM     24  C   UNL     1      -1.780   3.710   2.126  0.00  0.00    +0.019 C 
BRANCH  24  25
ATOM     25  C   UNL     1      -2.604   4.249   0.985  0.00  0.00    +0.201 C 
ATOM     26  O   UNL     1      -3.816   4.226   1.047  0.00  0.00    -0.278 OA
ATOM     27  N   UNL     1      -1.996   4.756  -0.105  0.00  0.00    -0.285 N 
ATOM     28  H   UNL     1      -1.030   4.842  -0.126  0.00  0.00    +0.155 HD
BRANCH  27  29
ATOM     29  C   UNL     1      -2.757   5.160  -1.209  0.00  0.00    +0.070 A 
ATOM     30  C   UNL     1      -3.064   4.250  -2.213  0.00  0.00    +0.064 A 
ATOM     31  C   UNL     1      -3.821   4.650  -3.299  0.00  0.00    +0.022 A 
ATOM     32  C   UNL     1      -4.263   5.957  -3.391  0.00  0.00    +0.003 A 
ATOM     33  C   UNL     1      -3.955   6.867  -2.396  0.00  0.00    +0.022 A 
ATOM     34  C   UNL     1      -3.203   6.472  -1.305  0.00  0.00    +0.064 A 
ATOM     35 CL   UNL     1      -2.816   7.615  -0.057  0.00  0.00    -0.082 Cl
ATOM     36 CL   UNL     1      -2.505   2.610  -2.101  0.00  0.00    -0.082 Cl
ENDBRANCH  27  29
ENDBRANCH  24  25
ENDBRANCH  22  24
ENDBRANCH  20  22
ENDBRANCH   6  20
TORSDOF 7
