REMARK  Name = ZINC67585909
REMARK  9 active torsions:
REMARK  status: ('A' for Active; 'I' for Inactive)
REMARK    1  A    between atoms: C_1  and  N_2
REMARK    2  A    between atoms: N_2  and  C_3
REMARK    3  A    between atoms: N_2  and  C_4
REMARK    4  A    between atoms: C_4  and  C_6
REMARK    5  A    between atoms: C_4  and  C_19
REMARK    6  A    between atoms: C_6  and  N_7
REMARK    7  A    between atoms: C_14  and  C_16
REMARK    8  A    between atoms: C_22  and  O_25
REMARK    9  A    between atoms: O_25  and  C_26
REMARK                            x       y       z     vdW  Elec       q    Type
REMARK                         _______ _______ _______ _____ _____    ______ ____
ROOT
ATOM      1  C   UNL     1      -1.397  -1.805   0.701  0.00  0.00    +0.095 C 
ENDROOT
BRANCH   1   2
ATOM      2  N   UNL     1      -2.782  -2.193   0.978  0.00  0.00    -0.300 N 
ATOM      3  C   UNL     1      -3.077  -3.474   1.275  0.00  0.00    +0.305 C 
ATOM      4  O   UNL     1      -2.193  -4.308   1.312  0.00  0.00    -0.252 OA
ATOM      5  N   UNL     1      -4.351  -3.831   1.530  0.00  0.00    -0.247 N 
ATOM      6  C   UNL     1      -4.655  -5.153   1.837  0.00  0.00    +0.189 A 
ATOM      7  N   UNL     1      -3.848  -6.191   1.932  0.00  0.00    -0.125 NA
ATOM      8  N   UNL     1      -4.275  -7.345   2.222  0.00  0.00    -0.139 NA
ATOM      9  C   UNL     1      -5.564  -7.516   2.436  0.00  0.00    +0.169 A 
ATOM     10  S   UNL     1      -6.151  -5.846   2.190  0.00  0.00    -0.030 S 
ATOM     11  H   UNL     1      -3.487  -1.528   0.949  0.00  0.00    +0.150 HD
ATOM     12  H   UNL     1      -5.056  -3.166   1.500  0.00  0.00    +0.158 HD
BRANCH   9  13
ATOM     13  C   UNL     1      -6.326  -8.767   2.792  0.00  0.00    +0.398 C 
ATOM     14  F   UNL     1      -5.500  -9.624   3.527  0.00  0.00    -0.202 F 
ATOM     15  F   UNL     1      -7.446  -8.427   3.559  0.00  0.00    -0.202 F 
ENDBRANCH   9  13
ENDBRANCH   1   2
BRANCH   1  16
ATOM     16  C   UNL     1      -1.355  -0.338   0.270  0.00  0.00    -0.021 C 
BRANCH  16  17
ATOM     17  C   UNL     1      -2.080  -0.178  -1.041  0.00  0.00    -0.059 A 
ATOM     18  C   UNL     1      -1.449  -0.513  -2.224  0.00  0.00    +0.005 A 
ATOM     19  C   UNL     1      -2.112  -0.367  -3.428  0.00  0.00    +0.046 A 
ATOM     20  C   UNL     1      -3.412   0.116  -3.448  0.00  0.00    +0.120 A 
ATOM     21  C   UNL     1      -4.043   0.452  -2.259  0.00  0.00    +0.046 A 
ATOM     22  C   UNL     1      -3.378   0.299  -1.058  0.00  0.00    +0.005 A 
BRANCH  20  23
ATOM     23  O   UNL     1      -4.066   0.261  -4.630  0.00  0.00    -0.495 OA
ATOM     24  C   UNL     1      -5.402   0.764  -4.575  0.00  0.00    +0.277 C 
ENDBRANCH  20  23
ENDBRANCH  16  17
BRANCH  16  26
ATOM     25  C   UNL     1       0.082   1.480  -0.350  0.00  0.00    -0.096 C 
ATOM     26  N   UNL     1       0.043   0.086   0.111  0.00  0.00    +0.382 N 
ATOM     27  C   UNL     1       0.737  -0.022   1.401  0.00  0.00    -0.096 C 
ATOM     28  H   UNL     1       0.499  -0.506  -0.567  0.00  0.00    -0.082 HD
ENDBRANCH  16  26
ENDBRANCH   1  16
TORSDOF 6
