REMARK  Name = ZINC66591966
REMARK  7 active torsions:
REMARK  status: ('A' for Active; 'I' for Inactive)
REMARK    1  A    between atoms: C_1  and  C_2
REMARK    2  A    between atoms: C_5  and  C_12
REMARK    3  A    between atoms: C_8  and  C_10
REMARK    4  A    between atoms: C_8  and  C_11
REMARK    5  A    between atoms: C_12  and  C_13
REMARK    6  A    between atoms: N_15  and  N_16
REMARK    7  A    between atoms: C_17  and  C_19
REMARK                            x       y       z     vdW  Elec       q    Type
REMARK                         _______ _______ _______ _____ _____    ______ ____
ROOT
ATOM      1  N   UNL     1      -5.463  -2.188  -2.666  0.00  0.00    -0.229 N 
ATOM      2  C   UNL     1      -6.745  -2.548  -2.879  0.00  0.00    +0.279 C 
ATOM      3  O   UNL     1      -7.343  -3.192  -2.038  0.00  0.00    -0.267 OA
ATOM      4  H   UNL     1      -4.986  -1.674  -3.336  0.00  0.00    +0.173 HD
ENDROOT
BRANCH   2   5
ATOM      5  C   UNL     1      -7.420  -2.161  -4.128  0.00  0.00    +0.136 A 
ATOM      6  C   UNL     1      -8.726  -2.517  -4.352  0.00  0.00    +0.081 A 
ATOM      7  S   UNL     1      -8.994  -1.799  -5.968  0.00  0.00    -0.060 S 
ATOM      8  C   UNL     1      -7.362  -1.104  -6.182  0.00  0.00    +0.162 A 
ATOM      9  N   UNL     1      -6.772  -1.453  -5.056  0.00  0.00    -0.220 NA
ATOM     10  N   UNL     1      -6.852  -0.384  -7.249  0.00  0.00    -0.305 N 
ATOM     11  C   UNL     1      -5.463   0.103  -7.240  0.00  0.00    +0.135 C 
ATOM     12  C   UNL     1      -4.795  -0.315  -8.555  0.00  0.00    +0.179 C 
ATOM     13  O   UNL     1      -5.609   0.108  -9.651  0.00  0.00    -0.377 OA
ATOM     14  C   UNL     1      -6.907  -0.491  -9.683  0.00  0.00    +0.179 C 
ATOM     15  C   UNL     1      -7.681  -0.087  -8.428  0.00  0.00    +0.135 C 
ENDBRANCH   2   5
BRANCH   1  18
ATOM     16  C   UNL     1      -3.539  -2.197  -1.264  0.00  0.00    +0.229 C 
ATOM     17  O   UNL     1      -2.943  -1.554  -2.102  0.00  0.00    -0.274 OA
ATOM     18  N   UNL     1      -4.821  -2.557  -1.477  0.00  0.00    -0.234 N 
ATOM     19  H   UNL     1      -5.298  -3.071  -0.807  0.00  0.00    +0.173 HD
BRANCH  16  20
ATOM     20  C   UNL     1      -2.848  -2.593   0.015  0.00  0.00    +0.101 C 
BRANCH  20  24
ATOM     21  C   UNL     1      -0.019   1.526   0.010  0.00  0.00    +0.007 C 
ATOM     22  C   UNL     1       0.002  -0.004   0.002  0.00  0.00    -0.013 C 
ATOM     23  C   UNL     1      -1.433  -0.534   0.013  0.00  0.00    +0.007 C 
ATOM     24  C   UNL     1      -1.413  -2.063   0.004  0.00  0.00    -0.001 C 
ATOM     25  C   UNL     1      -0.673  -2.570   1.244  0.00  0.00    +0.010 C 
ATOM     26  C   UNL     1       0.763  -2.041   1.233  0.00  0.00    -0.034 C 
ATOM     27  C   UNL     1       0.742  -0.511   1.242  0.00  0.00    +0.009 C 
ATOM     28  C   UNL     1       1.479  -2.534  -0.026  0.00  0.00    +0.011 C 
ATOM     29  C   UNL     1       1.503  -2.548   2.473  0.00  0.00    +0.011 C 
ENDBRANCH  20  24
ENDBRANCH  16  20
ENDBRANCH   1  18
TORSDOF 4
