REMARK  Name = ZINC46568460
REMARK  7 active torsions:
REMARK  status: ('A' for Active; 'I' for Inactive)
REMARK    1  A    between atoms: C_1  and  C_2
REMARK    2  A    between atoms: C_2  and  C_4
REMARK    3  A    between atoms: C_2  and  N_13
REMARK    4  A    between atoms: N_13  and  C_14
REMARK    5  A    between atoms: C_15  and  C_17
REMARK    6  A    between atoms: N_19  and  C_26
REMARK    7  A    between atoms: C_20  and  C_23
REMARK                            x       y       z     vdW  Elec       q    Type
REMARK                         _______ _______ _______ _____ _____    ______ ____
ROOT
ATOM      1  C   UNL     1       0.205  -1.461   3.492  0.00  0.00    +0.123 C 
ATOM      2  N   UNL     1       1.332  -1.141   4.042  0.00  0.00    -0.178 NA
ATOM      3  N   UNL     1       1.456  -1.560   5.365  0.00  0.00    -0.212 N 
ATOM      4  C   UNL     1       0.227  -2.267   5.759  0.00  0.00    +0.189 C 
ATOM      5  C   UNL     1      -0.649  -2.207   4.492  0.00  0.00    +0.096 C 
ENDROOT
BRANCH   3   6
ATOM      6  C   UNL     1       2.566  -1.344   6.184  0.00  0.00    +0.052 A 
ATOM      7  C   UNL     1       2.571  -1.819   7.490  0.00  0.00    +0.025 A 
ATOM      8  C   UNL     1       3.670  -1.604   8.297  0.00  0.00    +0.002 A 
ATOM      9  C   UNL     1       4.766  -0.916   7.807  0.00  0.00    +0.000 A 
ATOM     10  C   UNL     1       4.764  -0.442   6.508  0.00  0.00    +0.002 A 
ATOM     11  C   UNL     1       3.671  -0.659   5.693  0.00  0.00    +0.025 A 
ENDBRANCH   3   6
BRANCH   4  12
ATOM     12  C   UNL     1       0.533  -3.693   6.134  0.00  0.00    +0.233 C 
ATOM     13  O   UNL     1       1.573  -4.205   5.776  0.00  0.00    -0.274 OA
ATOM     14  N   UNL     1      -0.348  -4.402   6.867  0.00  0.00    -0.328 N 
ATOM     15  H   UNL     1      -1.180  -3.993   7.153  0.00  0.00    +0.145 HD
ATOM     16  H   UNL     1      -0.151  -5.320   7.108  0.00  0.00    +0.145 HD
ENDBRANCH   4  12
BRANCH   1  19
ATOM     17  N   UNL     1       0.703  -0.573   1.280  0.00  0.00    -0.290 N 
ATOM     18  C   UNL     1       2.090  -0.376   1.707  0.00  0.00    +0.133 C 
ATOM     19  C   UNL     1      -0.185  -1.145   2.118  0.00  0.00    +0.263 C 
ATOM     20  O   UNL     1      -1.311  -1.399   1.730  0.00  0.00    -0.269 OA
BRANCH  17  22
ATOM     21  C   UNL     1       0.502   1.357  -0.208  0.00  0.00    +0.036 C 
ATOM     22  C   UNL     1       0.280  -0.149  -0.057  0.00  0.00    +0.139 C 
BRANCH  22  23
ATOM     23  C   UNL     1       1.089  -0.883  -1.096  0.00  0.00    +0.126 A 
ATOM     24  C   UNL     1       0.602  -1.364  -2.248  0.00  0.00    +0.055 A 
ATOM     25  C   UNL     1       1.733  -1.994  -2.938  0.00  0.00    +0.020 A 
ATOM     26  C   UNL     1       1.885  -2.662  -4.153  0.00  0.00    +0.011 A 
ATOM     27  C   UNL     1       3.112  -3.144  -4.513  0.00  0.00    +0.001 A 
ATOM     28  C   UNL     1       4.207  -2.973  -3.678  0.00  0.00    +0.004 A 
ATOM     29  C   UNL     1       4.076  -2.316  -2.473  0.00  0.00    +0.047 A 
ATOM     30  C   UNL     1       2.838  -1.818  -2.088  0.00  0.00    +0.135 A 
ATOM     31  O   UNL     1       2.404  -1.145  -1.004  0.00  0.00    -0.458 OA
ENDBRANCH  22  23
ENDBRANCH  17  22
ENDBRANCH   1  19
TORSDOF 5
