REMARK  Name = ZINC22699711
REMARK  5 active torsions:
REMARK  status: ('A' for Active; 'I' for Inactive)
REMARK    1  A    between atoms: C_1  and  C_2
REMARK    2  A    between atoms: C_14  and  C_15
REMARK    3  A    between atoms: C_15  and  O_17
REMARK    4  A    between atoms: O_17  and  C_18
REMARK    5  A    between atoms: C_18  and  C_19
REMARK                            x       y       z     vdW  Elec       q    Type
REMARK                         _______ _______ _______ _____ _____    ______ ____
ROOT
ATOM      1  C   UNL     1       3.740   0.570  -0.031  0.00  0.00    +0.046 C 
ATOM      2  C   UNL     1       2.248   0.785  -0.015  0.00  0.00    -0.015 A 
ATOM      3  C   UNL     1       1.382  -0.310  -0.012  0.00  0.00    +0.076 A 
ATOM      4  C   UNL     1       0.002  -0.004   0.002  0.00  0.00    +0.116 A 
ATOM      5  N   UNL     1      -0.919  -0.955   0.005  0.00  0.00    -0.226 NA
ATOM      6  C   UNL     1      -0.611  -2.229  -0.005  0.00  0.00    +0.114 A 
ATOM      7  N   UNL     1       0.680  -2.647  -0.016  0.00  0.00    -0.296 N 
ATOM      8  C   UNL     1       1.698  -1.754  -0.022  0.00  0.00    +0.263 A 
ATOM      9  O   UNL     1       2.855  -2.135  -0.035  0.00  0.00    -0.267 OA
ATOM     10  C   UNL     1       0.754  -4.119  -0.018  0.00  0.00    +0.127 C 
ATOM     11  C   UNL     1      -0.643  -4.605  -0.456  0.00  0.00    +0.029 C 
ATOM     12  C   UNL     1      -1.540  -3.430  -0.011  0.00  0.00    +0.076 C 
ATOM     13  S   UNL     1      -0.022   1.771   0.012  0.00  0.00    -0.062 S 
ATOM     14  C   UNL     1       1.740   2.052  -0.004  0.00  0.00    +0.102 A 
ENDROOT
BRANCH  14  15
ATOM     15  C   UNL     1       2.462   3.326  -0.004  0.00  0.00    +0.347 C 
ATOM     16  O   UNL     1       3.679   3.336  -0.016  0.00  0.00    -0.244 OA
BRANCH  15  17
ATOM     17  O   UNL     1       1.779   4.489   0.009  0.00  0.00    -0.454 OA
BRANCH  17  18
ATOM     18  C   UNL     1       2.560   5.713   0.007  0.00  0.00    +0.289 C 
BRANCH  18  19
ATOM     19  C   UNL     1       1.632   6.901   0.022  0.00  0.00    +0.097 A 
ATOM     20  C   UNL     1       0.282   6.847   0.030  0.00  0.00    +0.119 A 
ATOM     21  N   UNL     1      -0.174   8.137   0.047  0.00  0.00    -0.305 N 
ATOM     22  C   UNL     1      -1.430   8.672   0.062  0.00  0.00    +0.112 A 
ATOM     23  C   UNL     1      -1.607  10.011   0.069  0.00  0.00    +0.058 A 
ATOM     24  C   UNL     1      -0.496  10.872   0.062  0.00  0.00    +0.025 A 
ATOM     25  C   UNL     1       0.761  10.351   0.047  0.00  0.00    +0.048 A 
ATOM     26  C   UNL     1       0.928   8.952   0.040  0.00  0.00    +0.138 A 
ATOM     27  N   UNL     1       2.008   8.182   0.025  0.00  0.00    -0.229 NA
ATOM     28 CL   UNL     1      -3.212  10.671   0.087  0.00  0.00    -0.082 Cl
ENDBRANCH  18  19
ENDBRANCH  17  18
ENDBRANCH  15  17
ENDBRANCH  14  15
TORSDOF 4
