REMARK  Name = ZINC09836069
REMARK  3 active torsions:
REMARK  status: ('A' for Active; 'I' for Inactive)
REMARK    1  A    between atoms: C_8  and  C_12
REMARK    2  A    between atoms: C_12  and  S_13
REMARK    3  A    between atoms: S_13  and  C_14
REMARK                            x       y       z     vdW  Elec       q    Type
REMARK                         _______ _______ _______ _____ _____    ______ ____
ROOT
ATOM      1  S   UNL     1      -3.218  -2.643   1.664  0.00  0.00    -0.080 S 
ENDROOT
BRANCH   1   2
ATOM      2  C   UNL     1      -4.705  -3.548   1.392  0.00  0.00    +0.191 A 
ATOM      3  N   UNL     1      -5.552  -3.727   2.399  0.00  0.00    -0.207 NA
ATOM      4  C   UNL     1      -6.685  -4.393   2.254  0.00  0.00    +0.129 A 
ATOM      5  C   UNL     1      -7.009  -4.948   0.984  0.00  0.00    +0.047 A 
ATOM      6  C   UNL     1      -8.175  -5.715   0.578  0.00  0.00    +0.021 A 
ATOM      7  C   UNL     1      -8.268  -6.142  -0.690  0.00  0.00    +0.048 A 
ATOM      8  S   UNL     1      -6.772  -5.535  -1.445  0.00  0.00    -0.077 S 
ATOM      9  C   UNL     1      -6.061  -4.724  -0.037  0.00  0.00    +0.114 A 
ATOM     10  N   UNL     1      -4.954  -4.043   0.187  0.00  0.00    -0.215 NA
ATOM     11  N   UNL     1      -7.544  -4.552   3.326  0.00  0.00    -0.343 N 
ATOM     12  H   UNL     1      -8.372  -5.045   3.215  0.00  0.00    +0.144 HD
ATOM     13  H   UNL     1      -7.318  -4.171   4.189  0.00  0.00    +0.144 HD
ENDBRANCH   1   2
BRANCH   1  14
ATOM     14  C   UNL     1      -2.490  -2.729   0.008  0.00  0.00    +0.133 C 
BRANCH  14  22
ATOM     15  C   UNL     1       1.161   2.089   0.002  0.00  0.00    +0.005 A 
ATOM     16  C   UNL     1       2.372   1.383  -0.011  0.00  0.00    +0.018 A 
ATOM     17  C   UNL     1       2.371   0.031  -0.018  0.00  0.00    +0.096 A 
ATOM     18  N   UNL     1       1.199  -0.664  -0.012  0.00  0.00    -0.268 N 
ATOM     19  C   UNL     1       0.002  -0.004   0.002  0.00  0.00    +0.140 A 
ATOM     20  C   UNL     1      -0.017   1.403   0.010  0.00  0.00    +0.047 A 
ATOM     21  N   UNL     1      -1.148  -0.676   0.009  0.00  0.00    -0.233 NA
ATOM     22  C   UNL     1      -1.171  -2.000   0.001  0.00  0.00    +0.059 A 
ATOM     23  C   UNL     1       0.011  -2.713  -0.013  0.00  0.00    +0.094 A 
ATOM     24  C   UNL     1       1.224  -2.014  -0.019  0.00  0.00    +0.259 A 
ATOM     25  O   UNL     1       2.286  -2.615  -0.031  0.00  0.00    -0.267 OA
ENDBRANCH  14  22
ENDBRANCH   1  14
TORSDOF 3
