REMARK  Name = ZINC33276718
REMARK  10 active torsions:
REMARK  status: ('A' for Active; 'I' for Inactive)
REMARK    1  A    between atoms: C_1  and  C_2
REMARK    2  A    between atoms: C_2  and  C_3
REMARK    3  A    between atoms: C_4  and  C_15
REMARK    4  A    between atoms: C_18  and  O_33
REMARK    5  A    between atoms: C_19  and  S_21
REMARK    6  A    between atoms: S_21  and  N_24
REMARK    7  A    between atoms: N_24  and  C_25
REMARK    8  A    between atoms: N_24  and  C_27
REMARK    9  A    between atoms: C_25  and  C_26
REMARK   10  A    between atoms: O_33  and  C_34
REMARK                            x       y       z     vdW  Elec       q    Type
REMARK                         _______ _______ _______ _____ _____    ______ ____
ROOT
ATOM      1  C   UNL     1       1.175   2.837  -5.013  0.00  0.00    -0.011 A 
ATOM      2  C   UNL     1       0.995   3.963  -4.210  0.00  0.00    +0.012 A 
ATOM      3  C   UNL     1       0.464   3.828  -2.945  0.00  0.00    +0.048 A 
ATOM      4  C   UNL     1       0.108   2.573  -2.469  0.00  0.00    +0.147 A 
ATOM      5  C   UNL     1       0.286   1.451  -3.266  0.00  0.00    +0.151 A 
ATOM      6  C   UNL     1       0.822   1.578  -4.531  0.00  0.00    +0.041 A 
ENDROOT
BRANCH   1   8
ATOM      7  C   UNL     1       2.977   2.461  -6.818  0.00  0.00    +0.073 A 
ATOM      8  C   UNL     1       1.746   2.979  -6.374  0.00  0.00    +0.045 A 
ATOM      9  C   UNL     1       1.161   3.642  -7.447  0.00  0.00    +0.139 A 
ATOM     10  N   UNL     1       1.986   3.474  -8.512  0.00  0.00    -0.185 N 
ATOM     11  N   UNL     1       3.126   2.773  -8.073  0.00  0.00    -0.167 NA
ATOM     12  C   UNL     1       1.811   3.837  -9.800  0.00  0.00    +0.250 C 
ATOM     13  O   UNL     1       2.725   3.668 -10.573  0.00  0.00    -0.271 OA
ATOM     14  C   UNL     1       0.562   4.429 -10.312  0.00  0.00    +0.110 C 
ATOM     15  C   UNL     1      -0.690   3.926  -9.642  0.00  0.00    +0.105 C 
ATOM     16  C   UNL     1      -0.901   4.568  -8.311  0.00  0.00    +0.219 C 
ATOM     17  O   UNL     1      -1.883   5.251  -8.114  0.00  0.00    -0.275 OA
ATOM     18  N   UNL     1       0.004   4.386  -7.326  0.00  0.00    -0.270 N 
ATOM     19  H   UNL     1      -0.235   4.882  -6.374  0.00  0.00    +0.156 HD
BRANCH   7  21
ATOM     20  C   UNL     1       3.634   0.186  -6.081  0.00  0.00    +0.010 C 
ATOM     21  C   UNL     1       3.957   1.678  -5.982  0.00  0.00    +0.054 C 
ENDBRANCH   7  21
ENDBRANCH   1   8
BRANCH   5  22
ATOM     22  S   UNL     1      -0.165  -0.140  -2.657  0.00  0.00    +0.078 S 
ATOM     23  O   UNL     1       0.128  -1.069  -3.692  0.00  0.00    -0.150 OA
ATOM     24  O   UNL     1      -1.465  -0.008  -2.099  0.00  0.00    -0.150 OA
BRANCH  22  25
ATOM     25  N   UNL     1       0.855  -0.492  -1.402  0.00  0.00    -0.203 N 
BRANCH  25  26
ATOM     26  C   UNL     1       0.464  -0.225  -0.088  0.00  0.00    +0.051 A 
ATOM     27  C   UNL     1      -0.698  -0.792   0.421  0.00  0.00    +0.025 A 
ATOM     28  C   UNL     1      -1.080  -0.529   1.722  0.00  0.00    +0.002 A 
ATOM     29  C   UNL     1      -0.312   0.304   2.515  0.00  0.00    +0.000 A 
ATOM     30  C   UNL     1       0.842   0.874   2.010  0.00  0.00    +0.002 A 
ATOM     31  C   UNL     1       1.233   0.612   0.711  0.00  0.00    +0.025 A 
ENDBRANCH  25  26
BRANCH  25  32
ATOM     32  C   UNL     1       2.169  -1.083  -1.669  0.00  0.00    +0.128 C 
ATOM     33  C   UNL     1       2.140  -2.571  -1.312  0.00  0.00    +0.026 C 
ENDBRANCH  25  32
ENDBRANCH  22  25
ENDBRANCH   5  22
BRANCH   4  34
ATOM     34  O   UNL     1      -0.415   2.443  -1.221  0.00  0.00    -0.493 OA
ATOM     35  C   UNL     1      -0.571   3.640  -0.456  0.00  0.00    +0.277 C 
ENDBRANCH   4  34
TORSDOF 7
