REMARK  Name = ZINC45135687
REMARK  6 active torsions:
REMARK  status: ('A' for Active; 'I' for Inactive)
REMARK    1  A    between atoms: C_1  and  C_2
REMARK    2  A    between atoms: C_6  and  N_14
REMARK    3  A    between atoms: C_7  and  N_11
REMARK    4  A    between atoms: N_14  and  C_15
REMARK    5  A    between atoms: C_18  and  C_19
REMARK    6  A    between atoms: C_18  and  C_20
REMARK                            x       y       z     vdW  Elec       q    Type
REMARK                         _______ _______ _______ _____ _____    ______ ____
ROOT
ATOM      1  C   UNL     1       0.480   1.431  -0.075  0.00  0.00    +0.073 C 
ATOM      2  C   UNL     1       0.350  -0.070  -0.060  0.00  0.00    +0.076 A 
ATOM      3  N   UNL     1      -0.743  -0.776  -0.032  0.00  0.00    -0.244 NA
ATOM      4  C   UNL     1      -0.727  -2.125  -0.021  0.00  0.00    +0.080 A 
ATOM      5  C   UNL     1      -1.800  -3.040   0.009  0.00  0.00    +0.054 A 
ATOM      6  C   UNL     1      -1.559  -4.396   0.016  0.00  0.00    +0.060 A 
ATOM      7  C   UNL     1      -0.260  -4.900  -0.006  0.00  0.00    +0.148 A 
ATOM      8  C   UNL     1       0.809  -4.025  -0.036  0.00  0.00    +0.051 A 
ATOM      9  C   UNL     1       0.576  -2.671  -0.043  0.00  0.00    +0.041 A 
ATOM     10  S   UNL     1       1.586  -1.213  -0.084  0.00  0.00    -0.072 S 
ENDROOT
BRANCH   7  11
ATOM     11  N   UNL     1      -0.026  -6.362   0.003  0.00  0.00    +0.058 N 
ATOM     12  O   UNL     1       1.099  -6.794   0.096  0.00  0.00    -0.126 OA
ATOM     13  O   UNL     1      -0.961  -7.124  -0.083  0.00  0.00    -0.126 OA
ENDBRANCH   7  11
BRANCH   6  14
ATOM     14  N   UNL     1      -2.639  -5.285   0.046  0.00  0.00    -0.339 N 
ATOM     15  H   UNL     1      -2.485  -6.239  -0.032  0.00  0.00    +0.146 HD
BRANCH  14  16
ATOM     16  C   UNL     1      -4.004  -4.774   0.197  0.00  0.00    +0.077 C 
ATOM     17  C   UNL     1      -4.893  -5.433   1.253  0.00  0.00    +0.031 C 
ATOM     18  C   UNL     1      -5.152  -5.688  -0.234  0.00  0.00    -0.015 C 
ATOM     19  C   UNL     1      -6.384  -5.030  -0.859  0.00  0.00    +0.013 C 
ATOM     20  C   UNL     1      -4.788  -7.067  -0.788  0.00  0.00    +0.013 C 
ENDBRANCH  14  16
ENDBRANCH   6  14
TORSDOF 3
