REMARK  Name = ZINC18057954
REMARK  7 active torsions:
REMARK  status: ('A' for Active; 'I' for Inactive)
REMARK    1  A    between atoms: C_1  and  N_2
REMARK    2  A    between atoms: N_5  and  S_8
REMARK    3  A    between atoms: S_8  and  C_11
REMARK    4  A    between atoms: C_14  and  S_20
REMARK    5  A    between atoms: C_15  and  N_17
REMARK    6  A    between atoms: S_20  and  C_21
REMARK    7  A    between atoms: C_24  and  C_27
REMARK                            x       y       z     vdW  Elec       q    Type
REMARK                         _______ _______ _______ _____ _____    ______ ____
ROOT
ATOM      1  C   UNL     1      -0.494  -5.380   0.919  0.00  0.00    +0.108 A 
ATOM      2  C   UNL     1      -1.377  -6.048   0.086  0.00  0.00    +0.030 A 
ATOM      3  C   UNL     1      -0.988  -7.210  -0.545  0.00  0.00    +0.019 A 
ATOM      4  C   UNL     1       0.299  -7.714  -0.343  0.00  0.00    +0.046 A 
ATOM      5  C   UNL     1       1.185  -7.036   0.497  0.00  0.00    +0.142 A 
ATOM      6  C   UNL     1       0.786  -5.872   1.119  0.00  0.00    +0.062 A 
ENDROOT
BRANCH   1   7
ATOM      7  S   UNL     1      -0.998  -3.894   1.721  0.00  0.00    +0.061 S 
ATOM      8  O   UNL     1      -0.172  -3.752   2.869  0.00  0.00    -0.153 OA
ATOM      9  O   UNL     1      -2.416  -3.938   1.803  0.00  0.00    -0.153 OA
BRANCH   7  14
ATOM     10  C   UNL     1      -0.499   1.443  -0.260  0.00  0.00    +0.105 C 
ATOM     11  N   UNL     1      -0.396  -0.022  -0.222  0.00  0.00    -0.303 NA
ATOM     12  C   UNL     1      -1.726  -0.642  -0.148  0.00  0.00    +0.101 C 
ATOM     13  C   UNL     1      -1.587  -2.161  -0.292  0.00  0.00    +0.125 C 
ATOM     14  N   UNL     1      -0.621  -2.639   0.709  0.00  0.00    -0.174 NA
ATOM     15  C   UNL     1       0.688  -1.973   0.787  0.00  0.00    +0.125 C 
ATOM     16  C   UNL     1       0.459  -0.461   0.889  0.00  0.00    +0.101 C 
ENDBRANCH   7  14
ENDBRANCH   1   7
BRANCH   5  17
ATOM     17  N   UNL     1       2.551  -7.563   0.716  0.00  0.00    +0.058 N 
ATOM     18  O   UNL     1       3.384  -6.922   1.509  0.00  0.00    -0.126 OA
ATOM     19  O   UNL     1       2.932  -8.673   0.118  0.00  0.00    -0.126 OA
ENDBRANCH   5  17
BRANCH   4  20
ATOM     20  S   UNL     1       0.803  -9.199  -1.146  0.00  0.00    -0.050 S 
BRANCH  20  21
ATOM     21  C   UNL     1       0.719 -10.350   0.048  0.00  0.00    +0.172 A 
ATOM     22  N   UNL     1       0.252 -10.138   1.280  0.00  0.00    -0.222 NA
ATOM     23  H   UNL     1       1.489 -12.065  -0.892  0.00  0.00    +0.167 HD
ATOM     24  C   UNL     1       0.325 -11.260   1.976  0.00  0.00    +0.090 A 
ATOM     25  C   UNL     1       0.903 -12.283   1.074  0.00  0.00    +0.113 A 
ATOM     26  N   UNL     1       1.117 -11.663  -0.092  0.00  0.00    -0.339 N 
BRANCH  24  27
ATOM     27  C   UNL     1      -0.088 -11.454   3.373  0.00  0.00    +0.002 A 
ATOM     28  C   UNL     1       0.057 -12.710   3.983  0.00  0.00    +0.013 A 
ATOM     29  C   UNL     1      -0.328 -12.883   5.282  0.00  0.00    +0.039 A 
ATOM     30  C   UNL     1      -0.863 -11.819   6.000  0.00  0.00    +0.123 A 
ATOM     31  C   UNL     1      -1.010 -10.572   5.402  0.00  0.00    +0.039 A 
ATOM     32  C   UNL     1      -0.624 -10.382   4.106  0.00  0.00    +0.013 A 
ATOM     33  F   UNL     1      -1.242 -11.997   7.284  0.00  0.00    -0.205 F 
ENDBRANCH  24  27
ENDBRANCH  20  21
ENDBRANCH   4  20
TORSDOF 6
