REMARK  Name = ZINC44419281
REMARK  3 active torsions:
REMARK  status: ('A' for Active; 'I' for Inactive)
REMARK    1  A    between atoms: C_6  and  N_7
REMARK    2  A    between atoms: C_9  and  C_14
REMARK    3  A    between atoms: C_16  and  C_19
REMARK                            x       y       z     vdW  Elec       q    Type
REMARK                         _______ _______ _______ _____ _____    ______ ____
ROOT
ATOM      1  N   UNL     1      -1.202  -0.721   0.010  0.00  0.00    -0.271 N 
ATOM      2  C   UNL     1      -2.530  -0.108   0.127  0.00  0.00    +0.125 C 
ATOM      3  C   UNL     1      -3.481  -1.258   0.526  0.00  0.00    +0.087 C 
ATOM      4  C   UNL     1      -2.737  -2.492  -0.035  0.00  0.00    +0.109 C 
ATOM      5  C   UNL     1      -1.288  -2.058  -0.093  0.00  0.00    +0.221 C 
ATOM      6  O   UNL     1      -0.343  -2.809  -0.214  0.00  0.00    -0.275 OA
ENDROOT
BRANCH   1  12
ATOM      7  C   UNL     1       1.214  -0.682   0.002  0.00  0.00    +0.027 A 
ATOM      8  C   UNL     1       2.402   0.024  -0.007  0.00  0.00    +0.051 A 
ATOM      9  C   UNL     1       2.387   1.409  -0.015  0.00  0.00    +0.166 A 
ATOM     10  C   UNL     1       1.173   2.092  -0.015  0.00  0.00    +0.168 A 
ATOM     11  C   UNL     1      -0.017   1.384  -0.006  0.00  0.00    +0.073 A 
ATOM     12  C   UNL     1       0.002  -0.004   0.002  0.00  0.00    +0.040 A 
ATOM     13  O   UNL     1       1.427   3.433  -0.024  0.00  0.00    -0.453 OA
ATOM     14  C   UNL     1       2.801   3.568   0.383  0.00  0.00    +0.466 C 
ATOM     15  O   UNL     1       3.402   2.324  -0.024  0.00  0.00    -0.453 OA
ENDBRANCH   1  12
BRANCH   3  16
ATOM     16  C   UNL     1      -4.828  -1.096  -0.130  0.00  0.00    +0.177 A 
ATOM     17  N   UNL     1      -5.989  -0.960   0.513  0.00  0.00    -0.191 NA
ATOM     18  C   UNL     1      -6.973  -0.840  -0.356  0.00  0.00    +0.265 A 
ATOM     19  O   UNL     1      -6.443  -0.899  -1.592  0.00  0.00    -0.332 OA
ATOM     20  N   UNL     1      -5.043  -1.060  -1.415  0.00  0.00    -0.061 NA
BRANCH  18  21
ATOM     21  C   UNL     1      -8.395  -0.673  -0.033  0.00  0.00    +0.077 A 
ATOM     22  C   UNL     1      -9.473  -0.548  -0.888  0.00  0.00    +0.024 A 
ATOM     23  C   UNL     1     -10.724  -0.400  -0.301  0.00  0.00    -0.036 A 
ATOM     24  C   UNL     1     -10.763  -0.392   1.061  0.00  0.00    -0.006 A 
ATOM     25  S   UNL     1      -9.183  -0.586   1.564  0.00  0.00    -0.088 S 
ATOM     26  C   UNL     1     -11.983  -0.246   1.923  0.00  0.00    +0.043 C 
ATOM     27  C   UNL     1     -13.135   0.271   1.050  0.00  0.00    +0.005 C 
ATOM     28  C   UNL     1     -13.201  -0.570  -0.227  0.00  0.00    +0.005 C 
ATOM     29  C   UNL     1     -12.003  -0.252  -1.121  0.00  0.00    +0.036 C 
ENDBRANCH  18  21
ENDBRANCH   3  16
TORSDOF 3
