REMARK  Name = ZINC11874799
REMARK  7 active torsions:
REMARK  status: ('A' for Active; 'I' for Inactive)
REMARK    1  A    between atoms: C_4  and  C_7
REMARK    2  A    between atoms: C_7  and  N_61
REMARK    3  A    between atoms: C_13  and  C_15
REMARK    4  A    between atoms: C_15  and  C_16
REMARK    5  A    between atoms: N_18  and  C_19
REMARK    6  A    between atoms: C_19  and  C_20
REMARK    7  A    between atoms: C_20  and  N_21
REMARK                            x       y       z     vdW  Elec       q    Type
REMARK                         _______ _______ _______ _____ _____    ______ ____
ROOT
ATOM      1  C   UNL     1       6.900  -0.180  -6.242  0.00  0.00    -0.059 C 
ATOM      2  C   UNL     1       8.264  -0.873  -6.220  0.00  0.00    +0.085 C 
ATOM      3  N   UNL     1       8.245  -1.985  -5.275  0.00  0.00    -0.318 N 
ATOM      4  C   UNL     1       7.323  -2.106  -4.313  0.00  0.00    +0.200 C 
ATOM      5  O   UNL     1       7.400  -3.045  -3.550  0.00  0.00    -0.278 OA
ATOM      6  C   UNL     1       6.198  -1.126  -4.138  0.00  0.00    +0.028 C 
ATOM      7  H   UNL     1       8.931  -2.667  -5.347  0.00  0.00    +0.149 HD
ATOM      8  N   UNL     1       6.522   0.126  -4.848  0.00  0.00    +0.389 N 
ATOM      9  H   UNL     1       7.312   0.583  -4.379  0.00  0.00    -0.081 HD
ENDROOT
BRANCH   8  10
ATOM     10  C   UNL     1       5.356   1.037  -4.828  0.00  0.00    -0.074 C 
BRANCH  10  14
ATOM     11  C   UNL     1       6.040   5.309  -4.720  0.00  0.00    +0.000 C 
ATOM     12  C   UNL     1       5.056   4.762  -5.756  0.00  0.00    +0.000 C 
ATOM     13  C   UNL     1       4.599   3.363  -5.337  0.00  0.00    +0.002 C 
ATOM     14  C   UNL     1       5.813   2.436  -5.247  0.00  0.00    -0.028 C 
ATOM     15  C   UNL     1       6.797   2.983  -4.211  0.00  0.00    +0.002 C 
ATOM     16  C   UNL     1       7.254   4.382  -4.630  0.00  0.00    +0.000 C 
ENDBRANCH  10  14
ENDBRANCH   8  10
BRANCH   6  17
ATOM     17  C   UNL     1       6.016  -0.821  -2.650  0.00  0.00    +0.089 C 
BRANCH  17  18
ATOM     18  C   UNL     1       7.271  -0.182  -2.112  0.00  0.00    +0.212 C 
ATOM     19  O   UNL     1       8.180   0.098  -2.864  0.00  0.00    -0.276 OA
ATOM     20  N   UNL     1       7.383   0.078  -0.794  0.00  0.00    -0.314 N 
ATOM     21  H   UNL     1       6.656  -0.145  -0.192  0.00  0.00    +0.149 HD
BRANCH  20  22
ATOM     22  C   UNL     1       8.602   0.699  -0.271  0.00  0.00    +0.123 C 
BRANCH  22  23
ATOM     23  C   UNL     1       8.472   0.884   1.242  0.00  0.00    +0.126 C 
BRANCH  23  24
ATOM     24  N   UNL     1       9.691   1.504   1.766  0.00  0.00    -0.300 N 
ATOM     25  C   UNL     1      10.773   0.628   2.197  0.00  0.00    +0.108 C 
ATOM     26  C   UNL     1      12.093   1.397   2.258  0.00  0.00    +0.019 C 
ATOM     27  C   UNL     1      11.877   2.678   3.073  0.00  0.00    +0.011 C 
ATOM     28  C   UNL     1      10.948   3.602   2.280  0.00  0.00    +0.096 C 
ATOM     29  C   UNL     1       9.742   2.836   1.818  0.00  0.00    +0.216 C 
ATOM     30  O   UNL     1       8.763   3.462   1.469  0.00  0.00    -0.276 OA
ENDBRANCH  23  24
ENDBRANCH  22  23
ENDBRANCH  20  22
ENDBRANCH  17  18
ENDBRANCH   6  17
TORSDOF 7
