REMARK  Name = ZINC17641125
REMARK  9 active torsions:
REMARK  status: ('A' for Active; 'I' for Inactive)
REMARK    1  A    between atoms: C_1  and  C_2
REMARK    2  A    between atoms: C_3  and  C_33
REMARK    3  A    between atoms: C_11  and  C_13
REMARK    4  A    between atoms: C_13  and  S_14
REMARK    5  A    between atoms: S_14  and  C_15
REMARK    6  A    between atoms: C_15  and  C_17
REMARK    7  A    between atoms: C_15  and  C_18
REMARK    8  A    between atoms: N_20  and  N_21
REMARK    9  A    between atoms: C_22  and  C_24
REMARK                            x       y       z     vdW  Elec       q    Type
REMARK                         _______ _______ _______ _____ _____    ______ ____
ROOT
ATOM      1  C   UNL     1       2.558  -2.771  -0.037  0.00  0.00    +0.131 C 
ATOM      2  C   UNL     1       3.078  -2.918   1.394  0.00  0.00    +0.029 C 
ENDROOT
BRANCH   1   3
ATOM      3  C   UNL     1       1.243  -2.036  -0.021  0.00  0.00    +0.242 C 
ATOM      4  O   UNL     1       0.201  -2.656  -0.014  0.00  0.00    -0.273 OA
ATOM      5  N   UNL     1       1.225  -0.688  -0.013  0.00  0.00    -0.233 N 
ATOM      6  H   UNL     1       2.058  -0.192  -0.019  0.00  0.00    +0.173 HD
BRANCH   5   7
ATOM      7  N   UNL     1       0.002  -0.004   0.002  0.00  0.00    -0.230 N 
ATOM      8  C   UNL     1      -0.016   1.344   0.009  0.00  0.00    +0.260 C 
ATOM      9  O   UNL     1       1.028   1.966   0.003  0.00  0.00    -0.269 OA
ATOM     10  H   UNL     1      -0.831  -0.500   0.007  0.00  0.00    +0.173 HD
BRANCH   8  11
ATOM     11  C   UNL     1      -1.304   2.064   0.019  0.00  0.00    +0.042 A 
ATOM     12  C   UNL     1      -2.506   1.351   0.015  0.00  0.00    +0.017 A 
ATOM     13  C   UNL     1      -3.707   2.025   0.029  0.00  0.00    +0.050 A 
ATOM     14  C   UNL     1      -3.729   3.413   0.037  0.00  0.00    +0.166 A 
ATOM     15  C   UNL     1      -2.533   4.132   0.036  0.00  0.00    +0.167 A 
ATOM     16  C   UNL     1      -1.325   3.461   0.027  0.00  0.00    +0.062 A 
ATOM     17  O   UNL     1      -2.826   5.465   0.044  0.00  0.00    -0.453 OA
ATOM     18  C   UNL     1      -4.204   5.558  -0.362  0.00  0.00    +0.466 C 
ATOM     19  O   UNL     1      -4.767   4.298   0.047  0.00  0.00    -0.453 OA
ENDBRANCH   8  11
ENDBRANCH   5   7
ENDBRANCH   1   3
BRANCH   1  20
ATOM     20  S   UNL     1       2.322  -4.415  -0.767  0.00  0.00    -0.141 S 
BRANCH  20  21
ATOM     21  C   UNL     1       3.999  -5.102  -0.853  0.00  0.00    +0.144 C 
BRANCH  21  32
ATOM     22  C   UNL     1       4.713 -11.266  -3.392  0.00  0.00    +0.045 C 
ATOM     23  C   UNL     1       3.582 -10.307  -3.122  0.00  0.00    -0.026 A 
ATOM     24  C   UNL     1       2.318 -10.646  -3.422  0.00  0.00    -0.008 A 
ATOM     25  S   UNL     1       1.378  -9.215  -2.927  0.00  0.00    -0.073 S 
ATOM     26  C   UNL     1       2.709  -8.203  -2.333  0.00  0.00    +0.116 A 
ATOM     27  C   UNL     1       3.846  -9.007  -2.536  0.00  0.00    +0.075 A 
ATOM     28  C   UNL     1       5.093  -8.426  -2.135  0.00  0.00    +0.260 A 
ATOM     29  O   UNL     1       6.136  -9.044  -2.270  0.00  0.00    -0.267 OA
ATOM     30  N   UNL     1       5.097  -7.186  -1.612  0.00  0.00    -0.310 N 
ATOM     31  H   UNL     1       5.939  -6.786  -1.343  0.00  0.00    +0.170 HD
ATOM     32  C   UNL     1       3.946  -6.485  -1.449  0.00  0.00    +0.121 A 
ATOM     33  N   UNL     1       2.793  -6.986  -1.804  0.00  0.00    -0.226 NA
ATOM     34  C   UNL     1       1.815 -11.930  -4.031  0.00  0.00    +0.052 C 
ENDBRANCH  21  32
ENDBRANCH  20  21
ENDBRANCH   1  20
TORSDOF 6
