REMARK  Name = ZINC13572214
REMARK  9 active torsions:
REMARK  status: ('A' for Active; 'I' for Inactive)
REMARK    1  A    between atoms: C_5  and  C_7
REMARK    2  A    between atoms: N_11  and  C_15
REMARK    3  A    between atoms: C_15  and  C_16
REMARK    4  A    between atoms: C_16  and  C_17
REMARK    5  A    between atoms: N_19  and  C_20
REMARK    6  A    between atoms: C_20  and  C_21
REMARK    7  A    between atoms: C_21  and  C_22
REMARK    8  A    between atoms: C_25  and  O_29
REMARK    9  A    between atoms: C_26  and  O_28
REMARK                            x       y       z     vdW  Elec       q    Type
REMARK                         _______ _______ _______ _____ _____    ______ ____
ROOT
ATOM      1  C   UNL     1      -1.800  -1.069  -0.887  0.00  0.00    +0.115 C 
ENDROOT
BRANCH   1   2
ATOM      2  C   UNL     1      -3.112  -1.801  -0.769  0.00  0.00    +0.215 C 
ATOM      3  O   UNL     1      -3.606  -1.989   0.323  0.00  0.00    -0.276 OA
ATOM      4  N   UNL     1      -3.737  -2.247  -1.877  0.00  0.00    -0.315 N 
ATOM      5  H   UNL     1      -3.342  -2.096  -2.750  0.00  0.00    +0.149 HD
BRANCH   4   6
ATOM      6  C   UNL     1      -5.013  -2.958  -1.763  0.00  0.00    +0.109 C 
BRANCH   6   7
ATOM      7  C   UNL     1      -5.503  -3.352  -3.157  0.00  0.00    +0.054 C 
BRANCH   7   8
ATOM      8  C   UNL     1      -6.816  -4.083  -3.039  0.00  0.00    -0.042 A 
ATOM      9  C   UNL     1      -6.829  -5.459  -2.904  0.00  0.00    +0.007 A 
ATOM     10  C   UNL     1      -8.030  -6.135  -2.790  0.00  0.00    +0.049 A 
ATOM     11  C   UNL     1      -9.224  -5.433  -2.823  0.00  0.00    +0.158 A 
ATOM     12  C   UNL     1      -9.211  -4.049  -2.965  0.00  0.00    +0.158 A 
ATOM     13  C   UNL     1      -8.004  -3.378  -3.073  0.00  0.00    +0.052 A 
BRANCH  12  14
ATOM     14  O   UNL     1     -10.382  -3.357  -2.997  0.00  0.00    -0.503 OA
ATOM     15  H   UNL     1     -10.749  -3.246  -3.884  0.00  0.00    +0.292 HD
ENDBRANCH  12  14
BRANCH  11  16
ATOM     16  O   UNL     1     -10.407  -6.097  -2.717  0.00  0.00    -0.503 OA
ATOM     17  H   UNL     1     -10.777  -6.378  -3.565  0.00  0.00    +0.292 HD
ENDBRANCH  11  16
ENDBRANCH   7   8
ENDBRANCH   6   7
ENDBRANCH   4   6
ENDBRANCH   1   2
BRANCH   1  18
ATOM     18  C   UNL     1      -1.309  -0.675   0.508  0.00  0.00    +0.127 C 
BRANCH  18  23
ATOM     19  C   UNL     1       1.584   3.323   0.004  0.00  0.00    +0.029 C 
ATOM     20  C   UNL     1       1.282   2.009   0.149  0.00  0.00    +0.080 C 
ATOM     21  C   UNL     1      -0.037   1.351   0.259  0.00  0.00    +0.260 C 
ATOM     22  O   UNL     1      -1.073   1.988   0.223  0.00  0.00    -0.269 OA
ATOM     23  N   UNL     1      -0.033   0.036   0.393  0.00  0.00    -0.228 N 
ATOM     24  C   UNL     1       1.118  -0.666   0.427  0.00  0.00    +0.286 C 
ATOM     25  O   UNL     1       1.266  -1.867   0.544  0.00  0.00    -0.262 OA
ATOM     26  S   UNL     1       2.371   0.595   0.257  0.00  0.00    -0.026 S 
BRANCH  19  31
ATOM     27  C   UNL     1       5.250   3.376   0.787  0.00  0.00    +0.001 A 
ATOM     28  C   UNL     1       5.612   4.618   0.294  0.00  0.00    +0.001 A 
ATOM     29  C   UNL     1       4.667   5.440  -0.294  0.00  0.00    +0.020 A 
ATOM     30  C   UNL     1       3.353   5.027  -0.392  0.00  0.00    +0.048 A 
ATOM     31  C   UNL     1       2.980   3.772   0.104  0.00  0.00    -0.005 A 
ATOM     32  C   UNL     1       3.942   2.950   0.702  0.00  0.00    +0.009 A 
ATOM     33 CL   UNL     1       2.168   6.060  -1.129  0.00  0.00    -0.083 Cl
ENDBRANCH  19  31
ENDBRANCH  18  23
ENDBRANCH   1  18
TORSDOF 9
