REMARK  Name = ZINC32118999
REMARK  4 active torsions:
REMARK  status: ('A' for Active; 'I' for Inactive)
REMARK    1  A    between atoms: C_3  and  C_6
REMARK    2  A    between atoms: N_8  and  N_9
REMARK    3  A    between atoms: C_10  and  C_12
REMARK    4  A    between atoms: C_14  and  N_19
REMARK                            x       y       z     vdW  Elec       q    Type
REMARK                         _______ _______ _______ _____ _____    ______ ____
ROOT
ATOM      1  N   UNL     1       4.888   1.786  -0.034  0.00  0.00    -0.230 N 
ATOM      2  C   UNL     1       5.900   2.676  -0.039  0.00  0.00    +0.261 C 
ATOM      3  O   UNL     1       5.662   3.868  -0.031  0.00  0.00    -0.269 OA
ATOM      4  H   UNL     1       5.103   0.707  -0.041  0.00  0.00    +0.173 HD
ENDROOT
BRANCH   2   5
ATOM      5  C   UNL     1       7.300   2.202  -0.054  0.00  0.00    +0.054 A 
ATOM      6  C   UNL     1       7.577   0.834  -0.058  0.00  0.00    +0.047 A 
ATOM      7  C   UNL     1       8.886   0.398  -0.077  0.00  0.00    +0.127 A 
ATOM      8  C   UNL     1       9.924   1.314  -0.082  0.00  0.00    +0.034 A 
ATOM      9  C   UNL     1       9.657   2.671  -0.074  0.00  0.00    +0.018 A 
ATOM     10  C   UNL     1       8.351   3.121  -0.059  0.00  0.00    +0.030 A 
ATOM     11 BR   UNL     1       7.989   4.977  -0.048  0.00  0.00    -0.050 Br
BRANCH   7  12
ATOM     12  N   UNL     1       9.181  -1.052  -0.085  0.00  0.00    +0.056 N 
ATOM     13  O   UNL     1      10.336  -1.438  -0.097  0.00  0.00    -0.126 OA
ATOM     14  O   UNL     1       8.269  -1.859  -0.080  0.00  0.00    -0.126 OA
ENDBRANCH   7  12
ENDBRANCH   2   5
BRANCH   1  17
ATOM     15  C   UNL     1       2.548   1.345  -0.014  0.00  0.00    +0.267 C 
ATOM     16  O   UNL     1       2.787   0.152  -0.022  0.00  0.00    -0.268 OA
ATOM     17  N   UNL     1       3.561   2.235  -0.019  0.00  0.00    -0.230 N 
ATOM     18  H   UNL     1       3.345   3.314  -0.012  0.00  0.00    +0.173 HD
BRANCH  15  21
ATOM     19  C   UNL     1      -1.193   1.776   0.017  0.00  0.00    +0.008 A 
ATOM     20  C   UNL     1      -0.013   1.076   0.008  0.00  0.00    +0.021 A 
ATOM     21  C   UNL     1       1.160   1.815   0.001  0.00  0.00    +0.075 A 
ATOM     22  S   UNL     1       0.539   3.487   0.016  0.00  0.00    -0.092 S 
ATOM     23  C   UNL     1      -1.159   3.135   0.030  0.00  0.00    +0.046 A 
ENDBRANCH  15  21
ENDBRANCH   1  17
TORSDOF 4
