REMARK  Name = ZINC27697111
REMARK  13 active torsions:
REMARK  status: ('A' for Active; 'I' for Inactive)
REMARK    1  A    between atoms: C_1  and  C_2
REMARK    2  A    between atoms: C_2  and  C_3
REMARK    3  A    between atoms: C_2  and  N_4
REMARK    4  A    between atoms: N_4  and  C_5
REMARK    5  A    between atoms: N_4  and  C_12
REMARK    6  A    between atoms: C_5  and  C_6
REMARK    7  A    between atoms: C_12  and  C_13
REMARK    8  A    between atoms: C_13  and  C_15
REMARK    9  A    between atoms: C_13  and  O_38
REMARK   10  A    between atoms: C_15  and  N_16
REMARK   11  A    between atoms: C_24  and  C_25
REMARK   12  A    between atoms: C_25  and  C_26
REMARK   13  A    between atoms: C_29  and  C_32
REMARK                            x       y       z     vdW  Elec       q    Type
REMARK                         _______ _______ _______ _____ _____    ______ ____
ROOT
ATOM      1  N   UNL     1      -2.615  -3.718   1.417  0.00  0.00    -0.325 N 
ATOM      2  C   UNL     1      -2.898  -4.694   0.483  0.00  0.00    +0.069 A 
ATOM      3  C   UNL     1      -3.218  -4.677  -0.868  0.00  0.00    +0.028 A 
ATOM      4  C   UNL     1      -3.450  -5.863  -1.530  0.00  0.00    +0.002 A 
ATOM      5  C   UNL     1      -3.365  -7.073  -0.856  0.00  0.00    +0.002 A 
ATOM      6  C   UNL     1      -3.044  -7.110   0.471  0.00  0.00    +0.030 A 
ATOM      7  C   UNL     1      -2.809  -5.920   1.164  0.00  0.00    +0.089 A 
ATOM      8  N   UNL     1      -2.493  -5.634   2.453  0.00  0.00    -0.232 NA
ATOM      9  C   UNL     1      -2.379  -4.346   2.600  0.00  0.00    +0.115 A 
ENDROOT
BRANCH   1  10
ATOM     10  C   UNL     1      -2.581  -2.273   1.179  0.00  0.00    +0.153 C 
BRANCH  10  11
ATOM     11  C   UNL     1      -1.167  -1.856   0.771  0.00  0.00    +0.118 C 
BRANCH  11  12
ATOM     12  O   UNL     1      -0.271  -2.081   1.861  0.00  0.00    -0.392 OA
ATOM     13  H   UNL     1      -0.142  -3.095   2.267  0.00  0.00    +0.210 HD
ENDBRANCH  11  12
BRANCH  11  14
ATOM     14  C   UNL     1      -1.159  -0.371   0.402  0.00  0.00    -0.045 C 
BRANCH  14  15
ATOM     15  N   UNL     1       0.156  -0.009  -0.144  0.00  0.00    +0.386 N 
ATOM     16  H   UNL     1       0.488  -0.830  -0.797  0.00  0.00    -0.081 HD
BRANCH  15  18
ATOM     17  C   UNL     1      -0.767   0.929  -2.210  0.00  0.00    -0.014 C 
ATOM     18  C   UNL     1       0.069   1.210  -0.960  0.00  0.00    -0.074 C 
ATOM     19  C   UNL     1      -0.590   2.324  -0.144  0.00  0.00    -0.014 C 
ENDBRANCH  15  18
BRANCH  15  20
ATOM     20  C   UNL     1       1.147   0.144   0.929  0.00  0.00    -0.043 C 
BRANCH  20  21
ATOM     21  C   UNL     1       2.529   0.209   0.330  0.00  0.00    -0.064 A 
ATOM     22  C   UNL     1       3.257  -0.951   0.145  0.00  0.00    +0.002 A 
ATOM     23  C   UNL     1       4.523  -0.891  -0.409  0.00  0.00    +0.000 A 
ATOM     24  C   UNL     1       5.063   0.329  -0.768  0.00  0.00    +0.000 A 
ATOM     25  C   UNL     1       4.337   1.490  -0.578  0.00  0.00    +0.000 A 
ATOM     26  C   UNL     1       3.070   1.430  -0.029  0.00  0.00    +0.002 A 
ENDBRANCH  20  21
ENDBRANCH  15  20
ENDBRANCH  14  15
ENDBRANCH  11  14
ENDBRANCH  10  11
ENDBRANCH   1  10
BRANCH   9  27
ATOM     27  C   UNL     1      -2.037  -3.651   3.893  0.00  0.00    +0.109 C 
BRANCH  27  28
ATOM     28  C   UNL     1      -3.305  -3.335   4.644  0.00  0.00    -0.040 A 
ATOM     29  C   UNL     1      -3.945  -2.126   4.438  0.00  0.00    +0.004 A 
ATOM     30  C   UNL     1      -5.109  -1.834   5.120  0.00  0.00    +0.009 A 
ATOM     31  C   UNL     1      -5.633  -2.754   6.025  0.00  0.00    -0.018 A 
ATOM     32  C   UNL     1      -4.982  -3.968   6.232  0.00  0.00    +0.009 A 
ATOM     33  C   UNL     1      -3.821  -4.253   5.542  0.00  0.00    +0.004 A 
BRANCH  31  34
ATOM     34  C   UNL     1      -6.881  -2.442   6.765  0.00  0.00    -0.018 A 
ATOM     35  C   UNL     1      -7.408  -3.365   7.666  0.00  0.00    +0.008 A 
ATOM     36  C   UNL     1      -8.567  -3.068   8.356  0.00  0.00    +0.001 A 
ATOM     37  C   UNL     1      -9.209  -1.861   8.146  0.00  0.00    +0.000 A 
ATOM     38  C   UNL     1      -8.693  -0.944   7.248  0.00  0.00    +0.001 A 
ATOM     39  C   UNL     1      -7.532  -1.228   6.557  0.00  0.00    +0.008 A 
ENDBRANCH  31  34
ENDBRANCH  27  28
ENDBRANCH   9  27
TORSDOF 11
