REMARK  Name = ZINC47912882
REMARK  9 active torsions:
REMARK  status: ('A' for Active; 'I' for Inactive)
REMARK    1  A    between atoms: C_1  and  C_2
REMARK    2  A    between atoms: C_7  and  C_8
REMARK    3  A    between atoms: C_8  and  C_9
REMARK    4  A    between atoms: C_8  and  N_10
REMARK    5  A    between atoms: N_13  and  C_14
REMARK    6  A    between atoms: C_14  and  C_15
REMARK    7  A    between atoms: C_14  and  C_16
REMARK    8  A    between atoms: C_19  and  N_22
REMARK    9  A    between atoms: N_25  and  C_26
REMARK                            x       y       z     vdW  Elec       q    Type
REMARK                         _______ _______ _______ _____ _____    ______ ____
ROOT
ATOM      1  C   UNL     1       2.353  -0.383   6.741  0.00  0.00    +0.102 C 
ATOM      2  C   UNL     1       3.793  -0.161   6.272  0.00  0.00    +0.033 C 
ENDROOT
BRANCH   1   6
ATOM      3  N   UNL     1       0.269  -0.600   3.720  0.00  0.00    -0.293 N 
ATOM      4  C   UNL     1       1.000  -0.098   4.735  0.00  0.00    +0.301 C 
ATOM      5  O   UNL     1       1.154   1.103   4.837  0.00  0.00    -0.253 OA
ATOM      6  N   UNL     1       1.559  -0.929   5.638  0.00  0.00    -0.293 N 
ATOM      7  H   UNL     1       0.145  -1.559   3.639  0.00  0.00    +0.151 HD
ATOM      8  H   UNL     1       1.435  -1.887   5.556  0.00  0.00    +0.151 HD
BRANCH   3   9
ATOM      9  C   UNL     1      -0.340   0.302   2.740  0.00  0.00    +0.102 C 
ATOM     10  C   UNL     1      -1.686   0.799   3.270  0.00  0.00    +0.033 C 
BRANCH   9  17
ATOM     11  C   UNL     1      -0.466   1.765   0.251  0.00  0.00    +0.044 C 
ATOM     12  C   UNL     1      -0.612   0.265   0.252  0.00  0.00    -0.046 A 
ATOM     13  C   UNL     1      -0.800  -0.411  -0.939  0.00  0.00    +0.004 A 
ATOM     14  C   UNL     1      -0.934  -1.787  -0.939  0.00  0.00    +0.000 A 
ATOM     15  C   UNL     1      -0.878  -2.487   0.253  0.00  0.00    +0.000 A 
ATOM     16  C   UNL     1      -0.689  -1.810   1.443  0.00  0.00    +0.006 A 
ATOM     17  C   UNL     1      -0.551  -0.434   1.442  0.00  0.00    -0.025 A 
ENDBRANCH   9  17
ENDBRANCH   3   9
ENDBRANCH   1   6
BRANCH   1  18
ATOM     18  C   UNL     1       2.345  -1.354   7.894  0.00  0.00    -0.027 A 
ATOM     19  C   UNL     1       2.447  -2.712   7.653  0.00  0.00    +0.007 A 
ATOM     20  C   UNL     1       2.439  -3.604   8.707  0.00  0.00    +0.023 A 
ATOM     21  C   UNL     1       2.330  -3.136  10.010  0.00  0.00    +0.035 A 
ATOM     22  C   UNL     1       2.229  -1.772  10.248  0.00  0.00    +0.023 A 
ATOM     23  C   UNL     1       2.242  -0.885   9.190  0.00  0.00    +0.007 A 
BRANCH  21  24
ATOM     24  N   UNL     1       2.322  -4.038  11.080  0.00  0.00    -0.269 N 
ATOM     25  C   UNL     1       3.042  -5.176  11.008  0.00  0.00    +0.304 C 
ATOM     26  O   UNL     1       3.773  -5.374  10.057  0.00  0.00    -0.253 OA
ATOM     27  N   UNL     1       2.951  -6.093  11.991  0.00  0.00    -0.296 N 
ATOM     28  H   UNL     1       1.799  -3.844  11.874  0.00  0.00    +0.156 HD
ATOM     29  H   UNL     1       2.368  -5.936  12.750  0.00  0.00    +0.151 HD
BRANCH  27  30
ATOM     30  C   UNL     1       3.733  -7.330  11.913  0.00  0.00    +0.075 C 
ATOM     31  C   UNL     1       3.026  -8.637  12.278  0.00  0.00    +0.024 C 
ATOM     32  C   UNL     1       4.066  -8.039  13.227  0.00  0.00    +0.024 C 
ENDBRANCH  27  30
ENDBRANCH  21  24
ENDBRANCH   1  18
TORSDOF 6
