REMARK  Name = ZINC06624239
REMARK  10 active torsions:
REMARK  status: ('A' for Active; 'I' for Inactive)
REMARK    1  A    between atoms: C_1  and  C_2
REMARK    2  A    between atoms: C_2  and  C_3
REMARK    3  A    between atoms: C_2  and  C_4
REMARK    4  A    between atoms: C_7  and  N_10
REMARK    5  A    between atoms: C_11  and  C_13
REMARK    6  A    between atoms: C_13  and  O_14
REMARK    7  A    between atoms: O_14  and  C_15
REMARK    8  A    between atoms: C_17  and  O_28
REMARK    9  A    between atoms: C_22  and  C_26
REMARK   10  A    between atoms: C_22  and  C_27
REMARK                            x       y       z     vdW  Elec       q    Type
REMARK                         _______ _______ _______ _____ _____    ______ ____
ROOT
ATOM      1  O   UNL     1      -3.262   6.139   6.299  0.00  0.00    -0.483 OA
ENDROOT
BRANCH   1   2
ATOM      2  C   UNL     1      -3.770   6.735   7.408  0.00  0.00    +0.128 A 
ATOM      3  C   UNL     1      -4.322   5.954   8.416  0.00  0.00    +0.092 A 
ATOM      4  C   UNL     1      -4.840   6.552   9.551  0.00  0.00    +0.134 A 
ATOM      5  C   UNL     1      -4.814   7.951   9.668  0.00  0.00    +0.101 A 
ATOM      6  C   UNL     1      -4.253   8.738   8.646  0.00  0.00    +0.139 A 
ATOM      7  C   UNL     1      -3.737   8.119   7.521  0.00  0.00    +0.092 A 
ATOM      8  O   UNL     1      -4.208  10.086   8.755  0.00  0.00    -0.485 OA
ATOM      9  C   UNL     1      -5.131  10.733   9.632  0.00  0.00    +0.112 C 
ATOM     10  C   UNL     1      -5.051  10.086  11.022  0.00  0.00    +0.127 C 
ATOM     11  C   UNL     1      -5.375   8.613  10.851  0.00  0.00    +0.174 C 
ATOM     12  O   UNL     1      -6.062   8.014  11.652  0.00  0.00    -0.292 OA
ATOM     13  C   UNL     1      -4.778  12.218   9.738  0.00  0.00    +0.056 C 
ATOM     14  C   UNL     1      -6.550  10.584   9.080  0.00  0.00    +0.056 C 
BRANCH   4  15
ATOM     15  O   UNL     1      -5.373   5.793  10.540  0.00  0.00    -0.506 OA
ATOM     16  H   UNL     1      -6.319   5.620  10.437  0.00  0.00    +0.292 HD
ENDBRANCH   4  15
ENDBRANCH   1   2
BRANCH   1  17
ATOM     17  C   UNL     1      -3.325   4.713   6.243  0.00  0.00    +0.324 C 
BRANCH  17  19
ATOM     18  N   UNL     1      -2.668   2.915   4.676  0.00  0.00    -0.283 N 
ATOM     19  C   UNL     1      -2.719   4.234   4.949  0.00  0.00    +0.255 C 
ATOM     20  O   UNL     1      -2.277   5.036   4.153  0.00  0.00    -0.272 OA
ATOM     21  H   UNL     1      -3.089   2.279   5.275  0.00  0.00    +0.155 HD
BRANCH  18  25
ATOM     22  C   UNL     1      -0.701   1.570   1.258  0.00  0.00    -0.045 A 
ATOM     23  C   UNL     1      -1.819   0.900   1.720  0.00  0.00    +0.006 A 
ATOM     24  C   UNL     1      -2.471   1.340   2.855  0.00  0.00    +0.023 A 
ATOM     25  C   UNL     1      -2.008   2.464   3.528  0.00  0.00    +0.034 A 
ATOM     26  C   UNL     1      -0.888   3.138   3.058  0.00  0.00    +0.023 A 
ATOM     27  C   UNL     1      -0.238   2.689   1.925  0.00  0.00    +0.006 A 
BRANCH  22  29
ATOM     28  C   UNL     1      -0.956   1.103  -1.164  0.00  0.00    +0.012 C 
ATOM     29  C   UNL     1       0.010   1.083   0.022  0.00  0.00    +0.013 C 
ATOM     30  C   UNL     1       0.508  -0.346   0.250  0.00  0.00    +0.012 C 
ENDBRANCH  22  29
ENDBRANCH  18  25
ENDBRANCH  17  19
ENDBRANCH   1  17
TORSDOF 6
