REMARK  Name = ZINC12051643
REMARK  6 active torsions:
REMARK  status: ('A' for Active; 'I' for Inactive)
REMARK    1  A    between atoms: C_8  and  N_52
REMARK    2  A    between atoms: C_15  and  C_17
REMARK    3  A    between atoms: C_17  and  C_18
REMARK    4  A    between atoms: N_20  and  C_21
REMARK    5  A    between atoms: C_21  and  C_22
REMARK    6  A    between atoms: C_22  and  C_23
REMARK                            x       y       z     vdW  Elec       q    Type
REMARK                         _______ _______ _______ _____ _____    ______ ____
ROOT
ATOM      1  C   UNL     1      -1.556   3.236   1.682  0.00  0.00    -0.058 C 
ATOM      2  C   UNL     1      -2.465   3.460   2.892  0.00  0.00    +0.085 C 
ATOM      3  N   UNL     1      -3.558   2.493   2.883  0.00  0.00    -0.318 N 
ATOM      4  C   UNL     1      -3.526   1.365   2.166  0.00  0.00    +0.200 C 
ATOM      5  O   UNL     1      -4.465   0.602   2.240  0.00  0.00    -0.278 OA
ATOM      6  C   UNL     1      -2.374   1.004   1.271  0.00  0.00    +0.028 C 
ATOM      7  H   UNL     1      -4.344   2.677   3.421  0.00  0.00    +0.149 HD
ATOM      8  N   UNL     1      -1.192   1.805   1.643  0.00  0.00    +0.391 N 
ATOM      9  H   UNL     1      -0.869   1.515   2.573  0.00  0.00    -0.080 HD
ENDROOT
BRANCH   8  17
ATOM     10  C   UNL     1       1.757   5.929   0.140  0.00  0.00    +0.000 A 
ATOM     11  C   UNL     1       0.854   5.969  -0.907  0.00  0.00    +0.000 A 
ATOM     12  C   UNL     1       0.126   4.842  -1.232  0.00  0.00    +0.004 A 
ATOM     13  C   UNL     1       0.296   3.671  -0.512  0.00  0.00    -0.046 A 
ATOM     14  C   UNL     1       1.198   3.631   0.534  0.00  0.00    -0.046 A 
ATOM     15  C   UNL     1       1.928   4.762   0.858  0.00  0.00    +0.004 A 
ATOM     16  C   UNL     1       1.201   2.250   1.155  0.00  0.00    +0.020 C 
ATOM     17  C   UNL     1      -0.102   1.584   0.665  0.00  0.00    -0.059 C 
ATOM     18  C   UNL     1      -0.370   2.320  -0.666  0.00  0.00    +0.020 C 
ENDBRANCH   8  17
BRANCH   6  19
ATOM     19  C   UNL     1      -2.043  -0.480   1.443  0.00  0.00    +0.089 C 
BRANCH  19  20
ATOM     20  C   UNL     1      -1.591  -0.733   2.858  0.00  0.00    +0.212 C 
ATOM     21  O   UNL     1      -1.443   0.196   3.623  0.00  0.00    -0.276 OA
ATOM     22  N   UNL     1      -1.351  -1.993   3.274  0.00  0.00    -0.315 N 
ATOM     23  H   UNL     1      -1.470  -2.736   2.662  0.00  0.00    +0.149 HD
BRANCH  22  24
ATOM     24  C   UNL     1      -0.912  -2.239   4.649  0.00  0.00    +0.112 C 
BRANCH  24  25
ATOM     25  C   UNL     1      -0.713  -3.741   4.860  0.00  0.00    +0.093 C 
BRANCH  25  26
ATOM     26  C   UNL     1      -0.261  -3.994   6.275  0.00  0.00    +0.106 A 
ATOM     27  C   UNL     1      -1.066  -4.215   7.330  0.00  0.00    +0.044 A 
ATOM     28  C   UNL     1      -0.227  -4.405   8.452  0.00  0.00    +0.041 A 
ATOM     29  C   UNL     1       1.040  -4.281   8.017  0.00  0.00    +0.195 A 
ATOM     30  O   UNL     1       1.013  -4.032   6.698  0.00  0.00    -0.468 OA
ENDBRANCH  25  26
ENDBRANCH  24  25
ENDBRANCH  22  24
ENDBRANCH  19  20
ENDBRANCH   6  19
TORSDOF 6
