REMARK  Name = ZINC09173816
REMARK  7 active torsions:
REMARK  status: ('A' for Active; 'I' for Inactive)
REMARK    1  A    between atoms: C_1  and  C_2
REMARK    2  A    between atoms: C_7  and  C_8
REMARK    3  A    between atoms: C_8  and  S_9
REMARK    4  A    between atoms: S_9  and  N_12
REMARK    5  A    between atoms: N_12  and  C_13
REMARK    6  A    between atoms: C_22  and  C_25
REMARK    7  A    between atoms: C_22  and  C_26
REMARK                            x       y       z     vdW  Elec       q    Type
REMARK                         _______ _______ _______ _____ _____    ______ ____
ROOT
ATOM      1  C   UNL     1      -0.026  -2.360   0.967  0.00  0.00    +0.050 A 
ATOM      2  C   UNL     1       0.054  -1.544   2.087  0.00  0.00    +0.028 A 
ATOM      3  C   UNL     1       0.175  -0.174   1.941  0.00  0.00    +0.049 A 
ATOM      4  C   UNL     1       0.215   0.387   0.676  0.00  0.00    +0.142 A 
ATOM      5  C   UNL     1       0.131  -0.430  -0.450  0.00  0.00    +0.077 A 
ATOM      6  C   UNL     1       0.013  -1.802  -0.304  0.00  0.00    +0.051 A 
ATOM      7  N   UNL     1       0.160   0.152  -1.724  0.00  0.00    -0.282 N 
ATOM      8  C   UNL     1       1.120   1.057  -2.017  0.00  0.00    +0.226 C 
ATOM      9  O   UNL     1       1.121   1.617  -3.093  0.00  0.00    -0.275 OA
ATOM     10  C   UNL     1       2.189   1.367  -1.001  0.00  0.00    +0.076 C 
ATOM     11  C   UNL     1       1.612   2.230   0.120  0.00  0.00    +0.244 C 
ATOM     12  O   UNL     1       0.339   1.733   0.524  0.00  0.00    -0.489 OA
ATOM     13  C   UNL     1       2.724   0.061  -0.412  0.00  0.00    +0.024 C 
ATOM     14  C   UNL     1       3.332   2.123  -1.682  0.00  0.00    +0.024 C 
ATOM     15  H   UNL     1      -0.502  -0.093  -2.390  0.00  0.00    +0.155 HD
ENDROOT
BRANCH   1  16
ATOM     16  N   UNL     1      -0.146  -3.746   1.119  0.00  0.00    -0.220 N 
ATOM     17  H   UNL     1       0.393  -4.342   0.576  0.00  0.00    +0.173 HD
BRANCH  16  18
ATOM     18  S   UNL     1      -1.210  -4.369   2.225  0.00  0.00    +0.047 S 
ATOM     19  O   UNL     1      -1.052  -5.777   2.127  0.00  0.00    -0.155 OA
ATOM     20  O   UNL     1      -0.913  -3.689   3.437  0.00  0.00    -0.155 OA
BRANCH  18  21
ATOM     21  C   UNL     1      -2.850  -3.880   1.621  0.00  0.00    +0.224 C 
BRANCH  21  28
ATOM     22  C   UNL     1      -3.721  -2.262   3.850  0.00  0.00    +0.044 C 
ATOM     23  C   UNL     1      -4.324  -3.625   3.628  0.00  0.00    -0.046 A 
ATOM     24  C   UNL     1      -5.293  -4.101   4.490  0.00  0.00    +0.003 A 
ATOM     25  C   UNL     1      -5.846  -5.351   4.286  0.00  0.00    +0.000 A 
ATOM     26  C   UNL     1      -5.429  -6.126   3.220  0.00  0.00    +0.000 A 
ATOM     27  C   UNL     1      -4.463  -5.648   2.354  0.00  0.00    +0.005 A 
ATOM     28  C   UNL     1      -3.907  -4.399   2.561  0.00  0.00    -0.022 A 
ENDBRANCH  21  28
ENDBRANCH  18  21
ENDBRANCH  16  18
ENDBRANCH   1  16
TORSDOF 4
