REMARK  Name = ZINC66821413
REMARK  5 active torsions:
REMARK  status: ('A' for Active; 'I' for Inactive)
REMARK    1  A    between atoms: C_6  and  C_7
REMARK    2  A    between atoms: C_9  and  C_12
REMARK    3  A    between atoms: N_14  and  C_15
REMARK    4  A    between atoms: C_15  and  C_16
REMARK    5  A    between atoms: C_15  and  C_19
REMARK                            x       y       z     vdW  Elec       q    Type
REMARK                         _______ _______ _______ _____ _____    ______ ____
ROOT
ATOM      1  C   UNL     1      -3.163  -3.342   0.409  0.00  0.00    +0.109 A 
ATOM      2  N   UNL     1      -3.947  -2.280   0.343  0.00  0.00    -0.234 NA
ATOM      3  C   UNL     1      -5.254  -2.467   0.211  0.00  0.00    +0.133 A 
ATOM      4  C   UNL     1      -5.741  -3.745   0.149  0.00  0.00    +0.080 A 
ATOM      5  S   UNL     1      -4.342  -4.674   0.272  0.00  0.00    -0.075 S 
ENDROOT
BRANCH   1  11
ATOM      6  C   UNL     1      -0.946  -2.234   0.646  0.00  0.00    +0.014 A 
ATOM      7  C   UNL     1       0.425  -2.299   0.780  0.00  0.00    +0.050 A 
ATOM      8  C   UNL     1       1.066  -3.530   0.824  0.00  0.00    +0.162 A 
ATOM      9  C   UNL     1       0.325  -4.705   0.735  0.00  0.00    +0.163 A 
ATOM     10  C   UNL     1      -1.050  -4.646   0.599  0.00  0.00    +0.060 A 
ATOM     11  C   UNL     1      -1.694  -3.408   0.554  0.00  0.00    +0.011 A 
ATOM     12  O   UNL     1       0.938  -5.920   0.784  0.00  0.00    -0.485 OA
ATOM     13  C   UNL     1       2.350  -5.939   0.547  0.00  0.00    +0.270 C 
ATOM     14  C   UNL     1       2.991  -4.815   1.372  0.00  0.00    +0.270 C 
ATOM     15  O   UNL     1       2.421  -3.570   0.952  0.00  0.00    -0.485 OA
ENDBRANCH   1  11
BRANCH   3  16
ATOM     16  C   UNL     1      -6.168  -1.315   0.133  0.00  0.00    +0.264 C 
ATOM     17  O   UNL     1      -7.365  -1.495   0.013  0.00  0.00    -0.268 OA
ATOM     18  N   UNL     1      -5.679  -0.060   0.195  0.00  0.00    -0.291 N 
ATOM     19  H   UNL     1      -4.724   0.084   0.291  0.00  0.00    +0.150 HD
BRANCH  18  20
ATOM     20  C   UNL     1      -6.588   1.085   0.117  0.00  0.00    +0.245 C 
BRANCH  20  21
ATOM     21  C   UNL     1      -5.957   2.274   0.796  0.00  0.00    +0.240 C 
ATOM     22  O   UNL     1      -4.750   2.360   0.871  0.00  0.00    -0.273 OA
ATOM     23  N   UNL     1      -6.735   3.242   1.319  0.00  0.00    -0.327 N 
ATOM     24  H   UNL     1      -7.700   3.140   1.324  0.00  0.00    +0.145 HD
ATOM     25  H   UNL     1      -6.331   4.041   1.692  0.00  0.00    +0.145 HD
ENDBRANCH  20  21
BRANCH  20  26
ATOM     26  C   UNL     1      -6.857   1.416  -1.328  0.00  0.00    +0.240 C 
ATOM     27  O   UNL     1      -6.059   1.094  -2.183  0.00  0.00    -0.273 OA
ATOM     28  N   UNL     1      -7.984   2.071  -1.671  0.00  0.00    -0.327 N 
ATOM     29  H   UNL     1      -8.656   2.266  -0.999  0.00  0.00    +0.145 HD
ATOM     30  H   UNL     1      -8.124   2.346  -2.591  0.00  0.00    +0.145 HD
ENDBRANCH  20  26
ENDBRANCH  18  20
ENDBRANCH   3  16
TORSDOF 5
