REMARK  Name = ZINC03533055
REMARK  8 active torsions:
REMARK  status: ('A' for Active; 'I' for Inactive)
REMARK    1  A    between atoms: C_1  and  C_2
REMARK    2  A    between atoms: C_10  and  C_11
REMARK    3  A    between atoms: C_11  and  O_13
REMARK    4  A    between atoms: O_13  and  C_14
REMARK    5  A    between atoms: C_14  and  C_15
REMARK    6  A    between atoms: N_20  and  C_21
REMARK    7  A    between atoms: C_21  and  C_22
REMARK    8  A    between atoms: C_21  and  C_23
REMARK                            x       y       z     vdW  Elec       q    Type
REMARK                         _______ _______ _______ _____ _____    ______ ____
ROOT
ATOM      1  C   UNL     1      -3.049   1.679   0.324  0.00  0.00    +0.376 C 
ATOM      2  O   UNL     1      -2.715   1.294  -0.779  0.00  0.00    -0.241 OA
ENDROOT
BRANCH   1  12
ATOM      3  C   UNL     1      -0.013   1.086   0.008  0.00  0.00    +0.048 C 
ATOM      4  C   UNL     1      -0.718   1.572   1.248  0.00  0.00    +0.010 A 
ATOM      5  C   UNL     1      -0.112   1.866   2.546  0.00  0.00    +0.025 A 
ATOM      6  C   UNL     1       1.190   1.809   3.048  0.00  0.00    +0.027 A 
ATOM      7  C   UNL     1       1.432   2.162   4.346  0.00  0.00    +0.019 A 
ATOM      8  C   UNL     1       0.392   2.576   5.168  0.00  0.00    +0.019 A 
ATOM      9  C   UNL     1      -0.900   2.639   4.691  0.00  0.00    +0.048 A 
ATOM     10  C   UNL     1      -1.170   2.285   3.374  0.00  0.00    +0.136 A 
ATOM     11  O   UNL     1      -2.301   2.246   2.643  0.00  0.00    -0.448 OA
ATOM     12  C   UNL     1      -2.045   1.831   1.385  0.00  0.00    +0.216 A 
ATOM     13 BR   UNL     1       3.195   2.086   5.027  0.00  0.00    -0.050 Br
ENDBRANCH   1  12
BRANCH   1  14
ATOM     14  O   UNL     1      -4.343   1.967   0.575  0.00  0.00    -0.450 OA
BRANCH  14  15
ATOM     15  C   UNL     1      -5.280   1.794  -0.520  0.00  0.00    +0.328 C 
BRANCH  15  16
ATOM     16  C   UNL     1      -6.667   2.161  -0.058  0.00  0.00    +0.258 C 
ATOM     17  O   UNL     1      -6.847   2.531   1.083  0.00  0.00    -0.272 OA
ATOM     18  N   UNL     1      -7.707   2.077  -0.911  0.00  0.00    -0.237 N 
ATOM     19  C   UNL     1      -8.946   2.405  -0.497  0.00  0.00    +0.306 C 
ATOM     20  O   UNL     1      -9.127   2.776   0.646  0.00  0.00    -0.252 OA
ATOM     21  N   UNL     1      -9.986   2.321  -1.350  0.00  0.00    -0.297 N 
ATOM     22  H   UNL     1      -7.562   1.780  -1.823  0.00  0.00    +0.159 HD
ATOM     23  H   UNL     1      -9.842   2.024  -2.263  0.00  0.00    +0.151 HD
BRANCH  21  24
ATOM     24  C   UNL     1     -11.334   2.677  -0.900  0.00  0.00    +0.068 C 
ATOM     25  C   UNL     1     -12.178   3.101  -2.104  0.00  0.00    +0.027 C 
ATOM     26  C   UNL     1     -11.982   1.468  -0.223  0.00  0.00    +0.027 C 
ENDBRANCH  21  24
ENDBRANCH  15  16
ENDBRANCH  14  15
ENDBRANCH   1  14
TORSDOF 5
