REMARK  Name = ZINC01819032
REMARK  14 active torsions:
REMARK  status: ('A' for Active; 'I' for Inactive)
REMARK    1  A    between atoms: C_1  and  C_2
REMARK    2  A    between atoms: C_3  and  C_33
REMARK    3  A    between atoms: C_4  and  C_26
REMARK    4  A    between atoms: C_10  and  C_11
REMARK    5  A    between atoms: C_14  and  O_19
REMARK    6  A    between atoms: C_15  and  O_17
REMARK    7  A    between atoms: O_17  and  C_18
REMARK    8  A    between atoms: O_19  and  C_20
REMARK    9  A    between atoms: C_20  and  C_22
REMARK   10  A    between atoms: C_33  and  O_35
REMARK   11  A    between atoms: O_35  and  C_36
REMARK   12  A    between atoms: C_36  and  C_37
REMARK   13  A    between atoms: C_37  and  O_38
REMARK   14  A    between atoms: O_38  and  C_39
REMARK                            x       y       z     vdW  Elec       q    Type
REMARK                         _______ _______ _______ _____ _____    ______ ____
ROOT
ATOM      1  C   UNL     1       0.158   0.423   0.794  0.00  0.00    +0.066 C 
ATOM      2  C   UNL     1      -0.153  -1.044   0.647  0.00  0.00    +0.053 C 
ATOM      3  C   UNL     1      -1.454  -1.463   0.638  0.00  0.00    +0.085 C 
ATOM      4  C   UNL     1      -1.724  -2.943   0.489  0.00  0.00    +0.163 C 
ATOM      5  N   UNL     1      -0.541  -3.840   0.362  0.00  0.00    -0.275 N 
ATOM      6  C   UNL     1      -0.575  -5.171   0.221  0.00  0.00    +0.268 A 
ATOM      7  O   UNL     1      -1.634  -5.771   0.186  0.00  0.00    -0.266 OA
ATOM      8  C   UNL     1       0.704  -5.886   0.110  0.00  0.00    +0.081 A 
ATOM      9  C   UNL     1       0.940  -7.216  -0.038  0.00  0.00    +0.028 C 
ATOM     10  S   UNL     1       1.864  -4.533   0.222  0.00  0.00    -0.046 S 
ATOM     11  C   UNL     1       0.682  -3.211   0.395  0.00  0.00    +0.178 A 
ATOM     12  N   UNL     1       0.838  -1.917   0.522  0.00  0.00    -0.228 NA
ENDROOT
BRANCH   4  13
ATOM     13  C   UNL     1      -2.585  -3.136  -0.733  0.00  0.00    -0.002 A 
ATOM     14  C   UNL     1      -1.998  -3.369  -1.962  0.00  0.00    +0.007 A 
ATOM     15  C   UNL     1      -2.788  -3.546  -3.083  0.00  0.00    +0.000 A 
ATOM     16  C   UNL     1      -4.165  -3.491  -2.974  0.00  0.00    +0.001 A 
ATOM     17  C   UNL     1      -4.753  -3.258  -1.745  0.00  0.00    +0.020 A 
ATOM     18  C   UNL     1      -3.963  -3.087  -0.622  0.00  0.00    +0.046 A 
ATOM     19 CL   UNL     1      -4.701  -2.801   0.923  0.00  0.00    -0.083 Cl
ENDBRANCH   4  13
BRANCH   9  20
ATOM     20  C   UNL     1       2.311  -7.732   0.052  0.00  0.00    -0.020 A 
ATOM     21  C   UNL     1       3.307  -6.975   0.682  0.00  0.00    +0.012 A 
ATOM     22  C   UNL     1       4.593  -7.463   0.766  0.00  0.00    +0.051 A 
ATOM     23  C   UNL     1       4.905  -8.704   0.227  0.00  0.00    +0.173 A 
ATOM     24  C   UNL     1       3.920  -9.464  -0.402  0.00  0.00    +0.163 A 
ATOM     25  C   UNL     1       2.626  -8.986  -0.485  0.00  0.00    +0.057 A 
BRANCH  24  26
ATOM     26  O   UNL     1       4.231 -10.679  -0.928  0.00  0.00    -0.491 OA
ATOM     27  C   UNL     1       3.172 -11.403  -1.558  0.00  0.00    +0.277 C 
ENDBRANCH  24  26
BRANCH  23  28
ATOM     28  O   UNL     1       6.175  -9.180   0.313  0.00  0.00    -0.422 OA
BRANCH  28  29
ATOM     29  C   UNL     1       6.991  -8.991  -0.736  0.00  0.00    +0.309 C 
ATOM     30  O   UNL     1       6.620  -8.333  -1.679  0.00  0.00    -0.251 OA
ATOM     31  C   UNL     1       8.369  -9.600  -0.738  0.00  0.00    +0.136 C 
ENDBRANCH  28  29
ENDBRANCH  23  28
ENDBRANCH   9  20
BRANCH   3  32
ATOM     32  C   UNL     1      -2.510  -0.546   0.765  0.00  0.00    +0.339 C 
ATOM     33  O   UNL     1      -3.084  -0.421   1.832  0.00  0.00    -0.245 OA
BRANCH  32  34
ATOM     34  O   UNL     1      -2.889   0.198  -0.297  0.00  0.00    -0.459 OA
BRANCH  34  35
ATOM     35  C   UNL     1      -3.893   1.189  -0.069  0.00  0.00    +0.260 C 
BRANCH  35  36
ATOM     36  C   UNL     1      -4.277   1.842  -1.399  0.00  0.00    +0.200 C 
BRANCH  36  37
ATOM     37  O   UNL     1      -4.890   0.870  -2.247  0.00  0.00    -0.380 OA
ATOM     38  C   UNL     1      -5.289   1.379  -3.521  0.00  0.00    +0.194 C 
ENDBRANCH  36  37
ENDBRANCH  35  36
ENDBRANCH  34  35
ENDBRANCH  32  34
ENDBRANCH   3  32
TORSDOF 10
