REMARK  Name = ZINC10698887
REMARK  10 active torsions:
REMARK  status: ('A' for Active; 'I' for Inactive)
REMARK    1  A    between atoms: C_1  and  C_2
REMARK    2  A    between atoms: C_2  and  O_3
REMARK    3  A    between atoms: O_3  and  C_4
REMARK    4  A    between atoms: C_4  and  C_6
REMARK    5  A    between atoms: C_10  and  N_11
REMARK    6  A    between atoms: C_12  and  C_14
REMARK    7  A    between atoms: C_14  and  C_15
REMARK    8  A    between atoms: C_18  and  C_22
REMARK    9  A    between atoms: C_19  and  C_21
REMARK   10  A    between atoms: C_26  and  N_53
REMARK                            x       y       z     vdW  Elec       q    Type
REMARK                         _______ _______ _______ _____ _____    ______ ____
ROOT
ATOM      1  C   UNL     1       0.812  -2.219  -0.224  0.00  0.00    +0.091 A 
ATOM      2  C   UNL     1       1.061  -0.791  -0.293  0.00  0.00    -0.025 A 
ATOM      3  C   UNL     1       0.002  -0.004   0.002  0.00  0.00    -0.021 A 
ATOM      4  S   UNL     1      -1.311  -1.132   0.364  0.00  0.00    -0.079 S 
ATOM      5  C   UNL     1      -0.468  -2.628   0.130  0.00  0.00    +0.086 A 
ATOM      6  C   UNL     1      -0.018   1.492   0.010  0.00  0.00    -0.036 C 
ATOM      7  C   UNL     1       2.151   1.298  -1.051  0.00  0.00    -0.074 C 
ATOM      8  C   UNL     1       2.400  -0.164  -0.665  0.00  0.00    +0.018 C 
ATOM      9  C   UNL     1       1.430   3.432  -0.162  0.00  0.00    -0.096 C 
ATOM     10  N   UNL     1       1.388   1.965   0.023  0.00  0.00    +0.381 N 
ATOM     11  H   UNL     1       1.811   1.731   0.929  0.00  0.00    -0.082 HD
ENDROOT
BRANCH   5  12
ATOM     12  N   UNL     1      -0.953  -3.920   0.263  0.00  0.00    -0.279 N 
ATOM     13  C   UNL     1      -2.237  -4.124   0.619  0.00  0.00    +0.222 C 
ATOM     14  O   UNL     1      -2.968  -3.178   0.822  0.00  0.00    -0.275 OA
ATOM     15  H   UNL     1      -0.368  -4.676   0.101  0.00  0.00    +0.155 HD
BRANCH  13  16
ATOM     16  C   UNL     1      -2.764  -5.528   0.764  0.00  0.00    +0.131 C 
BRANCH  16  17
ATOM     17  C   UNL     1      -4.216  -5.481   1.166  0.00  0.00    -0.038 A 
ATOM     18  C   UNL     1      -4.562  -5.466   2.504  0.00  0.00    +0.004 A 
ATOM     19  C   UNL     1      -5.894  -5.417   2.873  0.00  0.00    +0.004 A 
ATOM     20  C   UNL     1      -6.879  -5.394   1.903  0.00  0.00    -0.048 A 
ATOM     21  C   UNL     1      -6.533  -5.415   0.565  0.00  0.00    -0.047 A 
ATOM     22  C   UNL     1      -5.201  -5.459   0.197  0.00  0.00    +0.007 A 
ATOM     23  C   UNL     1      -7.607  -5.391  -0.492  0.00  0.00    +0.044 C 
ATOM     24  C   UNL     1      -8.331  -5.346   2.305  0.00  0.00    +0.044 C 
ENDBRANCH  16  17
ENDBRANCH  13  16
ENDBRANCH   5  12
BRANCH   1  25
ATOM     25  C   UNL     1       1.868  -3.190  -0.516  0.00  0.00    +0.342 C 
ATOM     26  O   UNL     1       2.587  -3.594   0.378  0.00  0.00    -0.245 OA
BRANCH  25  27
ATOM     27  O   UNL     1       2.043  -3.638  -1.777  0.00  0.00    -0.461 OA
BRANCH  27  29
ATOM     28  C   UNL     1       3.154  -4.988  -3.472  0.00  0.00    +0.048 C 
ATOM     29  C   UNL     1       3.108  -4.600  -1.992  0.00  0.00    +0.229 C 
ENDBRANCH  27  29
ENDBRANCH  25  27
ENDBRANCH   1  25
TORSDOF 6
