REMARK  Name = ZINC20574563
REMARK  6 active torsions:
REMARK  status: ('A' for Active; 'I' for Inactive)
REMARK    1  A    between atoms: C_1  and  C_2
REMARK    2  A    between atoms: C_4  and  N_23
REMARK    3  A    between atoms: C_9  and  N_12
REMARK    4  A    between atoms: N_15  and  C_16
REMARK    5  A    between atoms: C_16  and  C_17
REMARK    6  A    between atoms: N_26  and  C_29
REMARK                            x       y       z     vdW  Elec       q    Type
REMARK                         _______ _______ _______ _____ _____    ______ ____
ROOT
ATOM      1  C   UNL     1      -3.761   1.468  10.411  0.00  0.00    +0.044 C 
ATOM      2  C   UNL     1      -4.705   2.576  10.020  0.00  0.00    -0.038 A 
ATOM      3  C   UNL     1      -5.468   3.207  10.957  0.00  0.00    +0.045 A 
ATOM      4  C   UNL     1      -6.339   4.234  10.571  0.00  0.00    +0.099 A 
ATOM      5  N   UNL     1      -6.444   4.614   9.314  0.00  0.00    -0.343 N 
ATOM      6  C   UNL     1      -5.720   4.032   8.350  0.00  0.00    +0.048 A 
ATOM      7  C   UNL     1      -4.821   2.987   8.677  0.00  0.00    +0.003 A 
ATOM      8  C   UNL     1      -4.068   2.376   7.662  0.00  0.00    +0.033 A 
ATOM      9  C   UNL     1      -4.206   2.808   6.362  0.00  0.00    +0.035 A 
ATOM     10  C   UNL     1      -5.095   3.841   6.046  0.00  0.00    +0.025 A 
ATOM     11  C   UNL     1      -5.839   4.444   7.012  0.00  0.00    +0.028 A 
ATOM     12  H   UNL     1      -7.137   5.423   9.040  0.00  0.00    +0.167 HD
ENDROOT
BRANCH   4  13
ATOM     13  N   UNL     1      -7.111   4.867  11.536  0.00  0.00    -0.314 N 
ATOM     14  C   UNL     1      -7.927   3.896  12.277  0.00  0.00    +0.122 C 
ATOM     15  C   UNL     1      -8.700   4.620  13.381  0.00  0.00    +0.103 C 
ATOM     16  N   UNL     1      -9.544   5.663  12.781  0.00  0.00    -0.302 NA
ATOM     17  C   UNL     1      -8.727   6.635  12.039  0.00  0.00    +0.103 C 
ATOM     18  C   UNL     1      -7.954   5.910  10.935  0.00  0.00    +0.122 C 
ATOM     19  C   UNL     1     -10.360   6.333  13.802  0.00  0.00    +0.105 C 
ENDBRANCH   4  13
BRANCH   9  20
ATOM     20  N   UNL     1      -3.454   2.205   5.346  0.00  0.00    -0.269 N 
ATOM     21  C   UNL     1      -2.209   1.758   5.604  0.00  0.00    +0.304 C 
ATOM     22  O   UNL     1      -1.702   1.965   6.690  0.00  0.00    -0.253 OA
ATOM     23  N   UNL     1      -1.526   1.082   4.660  0.00  0.00    -0.297 N 
ATOM     24  H   UNL     1      -3.880   2.095   4.338  0.00  0.00    +0.156 HD
ATOM     25  H   UNL     1      -1.985   0.895   3.677  0.00  0.00    +0.150 HD
BRANCH  23  26
ATOM     26  C   UNL     1      -0.173   0.597   4.940  0.00  0.00    +0.137 C 
BRANCH  26  27
ATOM     27  C   UNL     1       0.373  -0.131   3.710  0.00  0.00    +0.135 C 
ATOM     28  C   UNL     1       1.802  -0.652   3.984  0.00  0.00    +0.035 C 
ATOM     29  C   UNL     1       1.850  -2.015   3.257  0.00  0.00    +0.031 C 
ATOM     30  C   UNL     1       0.445  -2.156   2.631  0.00  0.00    +0.160 C 
ATOM     31  O   UNL     1      -0.409  -1.318   3.440  0.00  0.00    -0.375 OA
ENDBRANCH  26  27
ENDBRANCH  23  26
ENDBRANCH   9  20
TORSDOF 4
