REMARK  Name = ZINC03601939
REMARK  7 active torsions:
REMARK  status: ('A' for Active; 'I' for Inactive)
REMARK    1  A    between atoms: C_4  and  N_14
REMARK    2  A    between atoms: C_5  and  C_7
REMARK    3  A    between atoms: C_7  and  O_9
REMARK    4  A    between atoms: O_9  and  C_10
REMARK    5  A    between atoms: C_10  and  C_11
REMARK    6  A    between atoms: N_14  and  S_15
REMARK    7  A    between atoms: S_15  and  C_18
REMARK                            x       y       z     vdW  Elec       q    Type
REMARK                         _______ _______ _______ _____ _____    ______ ____
ROOT
ATOM      1  C   UNL     1      -2.785   2.377   4.461  0.00  0.00    +0.001 A 
ATOM      2  C   UNL     1      -2.274   2.146   5.729  0.00  0.00    +0.002 A 
ATOM      3  C   UNL     1      -1.057   1.515   5.887  0.00  0.00    +0.025 A 
ATOM      4  C   UNL     1      -0.335   1.106   4.773  0.00  0.00    +0.062 A 
ATOM      5  C   UNL     1      -0.850   1.338   3.488  0.00  0.00    +0.081 A 
ATOM      6  C   UNL     1      -2.082   1.984   3.345  0.00  0.00    +0.017 A 
ENDROOT
BRANCH   5   7
ATOM      7  C   UNL     1      -0.095   0.911   2.298  0.00  0.00    +0.341 C 
ATOM      8  O   UNL     1       0.978   0.355   2.427  0.00  0.00    -0.245 OA
BRANCH   7   9
ATOM      9  O   UNL     1      -0.593   1.136   1.066  0.00  0.00    -0.452 OA
BRANCH   9  10
ATOM     10  C   UNL     1       0.205   0.687  -0.060  0.00  0.00    +0.327 C 
BRANCH  10  11
ATOM     11  C   UNL     1      -0.506   1.022  -1.346  0.00  0.00    +0.248 C 
ATOM     12  O   UNL     1      -1.581   1.584  -1.315  0.00  0.00    -0.272 OA
ATOM     13  N   UNL     1       0.051   0.698  -2.529  0.00  0.00    -0.327 N 
ATOM     14  H   UNL     1       0.911   0.249  -2.553  0.00  0.00    +0.145 HD
ATOM     15  H   UNL     1      -0.407   0.913  -3.356  0.00  0.00    +0.145 HD
ENDBRANCH  10  11
ENDBRANCH   9  10
ENDBRANCH   7   9
ENDBRANCH   5   7
BRANCH   4  16
ATOM     16  N   UNL     1       0.890   0.471   4.930  0.00  0.00    -0.215 N 
ATOM     17  H   UNL     1       1.605   0.632   4.295  0.00  0.00    +0.174 HD
BRANCH  16  18
ATOM     18  S   UNL     1       1.129  -0.563   6.201  0.00  0.00    +0.079 S 
ATOM     19  O   UNL     1       2.410  -1.149   6.012  0.00  0.00    -0.149 OA
ATOM     20  O   UNL     1       0.786   0.155   7.378  0.00  0.00    -0.149 OA
BRANCH  18  21
ATOM     21  C   UNL     1      -0.048  -1.864   6.043  0.00  0.00    +0.147 A 
ATOM     22  C   UNL     1       0.068  -3.046   5.390  0.00  0.00    +0.038 A 
ATOM     23  C   UNL     1      -0.998  -3.925   5.400  0.00  0.00    +0.025 A 
ATOM     24  C   UNL     1      -2.129  -3.580   6.064  0.00  0.00    +0.057 A 
ATOM     25  S   UNL     1      -1.701  -1.972   6.710  0.00  0.00    -0.061 S 
ATOM     26 BR   UNL     1      -3.739  -4.552   6.261  0.00  0.00    -0.043 Br
ENDBRANCH  18  21
ENDBRANCH  16  18
ENDBRANCH   4  16
TORSDOF 7
