REMARK  Name = ZINC06879899
REMARK  6 active torsions:
REMARK  status: ('A' for Active; 'I' for Inactive)
REMARK    1  A    between atoms: C_1  and  C_2
REMARK    2  A    between atoms: C_2  and  C_4
REMARK    3  A    between atoms: C_2  and  N_14
REMARK    4  A    between atoms: C_15  and  C_17
REMARK    5  A    between atoms: C_17  and  S_18
REMARK    6  A    between atoms: S_18  and  C_19
REMARK                            x       y       z     vdW  Elec       q    Type
REMARK                         _______ _______ _______ _____ _____    ______ ____
ROOT
ATOM      1  N   UNL     1      -4.657  -0.137  -0.860  0.00  0.00    -0.308 N 
ATOM      2  C   UNL     1      -5.660  -0.844  -1.419  0.00  0.00    +0.224 C 
ATOM      3  O   UNL     1      -5.762  -2.031  -1.195  0.00  0.00    -0.275 OA
ATOM      4  H   UNL     1      -4.575   0.813  -1.039  0.00  0.00    +0.149 HD
ENDROOT
BRANCH   1   6
ATOM      5  C   UNL     1      -4.250  -0.858   1.441  0.00  0.00    +0.033 C 
ATOM      6  C   UNL     1      -3.692  -0.803   0.018  0.00  0.00    +0.100 C 
BRANCH   6   7
ATOM      7  C   UNL     1      -2.397  -0.033   0.016  0.00  0.00    -0.024 A 
ATOM      8  C   UNL     1      -2.415   1.349   0.026  0.00  0.00    +0.009 A 
ATOM      9  C   UNL     1      -1.229   2.059   0.019  0.00  0.00    +0.050 A 
ATOM     10  C   UNL     1      -0.017   1.385   0.010  0.00  0.00    +0.162 A 
ATOM     11  C   UNL     1       0.002  -0.004   0.002  0.00  0.00    +0.162 A 
ATOM     12  C   UNL     1      -1.192  -0.710   0.004  0.00  0.00    +0.055 A 
ATOM     13  O   UNL     1       1.181  -0.685  -0.007  0.00  0.00    -0.485 OA
ATOM     14  C   UNL     1       2.347   0.053  -0.387  0.00  0.00    +0.270 C 
ATOM     15  C   UNL     1       2.334   1.392   0.364  0.00  0.00    +0.270 C 
ATOM     16  O   UNL     1       1.143   2.098   0.002  0.00  0.00    -0.485 OA
ENDBRANCH   6   7
ENDBRANCH   1   6
BRANCH   2  17
ATOM     17  C   UNL     1      -6.653  -0.158  -2.322  0.00  0.00    +0.173 C 
BRANCH  17  18
ATOM     18  S   UNL     1      -7.866  -1.365  -2.910  0.00  0.00    -0.077 S 
BRANCH  18  19
ATOM     19  C   UNL     1      -8.873  -0.323  -3.913  0.00  0.00    +0.195 A 
ATOM     20  N   UNL     1      -8.588   0.971  -4.023  0.00  0.00    -0.189 NA
ATOM     21  C   UNL     1      -9.344   1.756  -4.783  0.00  0.00    +0.218 A 
ATOM     22  N   UNL     1     -10.392   1.250  -5.426  0.00  0.00    -0.181 NA
ATOM     23  C   UNL     1     -10.680  -0.043  -5.312  0.00  0.00    +0.218 A 
ATOM     24  N   UNL     1      -9.921  -0.830  -4.556  0.00  0.00    -0.189 NA
ATOM     25  N   UNL     1     -11.768  -0.569  -5.980  0.00  0.00    -0.327 N 
ATOM     26  N   UNL     1      -9.045   3.099  -4.901  0.00  0.00    -0.327 N 
ATOM     27  H   UNL     1     -11.978  -1.512  -5.897  0.00  0.00    +0.145 HD
ATOM     28  H   UNL     1     -12.322   0.005  -6.532  0.00  0.00    +0.145 HD
ATOM     29  H   UNL     1      -9.600   3.672  -5.453  0.00  0.00    +0.145 HD
ATOM     30  H   UNL     1      -8.281   3.468  -4.432  0.00  0.00    +0.145 HD
ENDBRANCH  18  19
ENDBRANCH  17  18
ENDBRANCH   2  17
TORSDOF 5
