REMARK  Name = ZINC03140567
REMARK  5 active torsions:
REMARK  status: ('A' for Active; 'I' for Inactive)
REMARK    1  A    between atoms: C_13  and  C_14
REMARK    2  A    between atoms: C_13  and  O_28
REMARK    3  A    between atoms: N_16  and  N_17
REMARK    4  A    between atoms: C_18  and  C_19
REMARK    5  A    between atoms: C_22  and  N_25
REMARK                            x       y       z     vdW  Elec       q    Type
REMARK                         _______ _______ _______ _____ _____    ______ ____
ROOT
ATOM      1  C   UNL     1      -1.220   1.750   0.017  0.00  0.00    +0.001 A 
ATOM      2  C   UNL     1      -0.013   1.076   0.008  0.00  0.00    +0.000 A 
ATOM      3  C   UNL     1       1.177   1.783   0.000  0.00  0.00    +0.008 A 
ATOM      4  C   UNL     1       1.160   3.162   0.007  0.00  0.00    +0.005 A 
ATOM      5  C   UNL     1      -0.050   3.849   0.023  0.00  0.00    -0.011 A 
ATOM      6  C   UNL     1      -1.246   3.129   0.031  0.00  0.00    +0.009 A 
ATOM      7  C   UNL     1       0.211   5.310   0.028  0.00  0.00    -0.011 A 
ATOM      8  C   UNL     1      -0.661   6.400   0.041  0.00  0.00    +0.009 A 
ATOM      9  C   UNL     1      -0.158   7.685   0.042  0.00  0.00    +0.001 A 
ATOM     10  C   UNL     1       1.209   7.898   0.031  0.00  0.00    +0.000 A 
ATOM     11  C   UNL     1       2.079   6.822   0.017  0.00  0.00    +0.008 A 
ATOM     12  C   UNL     1       1.585   5.535   0.015  0.00  0.00    +0.005 A 
ATOM     13  C   UNL     1       2.266   4.188   0.002  0.00  0.00    +0.195 C 
ENDROOT
BRANCH  13  14
ATOM     14  C   UNL     1       3.128   4.029   1.228  0.00  0.00    +0.273 C 
ATOM     15  O   UNL     1       2.670   3.521   2.229  0.00  0.00    -0.270 OA
ATOM     16  N   UNL     1       4.408   4.451   1.211  0.00  0.00    -0.204 N 
ATOM     17  H   UNL     1       4.774   4.857   0.410  0.00  0.00    +0.177 HD
BRANCH  16  18
ATOM     18  N   UNL     1       5.209   4.303   2.351  0.00  0.00    -0.188 NA
ATOM     19  C   UNL     1       6.441   4.709   2.334  0.00  0.00    +0.138 C 
BRANCH  19  20
ATOM     20  C   UNL     1       7.285   4.553   3.534  0.00  0.00    -0.005 A 
ATOM     21  C   UNL     1       6.759   3.974   4.691  0.00  0.00    +0.012 A 
ATOM     22  C   UNL     1       7.556   3.826   5.808  0.00  0.00    +0.033 A 
ATOM     23  C   UNL     1       8.869   4.261   5.787  0.00  0.00    +0.126 A 
ATOM     24  C   UNL     1       9.395   4.840   4.646  0.00  0.00    +0.033 A 
ATOM     25  C   UNL     1       8.612   4.989   3.520  0.00  0.00    +0.012 A 
BRANCH  23  26
ATOM     26  N   UNL     1       9.716   4.105   6.991  0.00  0.00    +0.056 N 
ATOM     27  O   UNL     1      10.872   4.487   6.976  0.00  0.00    -0.126 OA
ATOM     28  O   UNL     1       9.255   3.595   7.997  0.00  0.00    -0.126 OA
ENDBRANCH  23  26
ENDBRANCH  19  20
ENDBRANCH  16  18
ENDBRANCH  13  14
BRANCH  13  29
ATOM     29  O   UNL     1       3.060   4.050  -1.178  0.00  0.00    -0.371 OA
ATOM     30  H   UNL     1       3.788   4.684  -1.239  0.00  0.00    +0.212 HD
ENDBRANCH  13  29
TORSDOF 5
