REMARK  Name = ZINC05234414
REMARK  12 active torsions:
REMARK  status: ('A' for Active; 'I' for Inactive)
REMARK    1  A    between atoms: C_1  and  C_2
REMARK    2  A    between atoms: C_7  and  O_8
REMARK    3  A    between atoms: O_8  and  C_9
REMARK    4  A    between atoms: C_9  and  C_10
REMARK    5  A    between atoms: C_10  and  O_11
REMARK    6  A    between atoms: O_11  and  C_12
REMARK    7  A    between atoms: C_14  and  N_27
REMARK    8  A    between atoms: C_16  and  O_26
REMARK    9  A    between atoms: C_18  and  O_25
REMARK   10  A    between atoms: C_20  and  C_23
REMARK   11  A    between atoms: C_23  and  O_24
REMARK   12  A    between atoms: C_28  and  C_30
REMARK                            x       y       z     vdW  Elec       q    Type
REMARK                         _______ _______ _______ _____ _____    ______ ____
ROOT
ATOM      1  C   UNL     1       0.145  -0.522   1.436  0.00  0.00    +0.273 C 
ATOM      2  C   UNL     1       0.002  -0.004   0.002  0.00  0.00    +0.160 C 
ATOM      3  C   UNL     1      -1.306  -0.530  -0.596  0.00  0.00    +0.171 C 
ATOM      4  C   UNL     1      -1.307  -2.061  -0.527  0.00  0.00    +0.176 C 
ATOM      5  C   UNL     1      -1.115  -2.499   0.927  0.00  0.00    +0.178 C 
ATOM      6  O   UNL     1       0.105  -1.950   1.431  0.00  0.00    -0.341 OA
ENDROOT
BRANCH   2   7
ATOM      7  N   UNL     1      -0.018   1.461   0.010  0.00  0.00    -0.305 N 
ATOM      8  C   UNL     1       1.140   2.151   0.003  0.00  0.00    +0.210 C 
ATOM      9  O   UNL     1       2.199   1.558  -0.011  0.00  0.00    -0.276 OA
ATOM     10  C   UNL     1       1.120   3.657   0.011  0.00  0.00    +0.109 C 
ATOM     11  H   UNL     1      -0.864   1.934   0.017  0.00  0.00    +0.149 HD
ENDBRANCH   2   7
BRANCH   4  12
ATOM     12  O   UNL     1      -2.553  -2.560  -1.017  0.00  0.00    -0.387 OA
ATOM     13  H   UNL     1      -2.623  -3.525  -1.003  0.00  0.00    +0.210 HD
ENDBRANCH   4  12
BRANCH   3  14
ATOM     14  O   UNL     1      -1.412  -0.113  -1.958  0.00  0.00    -0.387 OA
ATOM     15  H   UNL     1      -2.218  -0.412  -2.400  0.00  0.00    +0.210 HD
ENDBRANCH   3  14
BRANCH   1  16
ATOM     16  O   UNL     1       1.391  -0.081   1.979  0.00  0.00    -0.346 OA
BRANCH  16  17
ATOM     17  C   UNL     1       1.575  -0.415   3.356  0.00  0.00    +0.204 C 
BRANCH  17  18
ATOM     18  C   UNL     1       2.935   0.103   3.829  0.00  0.00    +0.257 C 
BRANCH  18  19
ATOM     19  O   UNL     1       2.943   1.531   3.783  0.00  0.00    -0.489 OA
BRANCH  19  26
ATOM     20  C   UNL     1       2.983   4.354   3.688  0.00  0.00    +0.047 C 
ATOM     21  C   UNL     1       4.164   3.539   4.149  0.00  0.00    -0.007 A 
ATOM     22  C   UNL     1       5.325   4.172   4.551  0.00  0.00    +0.027 A 
ATOM     23  C   UNL     1       6.411   3.425   4.970  0.00  0.00    +0.041 A 
ATOM     24  C   UNL     1       6.336   2.043   4.991  0.00  0.00    +0.023 A 
ATOM     25  C   UNL     1       5.176   1.407   4.594  0.00  0.00    +0.047 A 
ATOM     26  C   UNL     1       4.085   2.155   4.175  0.00  0.00    +0.124 A 
ATOM     27 CL   UNL     1       7.871   4.221   5.468  0.00  0.00    -0.084 Cl
ENDBRANCH  19  26
ENDBRANCH  18  19
ENDBRANCH  17  18
ENDBRANCH  16  17
ENDBRANCH   1  16
BRANCH   5  28
ATOM     28  C   UNL     1      -1.054  -4.026   0.996  0.00  0.00    +0.190 C 
BRANCH  28  29
ATOM     29  O   UNL     1      -0.992  -4.439   2.362  0.00  0.00    -0.392 OA
ATOM     30  H   UNL     1      -0.951  -5.398   2.482  0.00  0.00    +0.210 HD
ENDBRANCH  28  29
ENDBRANCH   5  28
TORSDOF 10
