REMARK  Name = ZINC56792245
REMARK  8 active torsions:
REMARK  status: ('A' for Active; 'I' for Inactive)
REMARK    1  A    between atoms: C_1  and  C_2
REMARK    2  A    between atoms: N_4  and  C_5
REMARK    3  A    between atoms: N_17  and  C_18
REMARK    4  A    between atoms: C_18  and  C_19
REMARK    5  A    between atoms: C_19  and  C_21
REMARK    6  A    between atoms: C_19  and  N_26
REMARK    7  A    between atoms: N_26  and  C_27
REMARK    8  A    between atoms: N_26  and  C_28
REMARK                            x       y       z     vdW  Elec       q    Type
REMARK                         _______ _______ _______ _____ _____    ______ ____
ROOT
ATOM      1  C   UNL     1      -1.180  -1.828   0.477  0.00  0.00    +0.037 A 
ATOM      2  C   UNL     1       0.026  -2.506   0.551  0.00  0.00    +0.023 A 
ATOM      3  C   UNL     1       0.050  -3.880   0.417  0.00  0.00    +0.002 A 
ATOM      4  C   UNL     1      -1.128  -4.569   0.206  0.00  0.00    +0.005 A 
ATOM      5  C   UNL     1      -2.339  -3.894   0.129  0.00  0.00    -0.025 A 
ATOM      6  C   UNL     1      -2.372  -2.527   0.277  0.00  0.00    -0.020 A 
ATOM      7  C   UNL     1      -3.650  -1.731   0.242  0.00  0.00    +0.056 C 
ATOM      8  C   UNL     1      -4.763  -2.520  -0.446  0.00  0.00    +0.114 C 
ATOM      9  N   UNL     1      -4.772  -3.879   0.120  0.00  0.00    -0.281 N 
ATOM     10  C   UNL     1      -3.583  -4.710  -0.118  0.00  0.00    +0.144 C 
ATOM     11  C   UNL     1      -5.827  -4.341   0.819  0.00  0.00    +0.302 C 
ATOM     12  O   UNL     1      -6.834  -3.666   0.916  0.00  0.00    -0.253 OA
ATOM     13  N   UNL     1      -5.768  -5.550   1.410  0.00  0.00    -0.300 N 
ATOM     14  H   UNL     1      -4.994  -6.119   1.273  0.00  0.00    +0.150 HD
ENDROOT
BRANCH   1  18
ATOM     15  C   UNL     1      -0.260   1.809   0.181  0.00  0.00    +0.109 C 
ATOM     16  C   UNL     1      -0.184   0.305   0.135  0.00  0.00    +0.214 C 
ATOM     17  O   UNL     1       0.795  -0.239  -0.330  0.00  0.00    -0.276 OA
ATOM     18  N   UNL     1      -1.205  -0.436   0.611  0.00  0.00    -0.285 N 
ATOM     19  H   UNL     1      -1.956  -0.004   1.046  0.00  0.00    +0.155 HD
ENDBRANCH   1  18
BRANCH  13  20
ATOM     20  C   UNL     1      -6.870  -6.006   2.260  0.00  0.00    +0.098 C 
BRANCH  20  21
ATOM     21  C   UNL     1      -6.502  -7.346   2.900  0.00  0.00    +0.016 C 
BRANCH  21  22
ATOM     22  C   UNL     1      -5.336  -7.152   3.835  0.00  0.00    +0.093 A 
ATOM     23  C   UNL     1      -5.411  -7.042   5.173  0.00  0.00    +0.043 A 
ATOM     24  C   UNL     1      -4.089  -6.874   5.646  0.00  0.00    +0.041 A 
ATOM     25  C   UNL     1      -3.285  -6.890   4.567  0.00  0.00    +0.195 A 
ATOM     26  O   UNL     1      -4.045  -7.065   3.474  0.00  0.00    -0.469 OA
ENDBRANCH  21  22
BRANCH  21  27
ATOM     27  N   UNL     1      -6.133  -8.305   1.850  0.00  0.00    +0.384 N 
ATOM     28  C   UNL     1      -5.885  -9.621   2.454  0.00  0.00    -0.096 C 
ATOM     29  C   UNL     1      -7.228  -8.411   0.877  0.00  0.00    -0.096 C 
ATOM     30  H   UNL     1      -5.297  -7.987   1.382  0.00  0.00    -0.082 HD
ENDBRANCH  21  27
ENDBRANCH  20  21
ENDBRANCH  13  20
TORSDOF 5
