REMARK  Name = ZINC67002625
REMARK  10 active torsions:
REMARK  status: ('A' for Active; 'I' for Inactive)
REMARK    1  A    between atoms: C_1  and  C_2
REMARK    2  A    between atoms: C_5  and  S_7
REMARK    3  A    between atoms: S_7  and  N_10
REMARK    4  A    between atoms: N_10  and  C_11
REMARK    5  A    between atoms: C_14  and  O_17
REMARK    6  A    between atoms: C_18  and  C_20
REMARK    7  A    between atoms: C_20  and  C_22
REMARK    8  A    between atoms: C_20  and  C_23
REMARK    9  A    between atoms: C_23  and  S_24
REMARK   10  A    between atoms: S_24  and  C_25
REMARK                            x       y       z     vdW  Elec       q    Type
REMARK                         _______ _______ _______ _____ _____    ______ ____
ROOT
ATOM      1  N   UNL     1       1.189  -5.166  -1.552  0.00  0.00    -0.139 N 
ATOM      2  C   UNL     1      -0.019  -5.229  -2.147  0.00  0.00    +0.243 C 
ATOM      3  O   UNL     1      -0.109  -5.117  -3.351  0.00  0.00    -0.273 OA
ENDROOT
BRANCH   1   4
ATOM      4  C   UNL     1       2.352  -5.119  -2.332  0.00  0.00    +0.060 A 
ATOM      5  C   UNL     1       3.502  -4.525  -1.829  0.00  0.00    +0.029 A 
ATOM      6  C   UNL     1       4.648  -4.479  -2.599  0.00  0.00    +0.047 A 
ATOM      7  C   UNL     1       4.650  -5.025  -3.874  0.00  0.00    +0.117 A 
ATOM      8  C   UNL     1       3.501  -5.618  -4.377  0.00  0.00    +0.047 A 
ATOM      9  C   UNL     1       2.356  -5.670  -3.607  0.00  0.00    +0.029 A 
BRANCH   7  10
ATOM     10  O   UNL     1       5.778  -4.979  -4.631  0.00  0.00    -0.507 OA
ATOM     11  H   UNL     1       6.360  -5.743  -4.516  0.00  0.00    +0.292 HD
ENDBRANCH   7  10
ENDBRANCH   1   4
BRANCH   1  12
ATOM     12  S   UNL     1       1.299  -5.145   0.100  0.00  0.00    +0.087 S 
ATOM     13  O   UNL     1       2.501  -5.824   0.436  0.00  0.00    -0.149 OA
ATOM     14  O   UNL     1       0.030  -5.550   0.597  0.00  0.00    -0.149 OA
BRANCH  12  19
ATOM     15  C   UNL     1       2.985   0.346   1.517  0.00  0.00    +0.051 C 
ATOM     16  C   UNL     1       2.304  -0.967   1.228  0.00  0.00    -0.011 A 
ATOM     17  C   UNL     1       0.996  -1.296   1.354  0.00  0.00    +0.013 A 
ATOM     18  C   UNL     1       0.592  -2.577   1.025  0.00  0.00    +0.037 A 
ATOM     19  C   UNL     1       1.517  -3.465   0.586  0.00  0.00    +0.147 A 
ATOM     20  S   UNL     1       3.011  -2.490   0.621  0.00  0.00    -0.073 S 
ENDBRANCH  12  19
ENDBRANCH   1  12
BRANCH   2  21
ATOM     21  C   UNL     1      -1.258  -5.437  -1.315  0.00  0.00    +0.084 C 
ATOM     22  C   UNL     1      -1.676  -4.109  -0.681  0.00  0.00    +0.018 C 
BRANCH  21  23
ATOM     23  C   UNL     1      -2.389  -5.956  -2.205  0.00  0.00    +0.081 C 
BRANCH  23  24
ATOM     24  S   UNL     1      -3.834  -6.347  -1.181  0.00  0.00    -0.163 S 
ATOM     25  C   UNL     1      -5.068  -6.940  -2.372  0.00  0.00    +0.084 C 
ENDBRANCH  23  24
ENDBRANCH  21  23
ENDBRANCH   2  21
TORSDOF 7
