REMARK  Name = ZINC09132430
REMARK  6 active torsions:
REMARK  status: ('A' for Active; 'I' for Inactive)
REMARK    1  A    between atoms: C_1  and  C_2
REMARK    2  A    between atoms: C_2  and  C_3
REMARK    3  A    between atoms: C_3  and  C_5
REMARK    4  A    between atoms: C_3  and  N_6
REMARK    5  A    between atoms: C_7  and  C_9
REMARK    6  A    between atoms: C_19  and  C_21
REMARK                            x       y       z     vdW  Elec       q    Type
REMARK                         _______ _______ _______ _____ _____    ______ ____
ROOT
ATOM      1  C   UNL     1       1.462  -0.458  -0.019  0.00  0.00    +0.125 C 
ATOM      2  C   UNL     1       2.285   0.770   0.419  0.00  0.00    +0.024 C 
ATOM      3  C   UNL     1       1.362   1.936  -0.001  0.00  0.00    +0.045 C 
ATOM      4  C   UNL     1      -0.016   1.349   0.009  0.00  0.00    +0.015 A 
ATOM      5  C   UNL     1       0.002  -0.004   0.002  0.00  0.00    +0.066 A 
ATOM      6  N   UNL     1      -1.196  -0.606   0.013  0.00  0.00    -0.229 NA
ATOM      7  C   UNL     1      -2.321   0.070   0.028  0.00  0.00    +0.165 A 
ATOM      8  S   UNL     1      -1.757   1.712   0.034  0.00  0.00    -0.057 S 
ATOM      9  N   UNL     1      -3.626  -0.405   0.041  0.00  0.00    -0.261 N 
ATOM     10  C   UNL     1      -4.659   0.461   0.056  0.00  0.00    +0.250 C 
ATOM     11  O   UNL     1      -4.448   1.659   0.058  0.00  0.00    -0.270 OA
ATOM     12  H   UNL     1      -3.795  -1.360   0.039  0.00  0.00    +0.157 HD
ENDROOT
BRANCH  10  13
ATOM     13  C   UNL     1      -6.045  -0.044   0.069  0.00  0.00    +0.041 A 
ATOM     14  C   UNL     1      -6.290  -1.419   0.067  0.00  0.00    +0.017 A 
ATOM     15  C   UNL     1      -7.585  -1.889   0.080  0.00  0.00    +0.050 A 
ATOM     16  C   UNL     1      -8.651  -0.999   0.096  0.00  0.00    +0.166 A 
ATOM     17  C   UNL     1      -8.413   0.376   0.098  0.00  0.00    +0.167 A 
ATOM     18  C   UNL     1      -7.117   0.853   0.090  0.00  0.00    +0.062 A 
ATOM     19  O   UNL     1      -9.614   1.025   0.114  0.00  0.00    -0.453 OA
ATOM     20  C   UNL     1     -10.586   0.043  -0.292  0.00  0.00    +0.466 C 
ATOM     21  O   UNL     1      -9.998  -1.208   0.110  0.00  0.00    -0.453 OA
ENDBRANCH  10  13
BRANCH   1  23
ATOM     22  N   UNL     1       1.222  -1.912  -2.005  0.00  0.00    -0.312 N 
ATOM     23  C   UNL     1       1.855  -0.882  -1.410  0.00  0.00    +0.222 C 
ATOM     24  O   UNL     1       2.742  -0.296  -1.995  0.00  0.00    -0.275 OA
ATOM     25  H   UNL     1       0.513  -2.381  -1.538  0.00  0.00    +0.149 HD
BRANCH  22  26
ATOM     26  C   UNL     1       1.605  -2.325  -3.358  0.00  0.00    +0.070 C 
ATOM     27  C   UNL     1       2.791  -3.289  -3.281  0.00  0.00    +0.028 C 
BRANCH  26  29
ATOM     28  C   UNL     1      -0.720  -2.023  -4.222  0.00  0.00    +0.005 C 
ATOM     29  C   UNL     1       0.422  -3.023  -4.032  0.00  0.00    +0.018 C 
ENDBRANCH  26  29
ENDBRANCH  22  26
ENDBRANCH   1  23
TORSDOF 4
