REMARK  Name = ZINC36732806
REMARK  5 active torsions:
REMARK  status: ('A' for Active; 'I' for Inactive)
REMARK    1  A    between atoms: C_1  and  C_2
REMARK    2  A    between atoms: C_5  and  C_29
REMARK    3  A    between atoms: C_12  and  C_14
REMARK    4  A    between atoms: N_16  and  C_23
REMARK    5  A    between atoms: C_17  and  C_20
REMARK                            x       y       z     vdW  Elec       q    Type
REMARK                         _______ _______ _______ _____ _____    ______ ____
ROOT
ATOM      1  C   UNL     1       0.083  -1.148   7.251  0.00  0.00    +0.123 C 
ATOM      2  N   UNL     1       0.065   0.071   7.688  0.00  0.00    -0.178 NA
ATOM      3  N   UNL     1       0.077   0.175   9.077  0.00  0.00    -0.212 N 
ATOM      4  C   UNL     1       0.108  -1.177   9.657  0.00  0.00    +0.189 C 
ATOM      5  C   UNL     1       0.106  -2.102   8.424  0.00  0.00    +0.096 C 
ENDROOT
BRANCH   1  17
ATOM      6  C   UNL     1      -0.018   1.503   0.010  0.00  0.00    +0.046 C 
ATOM      7  C   UNL     1       0.002  -0.004   0.002  0.00  0.00    -0.024 A 
ATOM      8  C   UNL     1       0.005  -0.675  -1.193  0.00  0.00    +0.006 A 
ATOM      9  C   UNL     1       0.024  -2.061  -1.246  0.00  0.00    +0.005 A 
ATOM     10  C   UNL     1       0.039  -2.784  -0.067  0.00  0.00    -0.035 A 
ATOM     11  C   UNL     1       0.036  -2.121   1.134  0.00  0.00    +0.044 A 
ATOM     12  C   UNL     1       0.023  -0.710   1.227  0.00  0.00    +0.083 A 
ATOM     13  N   UNL     1       0.027  -0.206   2.480  0.00  0.00    -0.224 NA
ATOM     14  C   UNL     1       0.047  -0.969   3.548  0.00  0.00    +0.166 A 
ATOM     15  S   UNL     1       0.051  -2.611   2.842  0.00  0.00    -0.052 S 
ATOM     16  N   UNL     1       0.054  -0.598   4.880  0.00  0.00    -0.260 N 
ATOM     17  C   UNL     1       0.075  -1.541   5.843  0.00  0.00    +0.265 C 
ATOM     18  O   UNL     1       0.088  -2.720   5.540  0.00  0.00    -0.268 OA
ATOM     19  C   UNL     1       0.058  -4.290  -0.101  0.00  0.00    +0.045 C 
ATOM     20  H   UNL     1       0.044   0.342   5.122  0.00  0.00    +0.157 HD
ENDBRANCH   1  17
BRANCH   3  21
ATOM     21  C   UNL     1       0.064   1.368   9.802  0.00  0.00    +0.052 A 
ATOM     22  C   UNL     1       0.085   1.340  11.191  0.00  0.00    +0.025 A 
ATOM     23  C   UNL     1       0.071   2.522  11.904  0.00  0.00    +0.002 A 
ATOM     24  C   UNL     1       0.037   3.733  11.238  0.00  0.00    +0.000 A 
ATOM     25  C   UNL     1       0.016   3.765   9.855  0.00  0.00    +0.002 A 
ATOM     26  C   UNL     1       0.035   2.587   9.135  0.00  0.00    +0.025 A 
ENDBRANCH   3  21
BRANCH   4  27
ATOM     27  C   UNL     1       1.357  -1.375  10.476  0.00  0.00    +0.233 C 
ATOM     28  O   UNL     1       2.308  -0.638  10.319  0.00  0.00    -0.274 OA
ATOM     29  N   UNL     1       1.418  -2.370  11.383  0.00  0.00    -0.328 N 
ATOM     30  H   UNL     1       0.658  -2.959  11.509  0.00  0.00    +0.145 HD
ATOM     31  H   UNL     1       2.223  -2.497  11.910  0.00  0.00    +0.145 HD
ENDBRANCH   4  27
TORSDOF 3
