REMARK  Name = ZINC41177080
REMARK  7 active torsions:
REMARK  status: ('A' for Active; 'I' for Inactive)
REMARK    1  A    between atoms: C_1  and  C_2
REMARK    2  A    between atoms: C_3  and  S_9
REMARK    3  A    between atoms: C_4  and  C_8
REMARK    4  A    between atoms: S_9  and  N_12
REMARK    5  A    between atoms: N_12  and  C_13
REMARK    6  A    between atoms: C_13  and  C_14
REMARK    7  A    between atoms: N_17  and  C_21
REMARK                            x       y       z     vdW  Elec       q    Type
REMARK                         _______ _______ _______ _____ _____    ______ ____
ROOT
ATOM      1  C   UNL     1       2.444  -1.245  -3.324  0.00  0.00    +0.152 C 
ENDROOT
BRANCH   1   2
ATOM      2  C   UNL     1       3.699  -0.890  -4.123  0.00  0.00    +0.211 C 
ATOM      3  C   UNL     1       4.625  -2.120  -4.274  0.00  0.00    +0.163 C 
ATOM      4  N   UNL     1       5.967  -1.518  -4.153  0.00  0.00    -0.234 N 
ATOM      5  C   UNL     1       5.817  -0.277  -3.654  0.00  0.00    +0.408 C 
ATOM      6  O   UNL     1       6.742   0.487  -3.463  0.00  0.00    -0.226 OA
ATOM      7  O   UNL     1       4.535   0.027  -3.389  0.00  0.00    -0.444 OA
BRANCH   4   8
ATOM      8  C   UNL     1       7.179  -2.128  -4.497  0.00  0.00    +0.041 A 
ATOM      9  C   UNL     1       7.188  -3.419  -5.009  0.00  0.00    +0.024 A 
ATOM     10  C   UNL     1       8.385  -4.019  -5.348  0.00  0.00    +0.003 A 
ATOM     11  C   UNL     1       9.575  -3.336  -5.177  0.00  0.00    +0.020 A 
ATOM     12  C   UNL     1       9.570  -2.050  -4.666  0.00  0.00    +0.043 A 
ATOM     13  C   UNL     1       8.375  -1.442  -4.331  0.00  0.00    +0.043 A 
ATOM     14 CL   UNL     1      11.067  -1.197  -4.452  0.00  0.00    -0.083 Cl
ENDBRANCH   4   8
ENDBRANCH   1   2
BRANCH   1  15
ATOM     15  N   UNL     1       1.569  -0.072  -3.243  0.00  0.00    -0.186 NA
ATOM     16  H   UNL     1       1.914   0.806  -3.466  0.00  0.00    +0.148 HD
BRANCH  15  17
ATOM     17  S   UNL     1      -0.008  -0.247  -2.770  0.00  0.00    +0.062 S 
ATOM     18  O   UNL     1      -0.548  -1.312  -3.541  0.00  0.00    -0.153 OA
ATOM     19  O   UNL     1      -0.578   1.055  -2.765  0.00  0.00    -0.153 OA
BRANCH  17  22
ATOM     20  C   UNL     1      -0.018   1.503   0.010  0.00  0.00    +0.067 C 
ATOM     21  C   UNL     1       0.002  -0.004   0.002  0.00  0.00    +0.060 A 
ATOM     22  C   UNL     1       0.008  -0.796  -1.095  0.00  0.00    +0.148 A 
ATOM     23  C   UNL     1       0.028  -2.127  -0.666  0.00  0.00    +0.086 A 
ATOM     24  N   UNL     1       0.035  -2.134   0.643  0.00  0.00    -0.177 NA
ATOM     25  N   UNL     1       0.024  -0.805   1.088  0.00  0.00    -0.280 N 
ATOM     26  H   UNL     1       0.029  -0.513   2.013  0.00  0.00    +0.189 HD
ATOM     27  C   UNL     1       0.040  -3.343  -1.556  0.00  0.00    +0.069 C 
ENDBRANCH  17  22
ENDBRANCH  15  17
ENDBRANCH   1  15
TORSDOF 5
