REMARK  Name = ZINC22827755
REMARK  6 active torsions:
REMARK  status: ('A' for Active; 'I' for Inactive)
REMARK    1  A    between atoms: C_1  and  C_2
REMARK    2  A    between atoms: C_5  and  C_7
REMARK    3  A    between atoms: C_9  and  C_17
REMARK    4  A    between atoms: C_10  and  C_16
REMARK    5  A    between atoms: N_11  and  C_15
REMARK    6  A    between atoms: C_22  and  C_25
REMARK                            x       y       z     vdW  Elec       q    Type
REMARK                         _______ _______ _______ _____ _____    ______ ____
ROOT
ATOM      1  C   UNL     1       2.400   0.054  -0.272  0.00  0.00    +0.146 C 
ATOM      2  C   UNL     1       1.915   1.487  -0.193  0.00  0.00    +0.057 C 
ATOM      3  C   UNL     1       0.608   1.694   0.075  0.00  0.00    +0.019 C 
ATOM      4  N   UNL     1      -0.247   0.647   0.269  0.00  0.00    -0.289 N 
ATOM      5  C   UNL     1       0.128  -0.637   0.211  0.00  0.00    +0.137 C 
ATOM      6  S   UNL     1      -1.047  -1.855   0.475  0.00  0.00    -0.018 S 
ATOM      7  N   UNL     1       1.399  -1.002  -0.047  0.00  0.00    -0.315 N 
ATOM      8  C   UNL     1      -1.653   0.946   0.550  0.00  0.00    +0.137 C 
ATOM      9  C   UNL     1       0.084   3.105   0.161  0.00  0.00    +0.061 C 
ATOM     10  H   UNL     1       1.696  -2.061  -0.092  0.00  0.00    +0.149 HD
ENDROOT
BRANCH   2  11
ATOM     11  C   UNL     1       2.802   2.572  -0.395  0.00  0.00    +0.249 C 
ATOM     12  O   UNL     1       2.370   3.710  -0.445  0.00  0.00    -0.270 OA
ATOM     13  N   UNL     1       4.123   2.346  -0.531  0.00  0.00    -0.264 N 
ATOM     14  C   UNL     1       5.009   3.419  -0.620  0.00  0.00    +0.168 A 
ATOM     15  C   UNL     1       4.681   4.801  -0.583  0.00  0.00    +0.091 A 
ATOM     16  C   UNL     1       5.875   5.423  -0.704  0.00  0.00    +0.136 A 
ATOM     17  O   UNL     1       6.802   4.459  -0.801  0.00  0.00    -0.358 OA
ATOM     18  N   UNL     1       6.308   3.356  -0.748  0.00  0.00    -0.063 NA
ATOM     19  C   UNL     1       6.118   6.910  -0.726  0.00  0.00    +0.089 C 
ATOM     20  H   UNL     1       4.503   1.315  -0.572  0.00  0.00    +0.157 HD
ENDBRANCH   2  11
BRANCH   1  25
ATOM     21  C   UNL     1       3.726  -0.741  -5.721  0.00  0.00    +0.051 C 
ATOM     22  C   UNL     1       3.633  -0.537  -4.231  0.00  0.00    -0.013 A 
ATOM     23  C   UNL     1       4.630  -0.468  -3.315  0.00  0.00    +0.011 A 
ATOM     24  C   UNL     1       4.307  -0.274  -1.986  0.00  0.00    +0.013 A 
ATOM     25  C   UNL     1       3.002  -0.159  -1.637  0.00  0.00    +0.015 A 
ATOM     26  S   UNL     1       2.181  -0.332  -3.213  0.00  0.00    -0.096 S 
ENDBRANCH   1  25
TORSDOF 2
