REMARK  Name = ZINC09319132
REMARK  6 active torsions:
REMARK  status: ('A' for Active; 'I' for Inactive)
REMARK    1  A    between atoms: C_1  and  C_2
REMARK    2  A    between atoms: C_2  and  C_3
REMARK    3  A    between atoms: C_2  and  C_4
REMARK    4  A    between atoms: C_7  and  N_10
REMARK    5  A    between atoms: C_11  and  C_13
REMARK    6  A    between atoms: N_21  and  C_22
REMARK                            x       y       z     vdW  Elec       q    Type
REMARK                         _______ _______ _______ _____ _____    ______ ____
ROOT
ATOM      1  C   UNL     1       4.913   8.009   0.501  0.00  0.00    +0.135 A 
ATOM      2  C   UNL     1       5.971   7.139   0.456  0.00  0.00    +0.081 A 
ATOM      3  S   UNL     1       5.160   5.610   0.319  0.00  0.00    -0.060 S 
ATOM      4  C   UNL     1       3.483   6.222   0.332  0.00  0.00    +0.166 A 
ATOM      5  N   UNL     1       3.672   7.522   0.432  0.00  0.00    -0.220 NA
ATOM      6  N   UNL     1       2.292   5.514   0.252  0.00  0.00    -0.248 N 
ATOM      7  C   UNL     1       2.312   4.170   0.147  0.00  0.00    +0.310 C 
ATOM      8  O   UNL     1       3.374   3.579   0.124  0.00  0.00    -0.252 OA
ATOM      9  N   UNL     1       1.155   3.483   0.069  0.00  0.00    -0.269 N 
ATOM     10  H   UNL     1       1.444   5.986   0.271  0.00  0.00    +0.158 HD
ATOM     11  H   UNL     1       0.311   3.958   0.013  0.00  0.00    +0.156 HD
ENDROOT
BRANCH   9  12
ATOM     12  C   UNL     1       1.171   2.083   0.070  0.00  0.00    +0.035 A 
ATOM     13  C   UNL     1       2.137   1.399   0.795  0.00  0.00    +0.025 A 
ATOM     14  C   UNL     1       2.151   0.018   0.794  0.00  0.00    +0.022 A 
ATOM     15  C   UNL     1       1.204  -0.684   0.070  0.00  0.00    +0.041 A 
ATOM     16  C   UNL     1       0.240  -0.004  -0.655  0.00  0.00    +0.022 A 
ATOM     17  C   UNL     1       0.222   1.377  -0.657  0.00  0.00    +0.025 A 
ATOM     18 CL   UNL     1       1.224  -2.420   0.070  0.00  0.00    -0.084 Cl
ENDBRANCH   9  12
BRANCH   1  20
ATOM     19  N   UNL     1       4.095  10.304   0.663  0.00  0.00    -0.280 N 
ATOM     20  C   UNL     1       5.142   9.458   0.619  0.00  0.00    +0.267 C 
ATOM     21  O   UNL     1       6.278   9.891   0.677  0.00  0.00    -0.268 OA
ATOM     22  H   UNL     1       3.190   9.955   0.686  0.00  0.00    +0.155 HD
BRANCH  19  26
ATOM     23  C   UNL     1       4.740  14.419   0.706  0.00  0.00    -0.045 A 
ATOM     24  C   UNL     1       3.649  13.899   0.035  0.00  0.00    +0.006 A 
ATOM     25  C   UNL     1       3.432  12.535   0.019  0.00  0.00    +0.023 A 
ATOM     26  C   UNL     1       4.312  11.685   0.677  0.00  0.00    +0.034 A 
ATOM     27  C   UNL     1       5.404  12.211   1.355  0.00  0.00    +0.023 A 
ATOM     28  C   UNL     1       5.618  13.576   1.363  0.00  0.00    +0.006 A 
BRANCH  23  30
ATOM     29  C   UNL     1       4.961  16.411   2.166  0.00  0.00    +0.012 C 
ATOM     30  C   UNL     1       4.974  15.908   0.721  0.00  0.00    +0.013 C 
ATOM     31  C   UNL     1       6.332  16.217   0.086  0.00  0.00    +0.012 C 
ENDBRANCH  23  30
ENDBRANCH  19  26
ENDBRANCH   1  20
TORSDOF 4
