REMARK  Name = ZINC14551143
REMARK  5 active torsions:
REMARK  status: ('A' for Active; 'I' for Inactive)
REMARK    1  A    between atoms: C_1  and  C_2
REMARK    2  A    between atoms: C_2  and  N_3
REMARK    3  A    between atoms: C_4  and  C_6
REMARK    4  A    between atoms: C_19  and  C_22
REMARK    5  A    between atoms: C_25  and  N_28
REMARK                            x       y       z     vdW  Elec       q    Type
REMARK                         _______ _______ _______ _____ _____    ______ ____
ROOT
ATOM      1  C   UNL     1      -0.019  -2.785   0.015  0.00  0.00    +0.037 A 
ATOM      2  C   UNL     1      -1.222  -2.073   0.001  0.00  0.00    +0.015 A 
ATOM      3  C   UNL     1      -1.206  -0.698  -0.005  0.00  0.00    +0.024 A 
ATOM      4  C   UNL     1       0.002  -0.004   0.002  0.00  0.00    +0.031 A 
ATOM      5  C   UNL     1       1.208  -0.720   0.003  0.00  0.00    -0.019 A 
ATOM      6  C   UNL     1       1.195  -2.094   0.017  0.00  0.00    +0.019 A 
ATOM      7  C   UNL     1       2.465   0.059  -0.020  0.00  0.00    +0.049 C 
ATOM      8  C   UNL     1       3.735  -0.475   0.534  0.00  0.00    -0.023 C 
ATOM      9  C   UNL     1       4.455   0.539   0.997  0.00  0.00    -0.030 C 
ATOM     10  C   UNL     1       3.690   1.851   0.813  0.00  0.00    +0.033 C 
ATOM     11  C   UNL     1       2.235   1.362   0.804  0.00  0.00    +0.029 C 
ATOM     12  C   UNL     1       1.236   2.176   0.002  0.00  0.00    +0.105 C 
ATOM     13  N   UNL     1      -0.017   1.390   0.010  0.00  0.00    -0.336 N 
ATOM     14  H   UNL     1      -0.869   1.854   0.016  0.00  0.00    +0.147 HD
ENDROOT
BRANCH  12  15
ATOM     15  C   UNL     1       1.014   3.516   0.654  0.00  0.00    -0.027 A 
ATOM     16  C   UNL     1       0.222   3.613   1.783  0.00  0.00    +0.008 A 
ATOM     17  C   UNL     1       0.021   4.841   2.384  0.00  0.00    +0.033 A 
ATOM     18  C   UNL     1       0.605   5.975   1.850  0.00  0.00    +0.126 A 
ATOM     19  C   UNL     1       1.393   5.879   0.718  0.00  0.00    +0.033 A 
ATOM     20  C   UNL     1       1.597   4.650   0.120  0.00  0.00    +0.008 A 
BRANCH  18  21
ATOM     21  N   UNL     1       0.387   7.292   2.490  0.00  0.00    +0.056 N 
ATOM     22  O   UNL     1       0.901   8.290   2.020  0.00  0.00    -0.126 OA
ATOM     23  O   UNL     1      -0.307   7.376   3.487  0.00  0.00    -0.126 OA
ENDBRANCH  18  21
ENDBRANCH  12  15
BRANCH   1  25
ATOM     24  N   UNL     1      -1.204  -4.925   0.027  0.00  0.00    -0.312 N 
ATOM     25  C   UNL     1      -0.032  -4.261   0.028  0.00  0.00    +0.244 C 
ATOM     26  O   UNL     1       1.016  -4.878   0.041  0.00  0.00    -0.270 OA
ATOM     27  H   UNL     1      -2.040  -4.432   0.017  0.00  0.00    +0.149 HD
BRANCH  24  29
ATOM     28  C   UNL     1      -2.664  -6.887   0.035  0.00  0.00    +0.024 C 
ATOM     29  C   UNL     1      -1.217  -6.389   0.040  0.00  0.00    +0.101 C 
ENDBRANCH  24  29
ENDBRANCH   1  25
TORSDOF 4
