REMARK  Name = ZINC08935525
REMARK  7 active torsions:
REMARK  status: ('A' for Active; 'I' for Inactive)
REMARK    1  A    between atoms: C_1  and  C_2
REMARK    2  A    between atoms: C_5  and  C_7
REMARK    3  A    between atoms: C_7  and  C_9
REMARK    4  A    between atoms: C_7  and  N_45
REMARK    5  A    between atoms: C_9  and  N_10
REMARK    6  A    between atoms: N_10  and  C_11
REMARK    7  A    between atoms: C_12  and  N_16
REMARK                            x       y       z     vdW  Elec       q    Type
REMARK                         _______ _______ _______ _____ _____    ______ ____
ROOT
ATOM      1  C   UNL     1       1.368   3.191  -0.105  0.00  0.00    +0.017 C 
ENDROOT
BRANCH   1   7
ATOM      2  C   UNL     1      -0.892   3.953  -0.529  0.00  0.00    -0.049 C 
ATOM      3  C   UNL     1      -1.751   4.806  -1.466  0.00  0.00    +0.141 C 
ATOM      4  O   UNL     1      -1.639   4.302  -2.800  0.00  0.00    -0.383 OA
ATOM      5  C   UNL     1      -0.299   4.290  -3.299  0.00  0.00    +0.141 C 
ATOM      6  C   UNL     1       0.575   3.432  -2.381  0.00  0.00    -0.049 C 
ATOM      7  N   UNL     1       0.505   3.981  -1.011  0.00  0.00    +0.390 N 
ATOM      8  H   UNL     1       0.835   4.953  -1.023  0.00  0.00    -0.081 HD
ENDBRANCH   1   7
BRANCH   1  13
ATOM      9  C   UNL     1      -1.506  -0.950   0.075  0.00  0.00    +0.086 C 
ATOM     10  C   UNL     1      -0.296  -0.058  -0.034  0.00  0.00    +0.102 A 
ATOM     11  C   UNL     1       0.973  -0.471  -0.203  0.00  0.00    +0.044 A 
ATOM     12  C   UNL     1       1.778   0.689  -0.254  0.00  0.00    +0.043 A 
ATOM     13  C   UNL     1       0.953   1.742  -0.113  0.00  0.00    +0.093 A 
ATOM     14  O   UNL     1      -0.302   1.284   0.020  0.00  0.00    -0.466 OA
ENDBRANCH   1  13
BRANCH   1  15
ATOM     15  C   UNL     1       1.244   3.750   1.314  0.00  0.00    +0.095 C 
BRANCH  15  16
ATOM     16  N   UNL     1       1.531   5.186   1.300  0.00  0.00    -0.330 N 
ATOM     17  H   UNL     1       1.757   5.628   0.467  0.00  0.00    +0.147 HD
BRANCH  16  18
ATOM     18  C   UNL     1       1.480   5.916   2.482  0.00  0.00    +0.127 A 
ATOM     19  C   UNL     1       1.685   7.292   2.452  0.00  0.00    +0.164 A 
ATOM     20  C   UNL     1       1.631   8.006   3.635  0.00  0.00    +0.037 A 
ATOM     21  C   UNL     1       1.373   7.318   4.813  0.00  0.00    +0.020 A 
ATOM     22  C   UNL     1       1.179   5.952   4.770  0.00  0.00    +0.084 A 
ATOM     23  N   UNL     1       1.220   5.219   3.625  0.00  0.00    -0.348 N 
ATOM     24  H   UNL     1       1.064   4.204   3.622  0.00  0.00    +0.167 HD
BRANCH  19  25
ATOM     25  N   UNL     1       1.935   7.924   1.279  0.00  0.00    +0.060 N 
ATOM     26  O   UNL     1       2.642   7.394   0.441  0.00  0.00    -0.126 OA
ATOM     27  O   UNL     1       1.452   9.021   1.063  0.00  0.00    -0.126 OA
ENDBRANCH  19  25
ENDBRANCH  16  18
ENDBRANCH  15  16
ENDBRANCH   1  15
TORSDOF 6
