REMARK  Name = ZINC04355419
REMARK  10 active torsions:
REMARK  status: ('A' for Active; 'I' for Inactive)
REMARK    1  A    between atoms: C_1  and  C_2
REMARK    2  A    between atoms: C_2  and  C_3
REMARK    3  A    between atoms: C_3  and  N_4
REMARK    4  A    between atoms: C_8  and  C_9
REMARK    5  A    between atoms: C_10  and  C_23
REMARK    6  A    between atoms: N_12  and  C_15
REMARK    7  A    between atoms: C_13  and  O_14
REMARK    8  A    between atoms: C_19  and  C_22
REMARK    9  A    between atoms: C_20  and  C_21
REMARK   10  A    between atoms: C_23  and  C_24
REMARK                            x       y       z     vdW  Elec       q    Type
REMARK                         _______ _______ _______ _____ _____    ______ ____
ROOT
ATOM      1  C   UNL     1       1.636   5.619   0.082  0.00  0.00    +0.061 A 
ATOM      2  C   UNL     1       0.228   5.516   0.186  0.00  0.00    +0.074 A 
ATOM      3  N   UNL     1      -0.090   4.251   0.174  0.00  0.00    -0.168 NA
ATOM      4  N   UNL     1       1.076   3.484   0.072  0.00  0.00    -0.200 N 
ATOM      5  C   UNL     1       2.135   4.321   0.013  0.00  0.00    +0.223 A 
ENDROOT
BRANCH   1  10
ATOM      6  N   UNL     1       5.265   7.850   1.922  0.00  0.00    -0.221 N 
ATOM      7  C   UNL     1       4.346   8.132   0.979  0.00  0.00    +0.268 C 
ATOM      8  O   UNL     1       4.265   9.160   0.331  0.00  0.00    -0.268 OA
ATOM      9  C   UNL     1       3.488   7.004   0.882  0.00  0.00    +0.099 C 
ATOM     10  C   UNL     1       2.419   6.856   0.053  0.00  0.00    +0.043 C 
ATOM     11  N   UNL     1       3.965   6.076   1.821  0.00  0.00    -0.265 N 
ATOM     12  C   UNL     1       5.039   6.623   2.421  0.00  0.00    +0.313 C 
ATOM     13  O   UNL     1       5.703   6.089   3.289  0.00  0.00    -0.252 OA
ATOM     14  H   UNL     1       3.591   5.199   2.003  0.00  0.00    +0.157 HD
BRANCH   6  15
ATOM     15  C   UNL     1       6.346   8.745   2.341  0.00  0.00    +0.118 C 
BRANCH  15  17
ATOM     16  C   UNL     1       6.991  10.560   3.933  0.00  0.00    +0.005 C 
ATOM     17  C   UNL     1       5.862   9.625   3.495  0.00  0.00    +0.016 C 
ENDBRANCH  15  17
ENDBRANCH   6  15
ENDBRANCH   1  10
BRANCH   4  18
ATOM     18  C   UNL     1       1.135   2.085   0.034  0.00  0.00    +0.072 A 
ATOM     19  C   UNL     1       2.034   1.403   0.843  0.00  0.00    +0.028 A 
ATOM     20  C   UNL     1       2.089   0.024   0.802  0.00  0.00    +0.002 A 
ATOM     21  C   UNL     1       1.250  -0.679  -0.044  0.00  0.00    +0.004 A 
ATOM     22  C   UNL     1       0.354  -0.003  -0.851  0.00  0.00    -0.046 A 
ATOM     23  C   UNL     1       0.294   1.377  -0.815  0.00  0.00    -0.022 A 
ATOM     24  C   UNL     1      -0.679   2.113  -1.699  0.00  0.00    +0.046 C 
ATOM     25  C   UNL     1      -0.558  -0.772  -1.771  0.00  0.00    +0.044 C 
ENDBRANCH   4  18
BRANCH   5  26
ATOM     26  O   UNL     1       3.437   3.964  -0.094  0.00  0.00    -0.492 OA
ATOM     27  H   UNL     1       3.749   3.882  -1.006  0.00  0.00    +0.294 HD
ENDBRANCH   5  26
BRANCH   2  28
ATOM     28  C   UNL     1      -0.738   6.668   0.287  0.00  0.00    +0.054 C 
ATOM     29  C   UNL     1      -1.173   7.093  -1.117  0.00  0.00    +0.010 C 
ENDBRANCH   2  28
TORSDOF 6
