REMARK  Name = ZINC39431130
REMARK  7 active torsions:
REMARK  status: ('A' for Active; 'I' for Inactive)
REMARK    1  A    between atoms: C_1  and  C_2
REMARK    2  A    between atoms: C_2  and  C_4
REMARK    3  A    between atoms: C_2  and  S_16
REMARK    4  A    between atoms: S_16  and  C_17
REMARK    5  A    between atoms: C_21  and  C_31
REMARK    6  A    between atoms: N_23  and  C_24
REMARK    7  A    between atoms: C_24  and  C_25
REMARK                            x       y       z     vdW  Elec       q    Type
REMARK                         _______ _______ _______ _____ _____    ______ ____
ROOT
ATOM      1  C   UNL     1       2.630  -0.153   1.221  0.00  0.00    +0.257 C 
ATOM      2  N   UNL     1       2.527   1.304   1.064  0.00  0.00    -0.184 NA
ATOM      3  N   UNL     1       3.236   1.704   0.136  0.00  0.00    -0.289 N 
ATOM      4  C   UNL     1       3.949   0.593  -0.506  0.00  0.00    +0.203 C 
ATOM      5  N   UNL     1       3.240  -0.630  -0.046  0.00  0.00    -0.242 NA
ATOM      6  H   UNL     1       3.311   2.633  -0.134  0.00  0.00    +0.184 HD
ENDROOT
BRANCH   4   7
ATOM      7  C   UNL     1       3.871   0.716  -2.006  0.00  0.00    +0.009 A 
ATOM      8  C   UNL     1       2.886   0.043  -2.704  0.00  0.00    +0.008 A 
ATOM      9  C   UNL     1       2.814   0.156  -4.080  0.00  0.00    +0.000 A 
ATOM     10  C   UNL     1       3.727   0.941  -4.759  0.00  0.00    +0.001 A 
ATOM     11  C   UNL     1       4.712   1.614  -4.061  0.00  0.00    +0.020 A 
ATOM     12  C   UNL     1       4.781   1.506  -2.684  0.00  0.00    +0.047 A 
ATOM     13 CL   UNL     1       6.015   2.357  -1.807  0.00  0.00    -0.083 Cl
ENDBRANCH   4   7
BRANCH   1  14
ATOM     14  S   UNL     1       0.984  -0.882   1.443  0.00  0.00    -0.106 S 
BRANCH  14  16
ATOM     15  C   UNL     1      -0.089   1.167  -0.015  0.00  0.00    +0.027 C 
ATOM     16  C   UNL     1       0.067  -0.355  -0.030  0.00  0.00    +0.112 C 
BRANCH  16  17
ATOM     17  C   UNL     1      -1.295  -1.000  -0.032  0.00  0.00    +0.123 A 
ATOM     18  N   UNL     1      -2.172  -0.650  -1.009  0.00  0.00    -0.309 N 
ATOM     19  H   UNL     1      -1.910  -0.000  -1.680  0.00  0.00    +0.170 HD
ATOM     20  C   UNL     1      -3.407  -1.202  -1.056  0.00  0.00    +0.259 A 
ATOM     21  O   UNL     1      -4.202  -0.898  -1.926  0.00  0.00    -0.267 OA
ATOM     22  C   UNL     1      -3.751  -2.181  -0.014  0.00  0.00    +0.065 A 
ATOM     23  C   UNL     1      -4.996  -2.805   0.029  0.00  0.00    +0.015 A 
ATOM     24  C   UNL     1      -5.265  -3.715   1.027  0.00  0.00    +0.001 A 
ATOM     25  C   UNL     1      -4.307  -4.013   1.988  0.00  0.00    +0.002 A 
ATOM     26  C   UNL     1      -3.071  -3.407   1.964  0.00  0.00    +0.028 A 
ATOM     27  C   UNL     1      -2.775  -2.481   0.962  0.00  0.00    +0.078 A 
ATOM     28  N   UNL     1      -1.568  -1.865   0.897  0.00  0.00    -0.233 NA
ENDBRANCH  16  17
ENDBRANCH  14  16
ENDBRANCH   1  14
BRANCH   5  29
ATOM     29  C   UNL     1       4.185  -1.726   0.205  0.00  0.00    +0.124 C 
BRANCH  29  30
ATOM     30  C   UNL     1       3.425  -2.958   0.627  0.00  0.00    -0.033 A 
ATOM     31  C   UNL     1       3.160  -3.182   1.965  0.00  0.00    +0.005 A 
ATOM     32  C   UNL     1       2.463  -4.311   2.352  0.00  0.00    +0.000 A 
ATOM     33  C   UNL     1       2.031  -5.216   1.401  0.00  0.00    +0.000 A 
ATOM     34  C   UNL     1       2.296  -4.992   0.062  0.00  0.00    +0.000 A 
ATOM     35  C   UNL     1       2.989  -3.860  -0.325  0.00  0.00    +0.005 A 
ENDBRANCH  29  30
ENDBRANCH   5  29
TORSDOF 6
