REMARK  Name = ZINC38596091
REMARK  10 active torsions:
REMARK  status: ('A' for Active; 'I' for Inactive)
REMARK    1  A    between atoms: C_1  and  C_2
REMARK    2  A    between atoms: C_7  and  S_8
REMARK    3  A    between atoms: S_8  and  N_11
REMARK    4  A    between atoms: N_11  and  C_12
REMARK    5  A    between atoms: C_12  and  C_14
REMARK    6  A    between atoms: C_12  and  C_15
REMARK    7  A    between atoms: C_15  and  C_17
REMARK    8  A    between atoms: C_15  and  N_22
REMARK    9  A    between atoms: N_25  and  C_28
REMARK   10  A    between atoms: C_28  and  C_29
REMARK                            x       y       z     vdW  Elec       q    Type
REMARK                         _______ _______ _______ _____ _____    ______ ____
ROOT
ATOM      1  C   UNL     1       1.797   3.344   2.748  0.00  0.00    +0.112 C 
ENDROOT
BRANCH   1   2
ATOM      2  N   UNL     1       1.444   4.513   1.933  0.00  0.00    -0.297 NA
ATOM      3  C   UNL     1       2.083   5.731   2.452  0.00  0.00    +0.066 C 
ATOM      4  C   UNL     1       1.739   6.912   1.543  0.00  0.00    -0.063 C 
ATOM      5  N   UNL     1       0.281   7.086   1.497  0.00  0.00    +0.384 N 
ATOM      6  C   UNL     1      -0.342   5.872   0.953  0.00  0.00    -0.063 C 
ATOM      7  C   UNL     1      -0.015   4.682   1.857  0.00  0.00    +0.066 C 
ATOM      8  H   UNL     1      -0.067   7.254   2.429  0.00  0.00    -0.081 HD
BRANCH   5   9
ATOM      9  C   UNL     1      -0.048   8.232   0.638  0.00  0.00    -0.043 C 
BRANCH   9  10
ATOM     10  C   UNL     1      -1.533   8.486   0.688  0.00  0.00    -0.064 A 
ATOM     11  C   UNL     1      -2.372   7.858  -0.213  0.00  0.00    +0.002 A 
ATOM     12  C   UNL     1      -3.734   8.092  -0.167  0.00  0.00    +0.000 A 
ATOM     13  C   UNL     1      -4.256   8.953   0.780  0.00  0.00    +0.000 A 
ATOM     14  C   UNL     1      -3.417   9.581   1.681  0.00  0.00    +0.000 A 
ATOM     15  C   UNL     1      -2.055   9.344   1.638  0.00  0.00    +0.002 A 
ENDBRANCH   9  10
ENDBRANCH   5   9
ENDBRANCH   1   2
BRANCH   1  16
ATOM     16  C   UNL     1       3.296   3.196   2.791  0.00  0.00    +0.008 A 
ATOM     17  C   UNL     1       4.091   2.846   3.832  0.00  0.00    +0.013 A 
ATOM     18  C   UNL     1       5.457   2.772   3.637  0.00  0.00    +0.008 A 
ATOM     19  C   UNL     1       5.963   3.052   2.411  0.00  0.00    +0.045 A 
ATOM     20  S   UNL     1       4.487   3.428   1.480  0.00  0.00    -0.100 S 
ENDBRANCH   1  16
BRANCH   1  21
ATOM     21  C   UNL     1       1.178   2.087   2.133  0.00  0.00    +0.095 C 
ATOM     22  C   UNL     1       1.634   1.953   0.679  0.00  0.00    +0.027 C 
BRANCH  21  23
ATOM     23  N   UNL     1       1.609   0.910   2.890  0.00  0.00    -0.185 NA
ATOM     24  H   UNL     1       2.507   0.869   3.254  0.00  0.00    +0.148 HD
BRANCH  23  25
ATOM     25  S   UNL     1       0.562  -0.352   3.127  0.00  0.00    +0.059 S 
ATOM     26  O   UNL     1      -0.652   0.212   3.602  0.00  0.00    -0.153 OA
ATOM     27  O   UNL     1       1.277  -1.343   3.851  0.00  0.00    -0.153 OA
BRANCH  25  34
ATOM     28  C   UNL     1       2.616  -1.712   1.373  0.00  0.00    +0.046 C 
ATOM     29  C   UNL     1       1.219  -1.644   0.814  0.00  0.00    -0.021 A 
ATOM     30  C   UNL     1       0.944  -2.189  -0.426  0.00  0.00    +0.043 A 
ATOM     31  C   UNL     1      -0.340  -2.127  -0.939  0.00  0.00    +0.124 A 
ATOM     32  C   UNL     1      -1.348  -1.518  -0.210  0.00  0.00    +0.040 A 
ATOM     33  C   UNL     1      -1.070  -0.973   1.029  0.00  0.00    +0.031 A 
ATOM     34  C   UNL     1       0.211  -1.041   1.543  0.00  0.00    +0.108 A 
ATOM     35  F   UNL     1      -0.610  -2.660  -2.151  0.00  0.00    -0.205 F 
ENDBRANCH  25  34
ENDBRANCH  23  25
ENDBRANCH  21  23
ENDBRANCH   1  21
TORSDOF 8
