REMARK  Name = ZINC04513614
REMARK  6 active torsions:
REMARK  status: ('A' for Active; 'I' for Inactive)
REMARK    1  A    between atoms: C_1  and  C_2
REMARK    2  A    between atoms: C_2  and  C_3
REMARK    3  A    between atoms: C_8  and  N_9
REMARK    4  A    between atoms: C_10  and  C_20
REMARK    5  A    between atoms: C_15  and  C_18
REMARK    6  A    between atoms: C_23  and  N_26
REMARK                            x       y       z     vdW  Elec       q    Type
REMARK                         _______ _______ _______ _____ _____    ______ ____
ROOT
ATOM      1  N   UNL     1      -1.148   3.450  -0.556  0.00  0.00    -0.270 N 
ATOM      2  C   UNL     1      -1.096   2.105   0.027  0.00  0.00    +0.197 C 
ATOM      3  N   UNL     1      -2.098   1.251  -0.612  0.00  0.00    -0.288 N 
ATOM      4  C   UNL     1      -2.453   1.453  -1.897  0.00  0.00    +0.258 C 
ATOM      5  O   UNL     1      -3.256   0.712  -2.434  0.00  0.00    -0.269 OA
ATOM      6  C   UNL     1      -1.868   2.570  -2.642  0.00  0.00    +0.142 C 
ATOM      7  C   UNL     1      -1.209   3.579  -1.920  0.00  0.00    +0.103 C 
ATOM      8  S   UNL     1      -0.487   4.962  -2.739  0.00  0.00    -0.033 SA
ATOM      9  H   UNL     1      -2.569   0.435  -0.044  0.00  0.00    +0.151 HD
ENDROOT
BRANCH   1  15
ATOM     10  C   UNL     1      -2.327   5.193   0.628  0.00  0.00    -0.026 A 
ATOM     11  C   UNL     1      -2.309   6.311   1.439  0.00  0.00    +0.005 A 
ATOM     12  C   UNL     1      -1.106   6.823   1.888  0.00  0.00    +0.000 A 
ATOM     13  C   UNL     1       0.084   6.217   1.528  0.00  0.00    +0.002 A 
ATOM     14  C   UNL     1       0.073   5.096   0.722  0.00  0.00    +0.024 A 
ATOM     15  C   UNL     1      -1.134   4.582   0.264  0.00  0.00    +0.040 A 
BRANCH  10  17
ATOM     16  C   UNL     1      -4.098   3.516   1.073  0.00  0.00    +0.009 C 
ATOM     17  C   UNL     1      -3.639   4.637   0.138  0.00  0.00    +0.033 C 
ENDBRANCH  10  17
ENDBRANCH   1  15
BRANCH   2  18
ATOM     18  C   UNL     1       0.275   1.518  -0.188  0.00  0.00    -0.009 A 
ATOM     19  C   UNL     1       1.104   1.283   0.892  0.00  0.00    +0.009 A 
ATOM     20  C   UNL     1       2.364   0.750   0.694  0.00  0.00    +0.033 A 
ATOM     21  C   UNL     1       2.795   0.452  -0.586  0.00  0.00    +0.126 A 
ATOM     22  C   UNL     1       1.965   0.687  -1.666  0.00  0.00    +0.033 A 
ATOM     23  C   UNL     1       0.706   1.220  -1.468  0.00  0.00    +0.009 A 
BRANCH  21  24
ATOM     24  N   UNL     1       4.144  -0.119  -0.798  0.00  0.00    +0.056 N 
ATOM     25  O   UNL     1       4.523  -0.382  -1.925  0.00  0.00    -0.126 OA
ATOM     26  O   UNL     1       4.874  -0.326   0.154  0.00  0.00    -0.126 OA
ENDBRANCH  21  24
ENDBRANCH   2  18
BRANCH   6  27
ATOM     27  C   UNL     1      -1.964   2.631  -4.070  0.00  0.00    +0.107 C 
ATOM     28  N   UNL     1      -2.041   2.680  -5.202  0.00  0.00    -0.191 NA
ENDBRANCH   6  27
TORSDOF 5
