REMARK  Name = ZINC00860689
REMARK  7 active torsions:
REMARK  status: ('A' for Active; 'I' for Inactive)
REMARK    1  A    between atoms: C_1  and  O_2
REMARK    2  A    between atoms: O_2  and  C_3
REMARK    3  A    between atoms: C_6  and  C_11
REMARK    4  A    between atoms: C_8  and  O_9
REMARK    5  A    between atoms: O_9  and  C_10
REMARK    6  A    between atoms: N_13  and  N_14
REMARK    7  A    between atoms: C_15  and  C_17
REMARK                            x       y       z     vdW  Elec       q    Type
REMARK                         _______ _______ _______ _____ _____    ______ ____
ROOT
ATOM      1  N   UNL     1       4.843   5.326  -0.016  0.00  0.00    -0.230 N 
ATOM      2  C   UNL     1       4.835   3.978  -0.024  0.00  0.00    +0.267 C 
ATOM      3  O   UNL     1       5.885   3.364  -0.037  0.00  0.00    -0.268 OA
ATOM      4  H   UNL     1       4.005   5.816  -0.005  0.00  0.00    +0.173 HD
ENDROOT
BRANCH   2   5
ATOM      5  C   UNL     1       3.555   3.249  -0.015  0.00  0.00    +0.123 A 
ATOM      6  C   UNL     1       2.353   3.936   0.000  0.00  0.00    +0.031 A 
ATOM      7  C   UNL     1       1.145   3.193   0.008  0.00  0.00    +0.018 A 
ATOM      8  C   UNL     1      -0.091   3.857   0.024  0.00  0.00    +0.011 A 
ATOM      9  C   UNL     1      -1.250   3.137   0.031  0.00  0.00    +0.001 A 
ATOM     10  C   UNL     1      -1.216   1.749   0.017  0.00  0.00    +0.004 A 
ATOM     11  C   UNL     1      -0.013   1.076   0.008  0.00  0.00    +0.047 A 
ATOM     12  C   UNL     1       1.182   1.788   0.000  0.00  0.00    +0.139 A 
ATOM     13  O   UNL     1       2.359   1.126  -0.015  0.00  0.00    -0.422 OA
ATOM     14  C   UNL     1       3.531   1.782  -0.023  0.00  0.00    +0.350 A 
ATOM     15  O   UNL     1       4.576   1.158  -0.037  0.00  0.00    -0.244 OA
ENDBRANCH   2   5
BRANCH   1  18
ATOM     16  C   UNL     1       6.068   7.367  -0.016  0.00  0.00    +0.260 C 
ATOM     17  O   UNL     1       5.018   7.981  -0.003  0.00  0.00    -0.269 OA
ATOM     18  N   UNL     1       6.060   6.019  -0.024  0.00  0.00    -0.230 N 
ATOM     19  H   UNL     1       6.897   5.530  -0.035  0.00  0.00    +0.173 HD
BRANCH  16  23
ATOM     20  C   UNL     1       9.763   9.466  -0.040  0.00  0.00    +0.162 A 
ATOM     21  C   UNL     1       9.753   8.078  -0.048  0.00  0.00    +0.050 A 
ATOM     22  C   UNL     1       8.557   7.394  -0.035  0.00  0.00    +0.017 A 
ATOM     23  C   UNL     1       7.350   8.098  -0.025  0.00  0.00    +0.042 A 
ATOM     24  C   UNL     1       7.360   9.495  -0.017  0.00  0.00    +0.062 A 
ATOM     25  C   UNL     1       8.563  10.174  -0.024  0.00  0.00    +0.162 A 
BRANCH  20  27
ATOM     26  C   UNL     1      12.137   9.347  -0.062  0.00  0.00    +0.277 C 
ATOM     27  O   UNL     1      10.945  10.135  -0.047  0.00  0.00    -0.491 OA
ENDBRANCH  20  27
BRANCH  25  28
ATOM     28  O   UNL     1       8.576  11.534  -0.017  0.00  0.00    -0.491 OA
ATOM     29  C   UNL     1       7.309  12.195  -0.002  0.00  0.00    +0.277 C 
ENDBRANCH  25  28
ENDBRANCH  16  23
ENDBRANCH   1  18
TORSDOF 5
