REMARK  Name = ZINC54405667
REMARK  7 active torsions:
REMARK  status: ('A' for Active; 'I' for Inactive)
REMARK    1  A    between atoms: C_1  and  C_2
REMARK    2  A    between atoms: C_5  and  C_7
REMARK    3  A    between atoms: C_7  and  C_9
REMARK    4  A    between atoms: C_7  and  N_10
REMARK    5  A    between atoms: N_13  and  C_14
REMARK    6  A    between atoms: C_17  and  C_20
REMARK    7  A    between atoms: N_24  and  C_25
REMARK                            x       y       z     vdW  Elec       q    Type
REMARK                         _______ _______ _______ _____ _____    ______ ____
ROOT
ATOM      1  N   UNL     1       2.726  -4.254  -0.393  0.00  0.00    -0.292 N 
ATOM      2  C   UNL     1       3.042  -5.415  -1.001  0.00  0.00    +0.304 C 
ATOM      3  O   UNL     1       2.682  -6.471  -0.519  0.00  0.00    -0.252 OA
ATOM      4  N   UNL     1       3.758  -5.404  -2.143  0.00  0.00    -0.269 N 
ATOM      5  H   UNL     1       3.013  -3.411  -0.778  0.00  0.00    +0.151 HD
ATOM      6  H   UNL     1       3.986  -4.561  -2.564  0.00  0.00    +0.156 HD
ENDROOT
BRANCH   4   7
ATOM      7  C   UNL     1       4.171  -6.608  -2.720  0.00  0.00    +0.035 A 
ATOM      8  C   UNL     1       3.349  -7.727  -2.653  0.00  0.00    +0.024 A 
ATOM      9  C   UNL     1       3.753  -8.916  -3.221  0.00  0.00    +0.013 A 
ATOM     10  C   UNL     1       4.989  -8.995  -3.864  0.00  0.00    +0.021 A 
ATOM     11  C   UNL     1       5.812  -7.870  -3.930  0.00  0.00    +0.013 A 
ATOM     12  C   UNL     1       5.400  -6.683  -3.365  0.00  0.00    +0.024 A 
BRANCH  10  13
ATOM     13  C   UNL     1       5.426 -10.270  -4.474  0.00  0.00    +0.182 A 
ATOM     14  N   UNL     1       4.942 -11.467  -4.218  0.00  0.00    -0.108 NA
ATOM     15  N   UNL     1       5.546 -12.356  -4.922  0.00  0.00    -0.023 NA
ATOM     16  N   UNL     1       6.444 -11.807  -5.666  0.00  0.00    -0.043 NA
ATOM     17  N   UNL     1       6.398 -10.425  -5.408  0.00  0.00    -0.222 N 
BRANCH  17  18
ATOM     18  C   UNL     1       7.225  -9.379  -6.014  0.00  0.00    +0.111 C 
ATOM     19  C   UNL     1       8.236  -9.807  -7.080  0.00  0.00    +0.029 C 
ATOM     20  C   UNL     1       8.721  -9.385  -5.692  0.00  0.00    +0.029 C 
ENDBRANCH  17  18
ENDBRANCH  10  13
ENDBRANCH   4   7
BRANCH   1  21
ATOM     21  C   UNL     1       1.948  -4.265   0.848  0.00  0.00    +0.108 C 
ATOM     22  C   UNL     1       2.889  -4.462   2.038  0.00  0.00    +0.033 C 
BRANCH  21  27
ATOM     23  C   UNL     1       0.040   1.065   1.055  0.00  0.00    +0.051 C 
ATOM     24  C   UNL     1       0.310  -0.417   1.095  0.00  0.00    -0.013 A 
ATOM     25  C   UNL     1      -0.506  -1.424   1.493  0.00  0.00    +0.011 A 
ATOM     26  C   UNL     1      -0.041  -2.724   1.442  0.00  0.00    +0.013 A 
ATOM     27  C   UNL     1       1.218  -2.955   0.996  0.00  0.00    +0.010 A 
ATOM     28  S   UNL     1       1.786  -1.304   0.622  0.00  0.00    -0.097 S 
ENDBRANCH  21  27
ENDBRANCH   1  21
TORSDOF 5
