REMARK  Name = ZINC13365288
REMARK  8 active torsions:
REMARK  status: ('A' for Active; 'I' for Inactive)
REMARK    1  A    between atoms: C_1  and  N_2
REMARK    2  A    between atoms: C_6  and  S_7
REMARK    3  A    between atoms: S_7  and  C_8
REMARK    4  A    between atoms: C_11  and  N_14
REMARK    5  A    between atoms: N_14  and  S_15
REMARK    6  A    between atoms: S_15  and  C_18
REMARK    7  A    between atoms: N_25  and  C_32
REMARK    8  A    between atoms: N_28  and  C_31
REMARK                            x       y       z     vdW  Elec       q    Type
REMARK                         _______ _______ _______ _____ _____    ______ ____
ROOT
ATOM      1  C   UNL     1       4.114  -1.933  -4.280  0.00  0.00    +0.016 A 
ATOM      2  C   UNL     1       3.470  -3.162  -4.356  0.00  0.00    +0.017 A 
ATOM      3  C   UNL     1       2.475  -3.476  -3.452  0.00  0.00    +0.025 A 
ATOM      4  C   UNL     1       2.118  -2.564  -2.467  0.00  0.00    +0.048 A 
ATOM      5  C   UNL     1       2.758  -1.333  -2.395  0.00  0.00    +0.025 A 
ATOM      6  C   UNL     1       3.757  -1.021  -3.295  0.00  0.00    +0.017 A 
ENDROOT
BRANCH   4   7
ATOM      7  N   UNL     1       1.109  -2.882  -1.551  0.00  0.00    -0.216 N 
ATOM      8  H   UNL     1       0.235  -2.469  -1.629  0.00  0.00    +0.174 HD
BRANCH   7   9
ATOM      9  S   UNL     1       1.408  -3.965  -0.334  0.00  0.00    +0.072 S 
ATOM     10  O   UNL     1       1.977  -5.115  -0.944  0.00  0.00    -0.150 OA
ATOM     11  O   UNL     1       0.227  -4.026   0.454  0.00  0.00    -0.150 OA
BRANCH   9  12
ATOM     12  C   UNL     1       2.660  -3.266   0.690  0.00  0.00    +0.109 A 
ATOM     13  C   UNL     1       2.317  -2.381   1.694  0.00  0.00    +0.031 A 
ATOM     14  C   UNL     1       3.299  -1.832   2.498  0.00  0.00    +0.040 A 
ATOM     15  C   UNL     1       4.626  -2.169   2.296  0.00  0.00    +0.124 A 
ATOM     16  C   UNL     1       4.969  -3.055   1.289  0.00  0.00    +0.040 A 
ATOM     17  C   UNL     1       3.986  -3.603   0.487  0.00  0.00    +0.031 A 
ATOM     18  F   UNL     1       5.587  -1.633   3.080  0.00  0.00    -0.205 F 
ENDBRANCH   9  12
ENDBRANCH   7   9
ENDBRANCH   4   7
BRANCH   1  19
ATOM     19  S   UNL     1       5.385  -1.532  -5.434  0.00  0.00    -0.052 S 
BRANCH  19  25
ATOM     20  C   UNL     1       6.278  -0.576  -8.424  0.00  0.00    +0.151 C 
ATOM     21  N   UNL     1       4.883  -0.534  -7.979  0.00  0.00    -0.316 N 
ATOM     22  C   UNL     1       3.789  -0.106  -8.720  0.00  0.00    +0.152 A 
ATOM     23  C   UNL     1       2.678  -0.244  -7.894  0.00  0.00    +0.169 A 
ATOM     24  N   UNL     1       3.101  -0.735  -6.729  0.00  0.00    -0.203 NA
ATOM     25  C   UNL     1       4.407  -0.908  -6.760  0.00  0.00    +0.176 A 
ATOM     26  N   UNL     1       1.433   0.116  -8.385  0.00  0.00    -0.280 N 
ATOM     27  C   UNL     1       1.313   0.589  -9.640  0.00  0.00    +0.333 A 
ATOM     28  O   UNL     1       0.213   0.899 -10.054  0.00  0.00    -0.246 OA
ATOM     29  N   UNL     1       2.381   0.726 -10.445  0.00  0.00    -0.262 N 
ATOM     30  C   UNL     1       3.618   0.393 -10.023  0.00  0.00    +0.282 A 
ATOM     31  O   UNL     1       4.577   0.523 -10.764  0.00  0.00    -0.265 OA
ATOM     32  C   UNL     1       2.197   1.247 -11.803  0.00  0.00    +0.157 C 
ATOM     33  C   UNL     1       0.245  -0.019  -7.537  0.00  0.00    +0.155 C 
ENDBRANCH  19  25
ENDBRANCH   1  19
TORSDOF 5
