REMARK  Name = ZINC41391598
REMARK  5 active torsions:
REMARK  status: ('A' for Active; 'I' for Inactive)
REMARK    1  A    between atoms: C_1  and  C_2
REMARK    2  A    between atoms: C_2  and  C_3
REMARK    3  A    between atoms: C_2  and  C_4
REMARK    4  A    between atoms: C_6  and  C_11
REMARK    5  A    between atoms: C_11  and  N_12
REMARK                            x       y       z     vdW  Elec       q    Type
REMARK                         _______ _______ _______ _____ _____    ______ ____
ROOT
ATOM      1  C   UNL     1      -1.412  -0.526   0.013  0.00  0.00    +0.113 A 
ATOM      2  N   UNL     1      -2.364   0.220   0.507  0.00  0.00    -0.237 NA
ATOM      3  C   UNL     1      -3.631  -0.197   0.539  0.00  0.00    +0.068 A 
ATOM      4  C   UNL     1      -3.955  -1.426   0.048  0.00  0.00    +0.095 A 
ATOM      5  C   UNL     1      -2.927  -2.231  -0.486  0.00  0.00    +0.252 A 
ATOM      6  N   UNL     1      -1.666  -1.748  -0.493  0.00  0.00    -0.311 N 
ATOM      7  O   UNL     1      -3.174  -3.337  -0.936  0.00  0.00    -0.268 OA
ATOM      8  H   UNL     1      -0.944  -2.283  -0.859  0.00  0.00    +0.170 HD
ENDROOT
BRANCH   1  10
ATOM      9  C   UNL     1      -0.019   1.526   0.010  0.00  0.00    +0.015 C 
ATOM     10  C   UNL     1       0.002  -0.004   0.002  0.00  0.00    +0.049 C 
ATOM     11  C   UNL     1       0.742  -0.511   1.242  0.00  0.00    +0.015 C 
ENDBRANCH   1  10
BRANCH   3  12
ATOM     12  C   UNL     1      -4.704   0.690   1.118  0.00  0.00    +0.178 C 
BRANCH  12  13
ATOM     13  N   UNL     1      -4.755   0.509   2.571  0.00  0.00    -0.324 N 
ATOM     14  C   UNL     1      -5.582  -0.333   3.249  0.00  0.00    +0.200 A 
ATOM     15  N   UNL     1      -5.360  -0.241   4.528  0.00  0.00    -0.236 NA
ATOM     16  C   UNL     1      -4.376   0.665   4.758  0.00  0.00    +0.089 A 
ATOM     17  C   UNL     1      -3.971   1.155   3.505  0.00  0.00    +0.069 A 
ATOM     18  C   UNL     1      -2.962   2.106   3.428  0.00  0.00    +0.028 A 
ATOM     19  C   UNL     1      -2.362   2.560   4.584  0.00  0.00    +0.002 A 
ATOM     20  C   UNL     1      -2.761   2.074   5.821  0.00  0.00    +0.002 A 
ATOM     21  C   UNL     1      -3.757   1.143   5.916  0.00  0.00    +0.030 A 
ENDBRANCH  12  13
ENDBRANCH   3  12
TORSDOF 3
