REMARK  Name = ZINC66465859
REMARK  4 active torsions:
REMARK  status: ('A' for Active; 'I' for Inactive)
REMARK    1  A    between atoms: C_6  and  C_7
REMARK    2  A    between atoms: C_11  and  N_13
REMARK    3  A    between atoms: N_13  and  O_14
REMARK    4  A    between atoms: O_14  and  C_15
REMARK                            x       y       z     vdW  Elec       q    Type
REMARK                         _______ _______ _______ _____ _____    ______ ____
ROOT
ATOM      1  C   UNL     1      -1.261  -0.784   0.010  0.00  0.00    +0.162 A 
ATOM      2  N   UNL     1      -1.202  -2.107   0.008  0.00  0.00    -0.232 NA
ATOM      3  C   UNL     1      -2.307  -2.839   0.016  0.00  0.00    +0.050 A 
ATOM      4  C   UNL     1      -3.534  -2.204   0.026  0.00  0.00    +0.018 A 
ATOM      5  C   UNL     1      -3.565  -0.808   0.028  0.00  0.00    +0.158 A 
ATOM      6  N   UNL     1      -2.418  -0.138   0.025  0.00  0.00    -0.208 NA
ATOM      7  C   UNL     1      -4.644  -3.229   0.033  0.00  0.00    +0.041 C 
ATOM      8  C   UNL     1      -3.977  -4.549  -0.410  0.00  0.00    +0.011 C 
ATOM      9  C   UNL     1      -2.508  -4.338   0.016  0.00  0.00    +0.056 C 
ENDROOT
BRANCH   1  15
ATOM     10  C   UNL     1      -0.017   1.393   0.010  0.00  0.00    +0.031 A 
ATOM     11  C   UNL     1       1.181   2.079   0.002  0.00  0.00    +0.111 A 
ATOM     12  N   UNL     1       2.331   1.433  -0.013  0.00  0.00    -0.263 NA
ATOM     13  C   UNL     1       2.393   0.116  -0.020  0.00  0.00    +0.111 A 
ATOM     14  C   UNL     1       1.242  -0.647  -0.013  0.00  0.00    +0.031 A 
ATOM     15  C   UNL     1       0.002  -0.004   0.002  0.00  0.00    +0.022 A 
ENDBRANCH   1  15
BRANCH   5  16
ATOM     16  N   UNL     1      -4.775  -0.132   0.038  0.00  0.00    -0.245 N 
ATOM     17  H   UNL     1      -5.608  -0.628   0.043  0.00  0.00    +0.196 HD
BRANCH  16  18
ATOM     18  O   UNL     1      -4.794   1.284   0.040  0.00  0.00    -0.241 OA
BRANCH  18  19
ATOM     19  C   UNL     1      -6.107   1.847   0.051  0.00  0.00    +0.278 C 
ATOM     20  C   UNL     1      -6.079   3.196   0.773  0.00  0.00    +0.064 C 
ATOM     21  C   UNL     1      -7.477   3.821   0.728  0.00  0.00    +0.007 C 
ATOM     22  C   UNL     1      -7.917   3.954  -0.733  0.00  0.00    +0.028 C 
ATOM     23  C   UNL     1      -7.875   2.575  -1.398  0.00  0.00    +0.163 C 
ATOM     24  O   UNL     1      -6.555   2.037  -1.293  0.00  0.00    -0.349 OA
ENDBRANCH  18  19
ENDBRANCH  16  18
ENDBRANCH   5  16
TORSDOF 4
