REMARK  Name = ZINC19863224
REMARK  6 active torsions:
REMARK  status: ('A' for Active; 'I' for Inactive)
REMARK    1  A    between atoms: C_1  and  C_2
REMARK    2  A    between atoms: C_5  and  C_8
REMARK    3  A    between atoms: C_8  and  C_19
REMARK    4  A    between atoms: N_9  and  N_10
REMARK    5  A    between atoms: C_11  and  C_13
REMARK    6  A    between atoms: C_14  and  C_18
REMARK                            x       y       z     vdW  Elec       q    Type
REMARK                         _______ _______ _______ _____ _____    ______ ____
ROOT
ATOM      1  C   UNL     1       1.905   6.644   0.019  0.00  0.00    +0.063 C 
ATOM      2  N   UNL     1       2.542   5.513   0.007  0.00  0.00    -0.184 NA
ATOM      3  C   UNL     1       0.398   6.660   0.034  0.00  0.00    +0.068 C 
ENDROOT
BRANCH   1   8
ATOM      4  C   UNL     1       4.832  11.594   0.014  0.00  0.00    +0.044 C 
ATOM      5  C   UNL     1       4.065  10.297   0.016  0.00  0.00    -0.050 A 
ATOM      6  C   UNL     1       4.748   9.093   0.003  0.00  0.00    +0.004 A 
ATOM      7  C   UNL     1       4.052   7.902   0.004  0.00  0.00    +0.010 A 
ATOM      8  C   UNL     1       2.655   7.913   0.018  0.00  0.00    -0.003 A 
ATOM      9  C   UNL     1       1.973   9.132   0.025  0.00  0.00    +0.010 A 
ATOM     10  C   UNL     1       2.682  10.315   0.030  0.00  0.00    +0.004 A 
ENDBRANCH   1   8
BRANCH   2  11
ATOM     11  N   UNL     1       1.828   4.307   0.007  0.00  0.00    -0.202 N 
ATOM     12  C   UNL     1       2.490   3.133  -0.005  0.00  0.00    +0.273 C 
ATOM     13  O   UNL     1       3.706   3.120  -0.017  0.00  0.00    -0.268 OA
ATOM     14  H   UNL     1       0.729   4.319   0.018  0.00  0.00    +0.178 HD
BRANCH  12  15
ATOM     15  C   UNL     1       1.741   1.867  -0.004  0.00  0.00    +0.118 A 
ATOM     16  C   UNL     1       2.203   0.555  -0.016  0.00  0.00    +0.081 A 
ATOM     17  N   UNL     1       1.241  -0.336  -0.012  0.00  0.00    -0.146 NA
ATOM     18  N   UNL     1       0.002  -0.004   0.002  0.00  0.00    -0.110 NA
ATOM     19  S   UNL     1      -0.019   1.576   0.011  0.00  0.00    +0.042 S 
ATOM     20  C   UNL     1       3.666   0.194  -0.032  0.00  0.00    +0.069 C 
ENDBRANCH  12  15
ENDBRANCH   2  11
TORSDOF 3
