REMARK  Name = ZINC65808448
REMARK  6 active torsions:
REMARK  status: ('A' for Active; 'I' for Inactive)
REMARK    1  A    between atoms: C_1  and  C_2
REMARK    2  A    between atoms: C_2  and  C_3
REMARK    3  A    between atoms: C_3  and  C_26
REMARK    4  A    between atoms: N_6  and  C_10
REMARK    5  A    between atoms: C_10  and  C_11
REMARK    6  A    between atoms: C_16  and  C_19
REMARK                            x       y       z     vdW  Elec       q    Type
REMARK                         _______ _______ _______ _____ _____    ______ ____
ROOT
ATOM      1  C   UNL     1      -3.662  -4.181  -1.202  0.00  0.00    +0.237 C 
ATOM      2  O   UNL     1      -4.323  -3.484  -0.462  0.00  0.00    -0.274 OA
ATOM      3  N   UNL     1      -4.097  -5.412  -1.534  0.00  0.00    -0.263 N 
ATOM      4  C   UNL     1      -5.303  -5.883  -1.028  0.00  0.00    +0.165 A 
ATOM      5  N   UNL     1      -5.894  -7.047  -1.226  0.00  0.00    -0.225 NA
ATOM      6  C   UNL     1      -7.056  -7.333  -0.659  0.00  0.00    +0.083 A 
ATOM      7  C   UNL     1      -7.655  -6.406   0.147  0.00  0.00    +0.077 A 
ATOM      8  S   UNL     1      -6.461  -5.077   0.068  0.00  0.00    -0.060 S 
ATOM      9  H   UNL     1      -3.568  -5.970  -2.126  0.00  0.00    +0.157 HD
ENDROOT
BRANCH   6  10
ATOM     10  C   UNL     1      -7.701  -8.648  -0.896  0.00  0.00    +0.036 A 
ATOM     11  C   UNL     1      -8.927  -8.943  -0.302  0.00  0.00    +0.013 A 
ATOM     12  C   UNL     1      -9.523 -10.167  -0.526  0.00  0.00    +0.001 A 
ATOM     13  C   UNL     1      -8.906 -11.102  -1.338  0.00  0.00    +0.003 A 
ATOM     14  C   UNL     1      -7.690 -10.817  -1.931  0.00  0.00    +0.039 A 
ATOM     15  C   UNL     1      -7.086  -9.592  -1.719  0.00  0.00    +0.133 A 
ATOM     16  F   UNL     1      -5.900  -9.311  -2.303  0.00  0.00    -0.205 F 
ENDBRANCH   6  10
BRANCH   1  17
ATOM     17  C   UNL     1      -2.355  -3.670  -1.750  0.00  0.00    +0.214 C 
BRANCH  17  21
ATOM     18  C   UNL     1      -1.433  -0.534   0.013  0.00  0.00    +0.110 C 
ATOM     19  C   UNL     1      -1.445  -2.045  -0.103  0.00  0.00    +0.247 C 
ATOM     20  O   UNL     1      -0.960  -2.843   0.670  0.00  0.00    -0.273 OA
ATOM     21  N   UNL     1      -2.108  -2.317  -1.245  0.00  0.00    -0.215 N 
ATOM     22  C   UNL     1      -2.513  -1.200  -1.859  0.00  0.00    +0.310 C 
ATOM     23  O   UNL     1      -3.131  -1.190  -2.906  0.00  0.00    -0.252 OA
ATOM     24  N   UNL     1      -2.159  -0.088  -1.189  0.00  0.00    -0.285 N 
ATOM     25  C   UNL     1      -2.162  -0.082   1.280  0.00  0.00    +0.041 C 
ATOM     26  H   UNL     1      -2.346   0.828  -1.447  0.00  0.00    +0.151 HD
BRANCH  18  28
ATOM     27  C   UNL     1      -0.019   1.526   0.010  0.00  0.00    +0.006 C 
ATOM     28  C   UNL     1       0.002  -0.004   0.002  0.00  0.00    +0.031 C 
ENDBRANCH  18  28
ENDBRANCH  17  21
ENDBRANCH   1  17
TORSDOF 4
