REMARK  Name = ZINC03600456
REMARK  7 active torsions:
REMARK  status: ('A' for Active; 'I' for Inactive)
REMARK    1  A    between atoms: C_1  and  C_2
REMARK    2  A    between atoms: C_5  and  N_9
REMARK    3  A    between atoms: C_6  and  C_8
REMARK    4  A    between atoms: C_10  and  C_12
REMARK    5  A    between atoms: C_12  and  N_13
REMARK    6  A    between atoms: C_16  and  C_20
REMARK    7  A    between atoms: C_16  and  C_21
REMARK                            x       y       z     vdW  Elec       q    Type
REMARK                         _______ _______ _______ _____ _____    ______ ____
ROOT
ATOM      1  N   UNL     1       4.138   2.200   4.816  0.00  0.00    -0.215 N 
ATOM      2  C   UNL     1       4.332   1.361   5.852  0.00  0.00    +0.251 C 
ATOM      3  O   UNL     1       4.103   0.171   5.884  0.00  0.00    -0.272 OA
ATOM      4  C   UNL     1       4.896   2.215   6.971  0.00  0.00    +0.135 C 
ATOM      5  N   UNL     1       4.960   3.562   6.379  0.00  0.00    -0.281 N 
ATOM      6  C   UNL     1       4.502   3.451   5.119  0.00  0.00    +0.310 C 
ATOM      7  O   UNL     1       4.424   4.384   4.344  0.00  0.00    -0.252 OA
ATOM      8  C   UNL     1       3.962   2.199   8.182  0.00  0.00    +0.047 C 
ATOM      9  H   UNL     1       5.276   4.371   6.812  0.00  0.00    +0.152 HD
ENDROOT
BRANCH   4  10
ATOM     10  C   UNL     1       6.273   1.739   7.358  0.00  0.00    -0.015 A 
ATOM     11  C   UNL     1       6.604   0.404   7.228  0.00  0.00    +0.007 A 
ATOM     12  C   UNL     1       7.869  -0.032   7.578  0.00  0.00    +0.020 A 
ATOM     13  C   UNL     1       8.799   0.867   8.069  0.00  0.00    +0.041 A 
ATOM     14  C   UNL     1       8.464   2.203   8.204  0.00  0.00    +0.020 A 
ATOM     15  C   UNL     1       7.201   2.638   7.849  0.00  0.00    +0.007 A 
ATOM     16 CL   UNL     1      10.384   0.320   8.516  0.00  0.00    -0.084 Cl
ENDBRANCH   4  10
BRANCH   1  17
ATOM     17  C   UNL     1       3.602   1.792   3.515  0.00  0.00    +0.214 C 
BRANCH  17  19
ATOM     18  N   UNL     1       1.386   1.593   2.434  0.00  0.00    -0.284 N 
ATOM     19  C   UNL     1       2.100   1.916   3.530  0.00  0.00    +0.235 C 
ATOM     20  O   UNL     1       1.534   2.308   4.529  0.00  0.00    -0.274 OA
ATOM     21  H   UNL     1       1.831   1.218   1.658  0.00  0.00    +0.155 HD
BRANCH  18  26
ATOM     22  C   UNL     1      -4.226   2.421   2.357  0.00  0.00    +0.044 C 
ATOM     23  C   UNL     1      -2.735   2.201   2.377  0.00  0.00    -0.050 A 
ATOM     24  C   UNL     1      -2.109   1.828   3.552  0.00  0.00    +0.005 A 
ATOM     25  C   UNL     1      -0.743   1.626   3.575  0.00  0.00    +0.024 A 
ATOM     26  C   UNL     1       0.002   1.797   2.415  0.00  0.00    +0.036 A 
ATOM     27  C   UNL     1      -0.630   2.171   1.236  0.00  0.00    -0.029 A 
ATOM     28  C   UNL     1      -1.996   2.377   1.222  0.00  0.00    +0.008 A 
ATOM     29  C   UNL     1       0.174   2.358  -0.024  0.00  0.00    +0.045 C 
ENDBRANCH  18  26
ENDBRANCH  17  19
ENDBRANCH   1  17
TORSDOF 4
