REMARK  Name = ZINC38705094
REMARK  9 active torsions:
REMARK  status: ('A' for Active; 'I' for Inactive)
REMARK    1  A    between atoms: C_1  and  C_2
REMARK    2  A    between atoms: C_2  and  C_3
REMARK    3  A    between atoms: C_6  and  C_9
REMARK    4  A    between atoms: C_12  and  C_27
REMARK    5  A    between atoms: N_19  and  C_20
REMARK    6  A    between atoms: C_20  and  C_21
REMARK    7  A    between atoms: C_28  and  C_35
REMARK    8  A    between atoms: C_30  and  C_34
REMARK    9  A    between atoms: C_32  and  O_33
REMARK                            x       y       z     vdW  Elec       q    Type
REMARK                         _______ _______ _______ _____ _____    ______ ____
ROOT
ATOM      1  C   UNL     1       2.824  -1.922   4.696  0.00  0.00    +0.141 C 
ATOM      2  C   UNL     1       2.489  -3.371   4.924  0.00  0.00    +0.035 A 
ATOM      3  C   UNL     1       2.520  -4.680   4.432  0.00  0.00    +0.102 A 
ATOM      4  N   UNL     1       1.964  -5.457   5.341  0.00  0.00    -0.173 NA
ATOM      5  N   UNL     1       1.585  -4.767   6.358  0.00  0.00    -0.272 N 
ATOM      6  H   UNL     1       1.152  -5.130   7.147  0.00  0.00    +0.189 HD
ATOM      7  C   UNL     1       1.884  -3.449   6.163  0.00  0.00    +0.126 A 
ATOM      8  C   UNL     1       1.820  -2.100   6.737  0.00  0.00    +0.266 C 
ATOM      9  O   UNL     1       1.343  -1.829   7.822  0.00  0.00    -0.268 OA
ATOM     10  N   UNL     1       2.365  -1.204   5.892  0.00  0.00    -0.283 N 
ENDROOT
BRANCH   3  11
ATOM     11  C   UNL     1       3.076  -5.115   3.127  0.00  0.00    +0.047 A 
ATOM     12  C   UNL     1       2.325  -5.931   2.284  0.00  0.00    -0.037 A 
ATOM     13  C   UNL     1       2.847  -6.333   1.071  0.00  0.00    +0.007 A 
ATOM     14  C   UNL     1       4.114  -5.929   0.688  0.00  0.00    -0.047 A 
ATOM     15  C   UNL     1       4.867  -5.120   1.518  0.00  0.00    +0.049 A 
ATOM     16  C   UNL     1       4.353  -4.704   2.736  0.00  0.00    +0.127 A 
ATOM     17  C   UNL     1       4.675  -6.373  -0.638  0.00  0.00    +0.044 C 
ATOM     18  C   UNL     1       0.945  -6.374   2.695  0.00  0.00    +0.044 C 
BRANCH  16  19
ATOM     19  O   UNL     1       5.090  -3.904   3.549  0.00  0.00    -0.506 OA
ATOM     20  H   UNL     1       5.708  -4.383   4.118  0.00  0.00    +0.292 HD
ENDBRANCH  16  19
ENDBRANCH   3  11
BRANCH   1  24
ATOM     21  C   UNL     1       0.785  -0.471   1.234  0.00  0.00    -0.048 A 
ATOM     22  C   UNL     1       2.162  -0.596   1.224  0.00  0.00    +0.004 A 
ATOM     23  C   UNL     1       2.821  -1.066   2.344  0.00  0.00    +0.006 A 
ATOM     24  C   UNL     1       2.105  -1.410   3.475  0.00  0.00    -0.022 A 
ATOM     25  C   UNL     1       0.728  -1.284   3.485  0.00  0.00    +0.006 A 
ATOM     26  C   UNL     1       0.069  -0.811   2.366  0.00  0.00    +0.004 A 
BRANCH  21  28
ATOM     27  C   UNL     1      -0.046   1.564   0.087  0.00  0.00    +0.009 C 
ATOM     28  C   UNL     1       0.066   0.040   0.013  0.00  0.00    +0.032 C 
ENDBRANCH  21  28
ENDBRANCH   1  24
BRANCH  10  29
ATOM     29  C   UNL     1       2.480   0.238   6.124  0.00  0.00    +0.140 C 
BRANCH  29  30
ATOM     30  C   UNL     1       1.231   0.942   5.588  0.00  0.00    +0.136 C 
ATOM     31  C   UNL     1       1.396   2.471   5.719  0.00  0.00    +0.035 C 
ATOM     32  C   UNL     1      -0.028   2.921   6.146  0.00  0.00    +0.031 C 
ATOM     33  C   UNL     1      -0.469   1.715   7.014  0.00  0.00    +0.160 C 
ATOM     34  O   UNL     1       0.088   0.560   6.363  0.00  0.00    -0.375 OA
ENDBRANCH  29  30
ENDBRANCH  10  29
TORSDOF 6
