REMARK  Name = ZINC38712554
REMARK  3 active torsions:
REMARK  status: ('A' for Active; 'I' for Inactive)
REMARK    1  A    between atoms: C_1  and  C_2
REMARK    2  A    between atoms: C_2  and  C_3
REMARK    3  A    between atoms: C_9  and  C_25
REMARK                            x       y       z     vdW  Elec       q    Type
REMARK                         _______ _______ _______ _____ _____    ______ ____
ROOT
ATOM      1  C   UNL     1      -1.412  -0.526   0.013  0.00  0.00    +0.103 A 
ATOM      2  N   UNL     1      -2.214  -0.819  -0.992  0.00  0.00    -0.145 NA
ATOM      3  N   UNL     1      -3.385  -1.252  -0.811  0.00  0.00    -0.125 NA
ATOM      4  C   UNL     1      -3.882  -1.439   0.404  0.00  0.00    +0.191 A 
ATOM      5  S   UNL     1      -2.478  -0.931   1.393  0.00  0.00    -0.035 S 
ATOM      6  N   UNL     1      -5.131  -1.901   0.797  0.00  0.00    -0.230 N 
ATOM      7  C   UNL     1      -6.224  -2.309  -0.101  0.00  0.00    +0.152 C 
ATOM      8  C   UNL     1      -7.350  -2.722   0.790  0.00  0.00    +0.072 A 
ATOM      9  C   UNL     1      -8.697  -3.211   0.481  0.00  0.00    +0.199 A 
ATOM     10  O   UNL     1      -9.052  -3.525  -0.641  0.00  0.00    -0.287 OA
ATOM     11  C   UNL     1      -9.588  -3.288   1.667  0.00  0.00    +0.066 A 
ATOM     12  C   UNL     1     -10.950  -3.542   1.510  0.00  0.00    +0.035 A 
ATOM     13  C   UNL     1     -11.763  -3.605   2.621  0.00  0.00    +0.042 A 
ATOM     14  C   UNL     1     -11.226  -3.416   3.888  0.00  0.00    +0.023 A 
ATOM     15  C   UNL     1      -9.882  -3.166   4.054  0.00  0.00    +0.048 A 
ATOM     16  C   UNL     1      -9.039  -3.100   2.945  0.00  0.00    +0.140 A 
ATOM     17  O   UNL     1      -7.721  -2.863   3.138  0.00  0.00    -0.450 OA
ATOM     18  C   UNL     1      -6.935  -2.569   2.083  0.00  0.00    +0.199 A 
ATOM     19  C   UNL     1      -5.553  -2.061   2.068  0.00  0.00    +0.289 C 
ATOM     20  O   UNL     1      -4.890  -1.819   3.057  0.00  0.00    -0.266 OA
ATOM     21 CL   UNL     1     -13.460  -3.921   2.437  0.00  0.00    -0.084 Cl
ENDROOT
BRANCH   7  22
ATOM     22  C   UNL     1      -5.787  -3.468  -0.959  0.00  0.00    -0.019 A 
ATOM     23  C   UNL     1      -4.996  -4.480  -0.436  0.00  0.00    +0.025 A 
ATOM     24  C   UNL     1      -4.614  -5.527  -1.254  0.00  0.00    +0.111 A 
ATOM     25  N   UNL     1      -4.994  -5.570  -2.516  0.00  0.00    -0.263 NA
ATOM     26  C   UNL     1      -5.746  -4.626  -3.047  0.00  0.00    +0.111 A 
ATOM     27  C   UNL     1      -6.171  -3.551  -2.289  0.00  0.00    +0.025 A 
ENDBRANCH   7  22
BRANCH   1  29
ATOM     28  C   UNL     1      -0.019   1.526   0.010  0.00  0.00    +0.011 C 
ATOM     29  C   UNL     1       0.002  -0.004   0.002  0.00  0.00    +0.061 C 
ENDBRANCH   1  29
TORSDOF 2
