REMARK  Name = ZINC10224836
REMARK  9 active torsions:
REMARK  status: ('A' for Active; 'I' for Inactive)
REMARK    1  A    between atoms: C_1  and  C_2
REMARK    2  A    between atoms: C_3  and  C_26
REMARK    3  A    between atoms: C_4  and  C_25
REMARK    4  A    between atoms: C_7  and  C_8
REMARK    5  A    between atoms: C_14  and  C_16
REMARK    6  A    between atoms: C_19  and  C_22
REMARK    7  A    between atoms: C_22  and  C_23
REMARK    8  A    between atoms: C_22  and  C_24
REMARK    9  A    between atoms: C_26  and  C_28
REMARK                            x       y       z     vdW  Elec       q    Type
REMARK                         _______ _______ _______ _____ _____    ______ ____
ROOT
ATOM      1  C   UNL     1       1.172   1.263   2.878  0.00  0.00    +0.266 C 
ATOM      2  O   UNL     1       1.929   0.806   2.042  0.00  0.00    -0.268 OA
ATOM      3  N   UNL     1       1.585   1.411   4.152  0.00  0.00    -0.258 N 
ATOM      4  C   UNL     1       2.875   1.044   4.510  0.00  0.00    +0.188 A 
ATOM      5  N   UNL     1       3.851   0.527   3.773  0.00  0.00    -0.125 NA
ATOM      6  N   UNL     1       4.981   0.252   4.261  0.00  0.00    -0.140 NA
ATOM      7  C   UNL     1       5.257   0.451   5.544  0.00  0.00    +0.134 A 
ATOM      8  S   UNL     1       3.694   1.124   6.101  0.00  0.00    -0.030 S 
ATOM      9  H   UNL     1       0.982   1.775   4.819  0.00  0.00    +0.157 HD
ENDROOT
BRANCH   1  16
ATOM     10  C   UNL     1      -0.045   1.029   0.016  0.00  0.00    +0.047 C 
ATOM     11  C   UNL     1      -0.732   1.552   1.252  0.00  0.00    -0.010 A 
ATOM     12  C   UNL     1      -2.058   2.041   1.335  0.00  0.00    +0.041 A 
ATOM     13  C   UNL     1      -2.270   2.412   2.654  0.00  0.00    +0.024 A 
ATOM     14  N   UNL     1      -1.145   2.178   3.345  0.00  0.00    -0.354 N 
ATOM     15  H   UNL     1      -1.021   2.353   4.291  0.00  0.00    +0.166 HD
ATOM     16  C   UNL     1      -0.192   1.651   2.499  0.00  0.00    +0.106 A 
ATOM     17  C   UNL     1      -3.546   2.986   3.214  0.00  0.00    +0.064 C 
BRANCH  12  18
ATOM     18  C   UNL     1      -3.024   2.133   0.236  0.00  0.00    +0.162 C 
ATOM     19  O   UNL     1      -3.726   1.181  -0.036  0.00  0.00    -0.292 OA
ATOM     20  C   UNL     1      -3.146   3.410  -0.555  0.00  0.00    +0.091 C 
ENDBRANCH  12  18
ENDBRANCH   1  16
BRANCH   7  21
ATOM     21  C   UNL     1       6.501   0.190   6.299  0.00  0.00    +0.009 A 
ATOM     22  C   UNL     1       6.570   0.486   7.661  0.00  0.00    +0.011 A 
ATOM     23  C   UNL     1       7.733   0.236   8.361  0.00  0.00    +0.004 A 
ATOM     24  C   UNL     1       8.833  -0.297   7.712  0.00  0.00    -0.045 A 
ATOM     25  C   UNL     1       8.773  -0.588   6.361  0.00  0.00    +0.004 A 
ATOM     26  C   UNL     1       7.615  -0.347   5.651  0.00  0.00    +0.011 A 
BRANCH  24  27
ATOM     27  C   UNL     1      10.101  -0.561   8.481  0.00  0.00    +0.013 C 
ATOM     28  C   UNL     1      10.619   0.750   9.076  0.00  0.00    +0.012 C 
ATOM     29  C   UNL     1       9.817  -1.556   9.608  0.00  0.00    +0.012 C 
ENDBRANCH  24  27
ENDBRANCH   7  21
TORSDOF 4
