REMARK  Name = ZINC21129424
REMARK  7 active torsions:
REMARK  status: ('A' for Active; 'I' for Inactive)
REMARK    1  A    between atoms: C_4  and  N_7
REMARK    2  A    between atoms: C_11  and  S_12
REMARK    3  A    between atoms: S_12  and  C_13
REMARK    4  A    between atoms: C_13  and  C_14
REMARK    5  A    between atoms: N_16  and  C_17
REMARK    6  A    between atoms: C_21  and  S_23
REMARK    7  A    between atoms: S_23  and  N_26
REMARK                            x       y       z     vdW  Elec       q    Type
REMARK                         _______ _______ _______ _____ _____    ______ ____
ROOT
ATOM      1  C   UNL     1       1.195  -4.302   3.001  0.00  0.00    +0.173 C 
ENDROOT
BRANCH   1   2
ATOM      2  C   UNL     1       1.406  -5.616   3.707  0.00  0.00    +0.227 C 
ATOM      3  O   UNL     1       2.143  -5.676   4.669  0.00  0.00    -0.275 OA
ATOM      4  N   UNL     1       0.777  -6.725   3.270  0.00  0.00    -0.285 N 
ATOM      5  H   UNL     1       0.043  -6.656   2.454  0.00  0.00    +0.155 HD
BRANCH   4   6
ATOM      6  C   UNL     1       1.057  -7.965   3.855  0.00  0.00    +0.035 A 
ATOM      7  C   UNL     1       2.336  -8.242   4.321  0.00  0.00    +0.023 A 
ATOM      8  C   UNL     1       2.608  -9.465   4.902  0.00  0.00    +0.004 A 
ATOM      9  C   UNL     1       1.612 -10.417   5.011  0.00  0.00    +0.028 A 
ATOM     10  C   UNL     1       0.339 -10.147   4.544  0.00  0.00    +0.107 A 
ATOM     11  C   UNL     1       0.059  -8.924   3.966  0.00  0.00    +0.051 A 
BRANCH  10  12
ATOM     12  S   UNL     1      -0.927 -11.364   4.686  0.00  0.00    +0.056 S 
ATOM     13  O   UNL     1      -0.551 -12.220   5.755  0.00  0.00    -0.153 OA
ATOM     14  O   UNL     1      -2.165 -10.666   4.668  0.00  0.00    -0.153 OA
BRANCH  12  15
ATOM     15  N   UNL     1      -0.881 -12.281   3.307  0.00  0.00    -0.204 NA
ATOM     16  H   UNL     1      -1.660 -13.056   3.356  0.00  0.00    +0.144 HD
ATOM     17  H   UNL     1       0.106 -12.758   3.217  0.00  0.00    +0.144 HD
ENDBRANCH  12  15
ENDBRANCH  10  12
ENDBRANCH   4   6
ENDBRANCH   1   2
BRANCH   1  18
ATOM     18  S   UNL     1       2.169  -3.014   3.818  0.00  0.00    -0.078 S 
BRANCH  18  23
ATOM     19  N   UNL     1       2.205  -0.352   2.982  0.00  0.00    -0.291 N 
ATOM     20  C   UNL     1       1.630   0.406   1.995  0.00  0.00    +0.047 A 
ATOM     21  C   UNL     1       0.846  -0.413   1.267  0.00  0.00    +0.064 A 
ATOM     22  N   UNL     1       0.931  -1.645   1.784  0.00  0.00    -0.226 NA
ATOM     23  C   UNL     1       1.744  -1.628   2.817  0.00  0.00    +0.174 A 
ATOM     24  C   UNL     1       0.030   0.036   0.079  0.00  0.00    +0.057 C 
ATOM     25  C   UNL     1      -0.083   1.565   0.119  0.00  0.00    +0.007 C 
ATOM     26  C   UNL     1       1.308   2.176   0.308  0.00  0.00    +0.007 C 
ATOM     27  C   UNL     1       1.808   1.878   1.727  0.00  0.00    +0.056 C 
BRANCH  19  31
ATOM     28  C   UNL     1       4.848   0.978   5.918  0.00  0.00    +0.000 A 
ATOM     29  C   UNL     1       5.275   0.070   4.966  0.00  0.00    +0.002 A 
ATOM     30  C   UNL     1       4.401  -0.372   3.992  0.00  0.00    +0.026 A 
ATOM     31  C   UNL     1       3.094   0.095   3.970  0.00  0.00    +0.049 A 
ATOM     32  C   UNL     1       2.671   1.010   4.924  0.00  0.00    +0.026 A 
ATOM     33  C   UNL     1       3.547   1.445   5.899  0.00  0.00    +0.002 A 
ENDBRANCH  19  31
ENDBRANCH  18  23
ENDBRANCH   1  18
TORSDOF 7
