REMARK  Name = ZINC08833777
REMARK  6 active torsions:
REMARK  status: ('A' for Active; 'I' for Inactive)
REMARK    1  A    between atoms: C_1  and  O_2
REMARK    2  A    between atoms: O_2  and  C_3
REMARK    3  A    between atoms: C_6  and  S_12
REMARK    4  A    between atoms: C_8  and  N_9
REMARK    5  A    between atoms: S_12  and  N_15
REMARK    6  A    between atoms: N_15  and  C_16
REMARK                            x       y       z     vdW  Elec       q    Type
REMARK                         _______ _______ _______ _____ _____    ______ ____
ROOT
ATOM      1  N   UNL     1      -2.490   4.623   0.049  0.00  0.00    -0.216 N 
ATOM      2  H   UNL     1      -2.644   5.343   0.681  0.00  0.00    +0.174 HD
ENDROOT
BRANCH   1   3
ATOM      3  C   UNL     1      -1.273   3.933   0.058  0.00  0.00    +0.050 A 
ATOM      4  C   UNL     1      -0.081   4.634   0.123  0.00  0.00    +0.037 A 
ATOM      5  C   UNL     1       1.127   3.944   0.132  0.00  0.00    +0.034 A 
ATOM      6  C   UNL     1       2.538   4.328   0.192  0.00  0.00    +0.066 A 
ATOM      7  C   UNL     1       3.264   3.164   0.166  0.00  0.00    +0.117 A 
ATOM      8  O   UNL     1       2.426   2.131   0.098  0.00  0.00    -0.458 OA
ATOM      9  C   UNL     1       1.136   2.539   0.074  0.00  0.00    +0.150 A 
ATOM     10  C   UNL     1      -0.069   1.851   0.009  0.00  0.00    +0.062 A 
ATOM     11  C   UNL     1      -1.262   2.542  -0.004  0.00  0.00    +0.043 A 
ATOM     12 BR   UNL     1      -0.073  -0.038  -0.070  0.00  0.00    -0.046 Br
ATOM     13  C   UNL     1       4.773   3.144   0.210  0.00  0.00    +0.075 C 
ATOM     14  C   UNL     1       5.311   4.509  -0.229  0.00  0.00    +0.016 C 
ATOM     15  C   UNL     1       4.660   5.632   0.585  0.00  0.00    +0.080 C 
ATOM     16  C   UNL     1       3.172   5.646   0.270  0.00  0.00    +0.167 C 
ATOM     17  O   UNL     1       2.554   6.676   0.096  0.00  0.00    -0.292 OA
ENDBRANCH   1   3
BRANCH   1  18
ATOM     18  S   UNL     1      -3.667   4.212  -1.041  0.00  0.00    +0.072 S 
ATOM     19  O   UNL     1      -3.866   2.811  -0.914  0.00  0.00    -0.150 OA
ATOM     20  O   UNL     1      -4.722   5.149  -0.872  0.00  0.00    -0.150 OA
BRANCH  18  24
ATOM     21  C   UNL     1      -1.964   4.911  -5.178  0.00  0.00    +0.150 A 
ATOM     22  C   UNL     1      -2.544   5.960  -4.479  0.00  0.00    +0.050 A 
ATOM     23  C   UNL     1      -3.068   5.743  -3.220  0.00  0.00    +0.032 A 
ATOM     24  C   UNL     1      -3.005   4.484  -2.651  0.00  0.00    +0.111 A 
ATOM     25  C   UNL     1      -2.428   3.437  -3.345  0.00  0.00    +0.065 A 
ATOM     26  C   UNL     1      -1.907   3.648  -4.608  0.00  0.00    +0.169 A 
BRANCH  26  27
ATOM     27  N   UNL     1      -1.289   2.527  -5.351  0.00  0.00    +0.060 N 
ATOM     28  O   UNL     1      -1.239   1.418  -4.849  0.00  0.00    -0.126 OA
ATOM     29  O   UNL     1      -0.831   2.713  -6.463  0.00  0.00    -0.126 OA
ENDBRANCH  26  27
BRANCH  21  31
ATOM     30  C   UNL     1      -1.547   6.446  -6.945  0.00  0.00    +0.277 C 
ATOM     31  O   UNL     1      -1.454   5.120  -6.420  0.00  0.00    -0.493 OA
ENDBRANCH  21  31
ENDBRANCH  18  24
ENDBRANCH   1  18
TORSDOF 5
