REMARK  Name = ZINC15272401
REMARK  4 active torsions:
REMARK  status: ('A' for Active; 'I' for Inactive)
REMARK    1  A    between atoms: C_8  and  C_10
REMARK    2  A    between atoms: C_10  and  C_11
REMARK    3  A    between atoms: C_11  and  N_12
REMARK    4  A    between atoms: N_15  and  C_16
REMARK                            x       y       z     vdW  Elec       q    Type
REMARK                         _______ _______ _______ _____ _____    ______ ____
ROOT
ATOM      1  N   UNL     1      -6.368   0.892   1.079  0.00  0.00    -0.299 N 
ATOM      2  C   UNL     1      -5.103   1.358   1.069  0.00  0.00    +0.300 C 
ATOM      3  O   UNL     1      -4.706   2.058   1.981  0.00  0.00    -0.253 OA
ATOM      4  N   UNL     1      -4.279   1.049   0.049  0.00  0.00    -0.294 N 
ATOM      5  H   UNL     1      -6.684   0.334   0.351  0.00  0.00    +0.150 HD
ATOM      6  H   UNL     1      -4.595   0.491  -0.679  0.00  0.00    +0.151 HD
ENDROOT
BRANCH   4   7
ATOM      7  C   UNL     1      -2.904   1.556   0.038  0.00  0.00    +0.037 C 
ATOM      8  C   UNL     1      -2.188   1.063  -1.221  0.00  0.00    +0.029 C 
ATOM      9  C   UNL     1      -0.753   1.593  -1.232  0.00  0.00    -0.008 C 
ATOM     10  C   UNL     1      -0.013   1.086   0.008  0.00  0.00    +0.007 C 
ATOM     11  C   UNL     1      -0.729   1.579   1.267  0.00  0.00    -0.008 C 
ATOM     12  C   UNL     1      -2.164   1.050   1.278  0.00  0.00    +0.029 C 
ATOM     13  C   UNL     1      -0.750   3.109   1.275  0.00  0.00    +0.007 C 
ATOM     14  C   UNL     1      -1.490   3.616   0.036  0.00  0.00    -0.008 C 
ATOM     15  C   UNL     1      -0.773   3.123  -1.223  0.00  0.00    +0.007 C 
ATOM     16  C   UNL     1      -2.925   3.086   0.047  0.00  0.00    +0.029 C 
ENDBRANCH   4   7
BRANCH   1  17
ATOM     17  C   UNL     1      -7.264   1.227   2.188  0.00  0.00    +0.115 C 
BRANCH  17  18
ATOM     18  C   UNL     1      -8.629   0.577   1.955  0.00  0.00    +0.114 C 
BRANCH  18  26
ATOM     19  C   UNL     1     -13.136   1.082   1.303  0.00  0.00    +0.002 C 
ATOM     20  C   UNL     1     -13.057   2.003   2.517  0.00  0.00    +0.002 C 
ATOM     21  C   UNL     1     -13.116   1.176   3.777  0.00  0.00    +0.019 C 
ATOM     22  C   UNL     1     -11.693   0.812   4.238  0.00  0.00    +0.108 C 
ATOM     23  N   UNL     1     -10.815   0.456   3.106  0.00  0.00    -0.301 N 
ATOM     24  C   UNL     1     -11.258  -0.369   2.004  0.00  0.00    +0.108 C 
ATOM     25  C   UNL     1     -11.842   0.519   0.885  0.00  0.00    +0.019 C 
ATOM     26  C   UNL     1      -9.551   0.922   3.096  0.00  0.00    +0.217 C 
ATOM     27  O   UNL     1      -9.155   1.620   4.006  0.00  0.00    -0.276 OA
ENDBRANCH  18  26
ENDBRANCH  17  18
ENDBRANCH   1  17
TORSDOF 4
