REMARK  Name = ZINC03906821
REMARK  2 active torsions:
REMARK  status: ('A' for Active; 'I' for Inactive)
REMARK    1  A    between atoms: C_1  and  C_2
REMARK    2  A    between atoms: C_13  and  C_18
REMARK                            x       y       z     vdW  Elec       q    Type
REMARK                         _______ _______ _______ _____ _____    ______ ____
ROOT
ATOM      1  C   UNL     1       3.655  -0.634  -0.777  0.00  0.00    +0.015 C 
ATOM      2  C   UNL     1       2.299   0.075  -0.782  0.00  0.00    +0.073 C 
ATOM      3  C   UNL     1       1.289  -0.717   0.064  0.00  0.00    +0.114 C 
ATOM      4  C   UNL     1       1.741  -0.707   1.506  0.00  0.00    +0.015 A 
ATOM      5  C   UNL     1       1.319  -1.720   2.348  0.00  0.00    +0.009 A 
ATOM      6  C   UNL     1       1.712  -1.732   3.673  0.00  0.00    +0.001 A 
ATOM      7  C   UNL     1       2.530  -0.728   4.159  0.00  0.00    +0.004 A 
ATOM      8  C   UNL     1       2.955   0.283   3.321  0.00  0.00    +0.046 A 
ATOM      9  C   UNL     1       2.563   0.297   1.986  0.00  0.00    +0.128 A 
ATOM     10  O   UNL     1       3.014   1.299   1.188  0.00  0.00    -0.468 OA
ATOM     11  C   UNL     1       2.430   1.465  -0.101  0.00  0.00    +0.179 C 
ATOM     12  N   UNL     1       1.107   2.074   0.003  0.00  0.00    -0.289 N 
ATOM     13  C   UNL     1      -0.016   1.339   0.009  0.00  0.00    +0.134 C 
ATOM     14  S   UNL     1      -1.527   2.144   0.021  0.00  0.00    -0.019 S 
ATOM     15  N   UNL     1       0.002  -0.004   0.002  0.00  0.00    -0.319 N 
ATOM     16  C   UNL     1       3.329   2.360  -0.955  0.00  0.00    +0.078 C 
ATOM     17  H   UNL     1       1.038   3.039   0.068  0.00  0.00    +0.151 HD
ATOM     18  H   UNL     1      -0.829  -0.502  -0.044  0.00  0.00    +0.148 HD
ENDROOT
TORSDOF 0
