REMARK  Name = ZINC39689223
REMARK  10 active torsions:
REMARK  status: ('A' for Active; 'I' for Inactive)
REMARK    1  A    between atoms: C_1  and  C_2
REMARK    2  A    between atoms: C_2  and  C_3
REMARK    3  A    between atoms: C_3  and  C_4
REMARK    4  A    between atoms: C_4  and  C_5
REMARK    5  A    between atoms: C_5  and  C_7
REMARK    6  A    between atoms: C_5  and  C_8
REMARK    7  A    between atoms: C_12  and  C_21
REMARK    8  A    between atoms: N_23  and  C_24
REMARK    9  A    between atoms: C_24  and  C_25
REMARK   10  A    between atoms: N_28  and  C_31
REMARK                            x       y       z     vdW  Elec       q    Type
REMARK                         _______ _______ _______ _____ _____    ______ ____
ROOT
ATOM      1  C   UNL     1      -2.960  -3.840   0.025  0.00  0.00    +0.218 C 
ATOM      2  O   UNL     1      -1.858  -4.343  -0.028  0.00  0.00    -0.275 OA
ATOM      3  N   UNL     1      -4.059  -4.617  -0.040  0.00  0.00    -0.300 N 
ATOM      4  C   UNL     1      -5.478  -4.190   0.001  0.00  0.00    +0.121 C 
ATOM      5  C   UNL     1      -6.188  -5.099  -1.027  0.00  0.00    +0.100 C 
ATOM      6  C   UNL     1      -5.295  -6.346  -1.132  0.00  0.00    -0.004 C 
ATOM      7  C   UNL     1      -4.122  -6.093  -0.174  0.00  0.00    +0.115 C 
ATOM      8  C   UNL     1      -6.070  -7.589  -0.703  0.00  0.00    -0.010 C 
ATOM      9  C   UNL     1      -5.179  -8.823  -0.871  0.00  0.00    -0.082 C 
ATOM     10  N   UNL     1      -4.764  -8.942  -2.274  0.00  0.00    +0.379 N 
ATOM     11  C   UNL     1      -3.941  -7.786  -2.651  0.00  0.00    -0.082 C 
ATOM     12  C   UNL     1      -4.779  -6.508  -2.559  0.00  0.00    -0.010 C 
ATOM     13  H   UNL     1      -4.228  -9.788  -2.394  0.00  0.00    -0.086 HD
ATOM     14  H   UNL     1      -5.582  -8.978  -2.863  0.00  0.00    -0.086 HD
ENDROOT
BRANCH   5  15
ATOM     15  C   UNL     1      -6.285  -4.406  -2.362  0.00  0.00    +0.218 C 
ATOM     16  O   UNL     1      -5.434  -3.607  -2.693  0.00  0.00    -0.275 OA
ATOM     17  N   UNL     1      -7.316  -4.674  -3.187  0.00  0.00    -0.315 N 
ATOM     18  H   UNL     1      -7.996  -5.313  -2.922  0.00  0.00    +0.149 HD
BRANCH  17  19
ATOM     19  C   UNL     1      -7.409  -4.000  -4.485  0.00  0.00    +0.107 C 
BRANCH  19  20
ATOM     20  C   UNL     1      -8.663  -4.480  -5.219  0.00  0.00    +0.003 C 
ATOM     21  C   UNL     1      -8.522  -5.967  -5.555  0.00  0.00    -0.014 C 
ATOM     22  C   UNL     1      -9.743  -6.421  -6.358  0.00  0.00    -0.078 C 
ATOM     23  N   UNL     1      -9.832  -5.644  -7.600  0.00  0.00    +0.382 N 
ATOM     24  C   UNL     1     -10.039  -4.225  -7.286  0.00  0.00    -0.078 C 
ATOM     25  C   UNL     1      -8.830  -3.687  -6.519  0.00  0.00    -0.014 C 
ATOM     26  H   UNL     1      -8.977  -5.750  -8.124  0.00  0.00    -0.081 HD
BRANCH  23  27
ATOM     27  C   UNL     1     -10.959  -6.136  -8.404  0.00  0.00    -0.069 C 
ATOM     28  C   UNL     1     -10.718  -7.604  -8.810  0.00  0.00    -0.015 C 
ATOM     29  C   UNL     1     -11.288  -7.699 -10.247  0.00  0.00    -0.002 C 
ATOM     30  C   UNL     1     -10.886  -6.337 -10.865  0.00  0.00    -0.002 C 
ATOM     31  C   UNL     1     -11.066  -5.330  -9.710  0.00  0.00    -0.015 C 
ENDBRANCH  23  27
ENDBRANCH  19  20
ENDBRANCH  17  19
ENDBRANCH   5  15
BRANCH   1  32
ATOM     32  C   UNL     1      -3.101  -2.346   0.162  0.00  0.00    +0.072 C 
ATOM     33  C   UNL     1      -3.860  -2.021   1.451  0.00  0.00    +0.017 C 
BRANCH  32  34
ATOM     34  C   UNL     1      -1.713  -1.705   0.212  0.00  0.00    +0.012 C 
BRANCH  34  35
ATOM     35  C   UNL     1      -1.855  -0.181   0.226  0.00  0.00    +0.000 C 
BRANCH  35  37
ATOM     36  C   UNL     1      -0.608   1.983   0.290  0.00  0.00    +0.004 C 
ATOM     37  C   UNL     1      -0.466   0.459   0.277  0.00  0.00    -0.003 C 
ENDBRANCH  35  37
ENDBRANCH  34  35
ENDBRANCH  32  34
ENDBRANCH   1  32
TORSDOF 8
