REMARK  Name = ZINC48870158
REMARK  5 active torsions:
REMARK  status: ('A' for Active; 'I' for Inactive)
REMARK    1  A    between atoms: C_1  and  C_2
REMARK    2  A    between atoms: C_4  and  N_8
REMARK    3  A    between atoms: N_5  and  C_7
REMARK    4  A    between atoms: N_11  and  C_12
REMARK    5  A    between atoms: C_15  and  N_19
REMARK                            x       y       z     vdW  Elec       q    Type
REMARK                         _______ _______ _______ _____ _____    ______ ____
ROOT
ATOM      1  N   UNL     1       0.044  -3.240  -1.543  0.00  0.00    -0.254 N 
ATOM      2  C   UNL     1       0.029  -3.097  -2.883  0.00  0.00    +0.309 C 
ATOM      3  O   UNL     1       0.004  -1.986  -3.376  0.00  0.00    -0.252 OA
ATOM      4  N   UNL     1       0.041  -4.186  -3.677  0.00  0.00    -0.269 N 
ATOM      5  H   UNL     1       0.064  -4.127  -1.150  0.00  0.00    +0.158 HD
ATOM      6  H   UNL     1       0.128  -5.070  -3.287  0.00  0.00    +0.156 HD
ENDROOT
BRANCH   4   7
ATOM      7  C   UNL     1      -0.074  -4.042  -5.067  0.00  0.00    +0.038 A 
ATOM      8  C   UNL     1       0.505  -2.951  -5.701  0.00  0.00    +0.045 A 
ATOM      9  C   UNL     1       0.393  -2.808  -7.071  0.00  0.00    +0.065 A 
ATOM     10  C   UNL     1      -0.300  -3.756  -7.814  0.00  0.00    +0.062 A 
ATOM     11  C   UNL     1      -0.879  -4.848  -7.178  0.00  0.00    +0.065 A 
ATOM     12  C   UNL     1      -0.761  -4.992  -5.809  0.00  0.00    +0.045 A 
ATOM     13 CL   UNL     1      -1.746  -6.032  -8.105  0.00  0.00    -0.082 Cl
ATOM     14 CL   UNL     1       1.117  -1.444  -7.864  0.00  0.00    -0.082 Cl
BRANCH  10  15
ATOM     15  N   UNL     1      -0.414  -3.612  -9.202  0.00  0.00    -0.356 N 
ATOM     16  H   UNL     1      -0.010  -2.850  -9.645  0.00  0.00    +0.142 HD
ATOM     17  H   UNL     1      -0.898  -4.274  -9.720  0.00  0.00    +0.142 HD
ENDBRANCH  10  15
ENDBRANCH   4   7
BRANCH   1  21
ATOM     18  C   UNL     1      -0.028   1.502   0.011  0.00  0.00    +0.067 C 
ATOM     19  C   UNL     1      -0.000  -0.004   0.002  0.00  0.00    +0.062 A 
ATOM     20  C   UNL     1       0.004  -0.817  -1.135  0.00  0.00    +0.068 A 
ATOM     21  C   UNL     1       0.032  -2.113  -0.722  0.00  0.00    +0.124 A 
ATOM     22  N   UNL     1       0.045  -2.110   0.631  0.00  0.00    -0.253 N 
ATOM     23  N   UNL     1       0.030  -0.776   1.059  0.00  0.00    -0.175 NA
ATOM     24  C   UNL     1       0.075  -3.292   1.495  0.00  0.00    +0.174 C 
ENDBRANCH   1  21
TORSDOF 3
