REMARK  Name = ZINC04739345
REMARK  7 active torsions:
REMARK  status: ('A' for Active; 'I' for Inactive)
REMARK    1  A    between atoms: C_1  and  C_2
REMARK    2  A    between atoms: C_2  and  C_3
REMARK    3  A    between atoms: C_2  and  C_4
REMARK    4  A    between atoms: N_9  and  C_12
REMARK    5  A    between atoms: C_17  and  N_18
REMARK    6  A    between atoms: C_19  and  C_21
REMARK    7  A    between atoms: C_26  and  N_27
REMARK                            x       y       z     vdW  Elec       q    Type
REMARK                         _______ _______ _______ _____ _____    ______ ____
ROOT
ATOM      1  C   UNL     1      -0.904  -0.861   0.225  0.00  0.00    +0.051 A 
ATOM      2  C   UNL     1      -1.777  -0.488   1.237  0.00  0.00    +0.025 A 
ATOM      3  C   UNL     1      -3.133  -0.718   1.100  0.00  0.00    +0.002 A 
ATOM      4  C   UNL     1      -3.624  -1.319  -0.045  0.00  0.00    +0.002 A 
ATOM      5  C   UNL     1      -2.762  -1.693  -1.059  0.00  0.00    +0.025 A 
ATOM      6  C   UNL     1      -1.400  -1.461  -0.932  0.00  0.00    +0.055 A 
ENDROOT
BRANCH   1  12
ATOM      7  C   UNL     1       3.755   0.657   2.399  0.00  0.00    +0.218 C 
ATOM      8  O   UNL     1       4.186  -0.056   3.280  0.00  0.00    -0.275 OA
ATOM      9  N   UNL     1       2.891   0.160   1.492  0.00  0.00    -0.298 N 
ATOM     10  C   UNL     1       2.261   1.034   0.491  0.00  0.00    +0.126 C 
ATOM     11  C   UNL     1       0.747   0.804   0.526  0.00  0.00    +0.124 C 
ATOM     12  N   UNL     1       0.469  -0.629   0.362  0.00  0.00    -0.325 N 
ATOM     13  C   UNL     1       1.026  -1.411   1.474  0.00  0.00    +0.124 C 
ATOM     14  C   UNL     1       2.552  -1.271   1.477  0.00  0.00    +0.126 C 
BRANCH   7  16
ATOM     15  C   UNL     1       3.260   2.957   3.185  0.00  0.00    +0.017 C 
ATOM     16  C   UNL     1       4.185   2.099   2.319  0.00  0.00    +0.069 C 
ATOM     17  C   UNL     1       5.623   2.231   2.823  0.00  0.00    +0.017 C 
ENDBRANCH   7  16
ENDBRANCH   1  12
BRANCH   6  18
ATOM     18  N   UNL     1      -0.525  -1.834  -1.960  0.00  0.00    -0.280 N 
ATOM     19  C   UNL     1      -0.799  -2.913  -2.720  0.00  0.00    +0.251 C 
ATOM     20  O   UNL     1      -1.843  -3.517  -2.564  0.00  0.00    -0.270 OA
ATOM     21  H   UNL     1       0.278  -1.316  -2.125  0.00  0.00    +0.155 HD
BRANCH  19  22
ATOM     22  C   UNL     1       0.169  -3.362  -3.743  0.00  0.00    +0.067 A 
ATOM     23  C   UNL     1       1.496  -3.612  -3.390  0.00  0.00    +0.015 A 
ATOM     24  C   UNL     1       2.393  -4.035  -4.349  0.00  0.00    +0.001 A 
ATOM     25  C   UNL     1       1.982  -4.203  -5.659  0.00  0.00    +0.002 A 
ATOM     26  C   UNL     1       0.669  -3.951  -6.017  0.00  0.00    +0.033 A 
ATOM     27  C   UNL     1      -0.239  -3.532  -5.067  0.00  0.00    +0.138 A 
BRANCH  27  28
ATOM     28  N   UNL     1      -1.643  -3.263  -5.451  0.00  0.00    +0.057 N 
ATOM     29  O   UNL     1      -2.030  -3.535  -6.574  0.00  0.00    -0.126 OA
ATOM     30  O   UNL     1      -2.411  -2.770  -4.645  0.00  0.00    -0.126 OA
ENDBRANCH  27  28
ENDBRANCH  19  22
ENDBRANCH   6  18
TORSDOF 5
