REMARK  Name = ZINC63302129
REMARK  6 active torsions:
REMARK  status: ('A' for Active; 'I' for Inactive)
REMARK    1  A    between atoms: C_6  and  C_7
REMARK    2  A    between atoms: C_7  and  N_8
REMARK    3  A    between atoms: C_9  and  C_11
REMARK    4  A    between atoms: C_11  and  S_12
REMARK    5  A    between atoms: S_12  and  C_13
REMARK    6  A    between atoms: C_19  and  N_23
REMARK                            x       y       z     vdW  Elec       q    Type
REMARK                         _______ _______ _______ _____ _____    ______ ____
ROOT
ATOM      1  C   UNL     1      -3.314  -1.940  -3.025  0.00  0.00    +0.168 C 
ENDROOT
BRANCH   1   3
ATOM      2  N   UNL     1      -1.727  -1.016  -1.368  0.00  0.00    -0.311 N 
ATOM      3  C   UNL     1      -2.868  -1.691  -1.607  0.00  0.00    +0.223 C 
ATOM      4  O   UNL     1      -3.537  -2.098  -0.681  0.00  0.00    -0.275 OA
ATOM      5  H   UNL     1      -1.192  -0.690  -2.109  0.00  0.00    +0.149 HD
BRANCH   2   6
ATOM      6  C   UNL     1      -1.294  -0.774   0.010  0.00  0.00    +0.139 C 
BRANCH   6  12
ATOM      7  C   UNL     1      -0.017   1.378   0.010  0.00  0.00    +0.009 A 
ATOM      8  C   UNL     1       1.170   2.088   0.002  0.00  0.00    +0.050 A 
ATOM      9  C   UNL     1       2.380   1.416  -0.013  0.00  0.00    +0.166 A 
ATOM     10  C   UNL     1       2.399   0.023  -0.021  0.00  0.00    +0.167 A 
ATOM     11  C   UNL     1       1.207  -0.682  -0.014  0.00  0.00    +0.054 A 
ATOM     12  C   UNL     1       0.002  -0.004   0.002  0.00  0.00    -0.027 A 
ATOM     13  O   UNL     1       3.698  -0.395  -0.036  0.00  0.00    -0.453 OA
ATOM     14  C   UNL     1       4.466   0.750  -0.450  0.00  0.00    +0.466 C 
ATOM     15  O   UNL     1       3.668   1.870  -0.024  0.00  0.00    -0.453 OA
ENDBRANCH   6  12
ENDBRANCH   2   6
ENDBRANCH   1   3
BRANCH   1  16
ATOM     16  S   UNL     1      -4.873  -2.866  -3.015  0.00  0.00    -0.106 S 
BRANCH  16  17
ATOM     17  C   UNL     1      -5.267  -3.081  -4.773  0.00  0.00    +0.236 C 
ATOM     18  N   UNL     1      -5.361  -1.772  -5.432  0.00  0.00    -0.355 N 
ATOM     19  C   UNL     1      -4.455  -1.739  -6.365  0.00  0.00    +0.061 A 
ATOM     20  C   UNL     1      -4.067  -0.715  -7.346  0.00  0.00    +0.029 A 
ATOM     21  C   UNL     1      -3.065  -0.968  -8.211  0.00  0.00    +0.035 A 
ATOM     22  C   UNL     1      -2.361  -2.185  -8.220  0.00  0.00    +0.128 A 
ATOM     23  C   UNL     1      -2.635  -3.190  -7.365  0.00  0.00    +0.060 A 
ATOM     24  C   UNL     1      -3.709  -3.027  -6.375  0.00  0.00    +0.063 A 
ATOM     25  N   UNL     1      -4.185  -3.808  -5.447  0.00  0.00    -0.355 N 
ATOM     26  H   UNL     1      -3.879  -4.705  -5.239  0.00  0.00    +0.162 HD
ATOM     27  H   UNL     1      -5.985  -1.062  -5.212  0.00  0.00    +0.162 HD
BRANCH  22  28
ATOM     28  N   UNL     1      -1.275  -2.370  -9.209  0.00  0.00    +0.056 N 
ATOM     29  O   UNL     1      -1.009  -1.484  -9.987  0.00  0.00    -0.126 OA
ATOM     30  O   UNL     1      -0.654  -3.407  -9.238  0.00  0.00    -0.126 OA
ENDBRANCH  22  28
ENDBRANCH  16  17
ENDBRANCH   1  16
TORSDOF 6
