REMARK  Name = ZINC10875756
REMARK  9 active torsions:
REMARK  status: ('A' for Active; 'I' for Inactive)
REMARK    1  A    between atoms: C_1  and  C_2
REMARK    2  A    between atoms: C_2  and  C_3
REMARK    3  A    between atoms: C_6  and  C_9
REMARK    4  A    between atoms: C_9  and  C_11
REMARK    5  A    between atoms: C_9  and  N_12
REMARK    6  A    between atoms: C_13  and  C_15
REMARK    7  A    between atoms: C_15  and  O_16
REMARK    8  A    between atoms: O_16  and  C_17
REMARK    9  A    between atoms: C_17  and  C_19
REMARK                            x       y       z     vdW  Elec       q    Type
REMARK                         _______ _______ _______ _____ _____    ______ ____
ROOT
ATOM      1  C   UNL     1       2.434   5.519   0.608  0.00  0.00    +0.340 C 
ATOM      2  O   UNL     1       1.382   6.100   0.784  0.00  0.00    -0.245 OA
ENDROOT
BRANCH   1   3
ATOM      3  C   UNL     1       2.436   4.074   0.294  0.00  0.00    +0.070 A 
ATOM      4  C   UNL     1       3.141   3.596  -0.814  0.00  0.00    +0.016 A 
ATOM      5  C   UNL     1       3.144   2.247  -1.109  0.00  0.00    +0.002 A 
ATOM      6  C   UNL     1       2.451   1.350  -0.314  0.00  0.00    +0.012 A 
ATOM      7  C   UNL     1       1.741   1.804   0.796  0.00  0.00    +0.034 A 
ATOM      8  C   UNL     1       1.730   3.174   1.105  0.00  0.00    +0.047 A 
ATOM      9  C   UNL     1       0.973   3.655   2.282  0.00  0.00    +0.195 C 
ATOM     10  O   UNL     1       1.148   4.779   2.708  0.00  0.00    -0.287 OA
ATOM     11  C   UNL     1       0.001   2.751   2.934  0.00  0.00    +0.033 A 
ATOM     12  C   UNL     1      -0.924   3.244   3.848  0.00  0.00    +0.012 A 
ATOM     13  C   UNL     1      -1.839   2.381   4.436  0.00  0.00    +0.001 A 
ATOM     14  C   UNL     1      -1.827   1.032   4.131  0.00  0.00    +0.001 A 
ATOM     15  C   UNL     1      -0.909   0.525   3.227  0.00  0.00    +0.012 A 
ATOM     16  C   UNL     1       0.008   1.377   2.621  0.00  0.00    +0.033 A 
ATOM     17  C   UNL     1       0.997   0.855   1.653  0.00  0.00    +0.195 C 
ATOM     18  O   UNL     1       1.192  -0.341   1.558  0.00  0.00    -0.287 OA
ENDBRANCH   1   3
BRANCH   1  19
ATOM     19  O   UNL     1       3.598   6.190   0.699  0.00  0.00    -0.452 OA
BRANCH  19  20
ATOM     20  C   UNL     1       3.520   7.606   1.011  0.00  0.00    +0.328 C 
BRANCH  20  22
ATOM     21  N   UNL     1       5.085   9.492   1.347  0.00  0.00    -0.306 N 
ATOM     22  C   UNL     1       4.910   8.184   1.071  0.00  0.00    +0.251 C 
ATOM     23  O   UNL     1       5.872   7.473   0.871  0.00  0.00    -0.272 OA
ATOM     24  H   UNL     1       4.315  10.061   1.507  0.00  0.00    +0.149 HD
BRANCH  21  25
ATOM     25  C   UNL     1       6.436  10.054   1.406  0.00  0.00    +0.100 C 
ATOM     26  C   UNL     1       7.021   9.832   2.802  0.00  0.00    +0.033 C 
BRANCH  25  30
ATOM     27  C   UNL     1       6.272  14.242   0.580  0.00  0.00    -0.048 A 
ATOM     28  C   UNL     1       7.301  13.476   0.066  0.00  0.00    +0.004 A 
ATOM     29  C   UNL     1       7.354  12.121   0.333  0.00  0.00    +0.006 A 
ATOM     30  C   UNL     1       6.378  11.532   1.115  0.00  0.00    -0.027 A 
ATOM     31  C   UNL     1       5.347  12.297   1.625  0.00  0.00    +0.006 A 
ATOM     32  C   UNL     1       5.296  13.653   1.363  0.00  0.00    +0.004 A 
BRANCH  27  34
ATOM     33  C   UNL     1       5.407  15.956  -0.990  0.00  0.00    +0.009 C 
ATOM     34  C   UNL     1       6.214  15.720   0.289  0.00  0.00    +0.032 C 
ENDBRANCH  27  34
ENDBRANCH  25  30
ENDBRANCH  21  25
ENDBRANCH  20  22
ENDBRANCH  19  20
ENDBRANCH   1  19
TORSDOF 7
