REMARK  Name = ZINC39540402
REMARK  2 active torsions:
REMARK  status: ('A' for Active; 'I' for Inactive)
REMARK    1  A    between atoms: C_1  and  N_2
REMARK    2  A    between atoms: C_4  and  O_8
REMARK                            x       y       z     vdW  Elec       q    Type
REMARK                         _______ _______ _______ _____ _____    ______ ____
ROOT
ATOM      1  C   UNL     1      -0.018   1.461   0.010  0.00  0.00    +0.148 C 
ATOM      2  N   UNL     1       0.002  -0.004   0.002  0.00  0.00    -0.352 N 
ATOM      3  C   UNL     1       0.008  -0.795  -1.115  0.00  0.00    +0.132 A 
ATOM      4  C   UNL     1       0.027  -2.086  -0.715  0.00  0.00    +0.147 A 
ATOM      5  C   UNL     1       0.034  -2.090   0.697  0.00  0.00    +0.072 A 
ATOM      6  C   UNL     1       0.024  -0.804   1.106  0.00  0.00    +0.103 A 
ATOM      7  I   UNL     1       0.062  -3.783   1.931  0.00  0.00    -0.038 I 
ENDROOT
BRANCH   4   8
ATOM      8  O   UNL     1       0.038  -3.181  -1.525  0.00  0.00    -0.504 OA
ATOM      9  H   UNL     1       0.925  -3.486  -1.762  0.00  0.00    +0.292 HD
ENDBRANCH   4   8
TORSDOF 1
