REMARK  Name = ZINC59498477
REMARK  8 active torsions:
REMARK  status: ('A' for Active; 'I' for Inactive)
REMARK    1  A    between atoms: C_1  and  C_2
REMARK    2  A    between atoms: C_2  and  O_3
REMARK    3  A    between atoms: O_3  and  C_4
REMARK    4  A    between atoms: C_4  and  C_6
REMARK    5  A    between atoms: C_9  and  C_11
REMARK    6  A    between atoms: C_9  and  O_20
REMARK    7  A    between atoms: C_14  and  N_17
REMARK    8  A    between atoms: C_21  and  C_23
REMARK                            x       y       z     vdW  Elec       q    Type
REMARK                         _______ _______ _______ _____ _____    ______ ____
ROOT
ATOM      1  C   UNL     1      -2.844  -2.422   0.085  0.00  0.00    +0.148 C 
ATOM      2  N   UNL     1      -3.945  -1.746   0.072  0.00  0.00    -0.172 NA
ATOM      3  N   UNL     1      -5.095  -2.533   0.058  0.00  0.00    -0.152 N 
ATOM      4  C   UNL     1      -4.702  -3.950   0.062  0.00  0.00    +0.188 C 
ATOM      5  C   UNL     1      -3.161  -3.901   0.074  0.00  0.00    +0.126 C 
ATOM      6  C   UNL     1      -6.360  -2.070   0.043  0.00  0.00    +0.269 C 
ATOM      7  O   UNL     1      -7.290  -2.846  -0.064  0.00  0.00    -0.268 OA
ENDROOT
BRANCH   6   8
ATOM      8  C   UNL     1      -6.619  -0.621   0.157  0.00  0.00    +0.039 A 
ATOM      9  C   UNL     1      -5.555   0.284   0.144  0.00  0.00    +0.014 A 
ATOM     10  C   UNL     1      -5.802   1.637   0.251  0.00  0.00    +0.016 A 
ATOM     11  C   UNL     1      -7.103   2.098   0.371  0.00  0.00    +0.018 A 
ATOM     12  C   UNL     1      -8.162   1.206   0.385  0.00  0.00    +0.016 A 
ATOM     13  C   UNL     1      -7.928  -0.148   0.273  0.00  0.00    +0.014 A 
ATOM     14 BR   UNL     1      -7.433   3.954   0.519  0.00  0.00    -0.050 Br
ENDBRANCH   6   8
BRANCH   4  15
ATOM     15  C   UNL     1      -5.224  -4.642   1.294  0.00  0.00    +0.004 A 
ATOM     16  C   UNL     1      -5.405  -6.013   1.294  0.00  0.00    +0.010 A 
ATOM     17  C   UNL     1      -5.885  -6.647   2.424  0.00  0.00    +0.033 A 
ATOM     18  C   UNL     1      -6.184  -5.911   3.555  0.00  0.00    +0.126 A 
ATOM     19  C   UNL     1      -6.002  -4.540   3.556  0.00  0.00    +0.033 A 
ATOM     20  C   UNL     1      -5.519  -3.907   2.427  0.00  0.00    +0.010 A 
BRANCH  18  21
ATOM     21  N   UNL     1      -6.698  -6.590   4.766  0.00  0.00    +0.056 N 
ATOM     22  O   UNL     1      -6.857  -7.789   4.765  0.00  0.00    -0.126 OA
ATOM     23  O   UNL     1      -6.960  -5.946   5.755  0.00  0.00    -0.126 OA
ENDBRANCH  18  21
ENDBRANCH   4  15
BRANCH   1  24
ATOM     24  C   UNL     1      -1.497  -1.846   0.102  0.00  0.00    +0.355 C 
ATOM     25  O   UNL     1      -0.524  -2.575   0.108  0.00  0.00    -0.244 OA
BRANCH  24  26
ATOM     26  O   UNL     1      -1.336  -0.507   0.111  0.00  0.00    -0.461 OA
BRANCH  26  28
ATOM     27  C   UNL     1      -0.013   1.515   0.136  0.00  0.00    +0.048 C 
ATOM     28  C   UNL     1       0.005  -0.015   0.128  0.00  0.00    +0.229 C 
ENDBRANCH  26  28
ENDBRANCH  24  26
ENDBRANCH   1  24
BRANCH   4  29
ATOM     29  O   UNL     1      -5.169  -4.605  -1.120  0.00  0.00    -0.366 OA
ATOM     30  H   UNL     1      -6.131  -4.605  -1.215  0.00  0.00    +0.212 HD
ENDBRANCH   4  29
TORSDOF 7
