REMARK  Name = ZINC07736140
REMARK  5 active torsions:
REMARK  status: ('A' for Active; 'I' for Inactive)
REMARK    1  A    between atoms: C_1  and  C_2
REMARK    2  A    between atoms: C_5  and  C_8
REMARK    3  A    between atoms: C_8  and  N_9
REMARK    4  A    between atoms: C_10  and  C_12
REMARK    5  A    between atoms: C_12  and  N_13
REMARK                            x       y       z     vdW  Elec       q    Type
REMARK                         _______ _______ _______ _____ _____    ______ ____
ROOT
ATOM      1  N   UNL     1      -1.372  -0.511   0.012  0.00  0.00    -0.215 N 
ATOM      2  C   UNL     1      -2.071  -0.785   1.134  0.00  0.00    +0.252 C 
ATOM      3  O   UNL     1      -1.697  -0.662   2.280  0.00  0.00    -0.272 OA
ATOM      4  C   UNL     1      -3.420  -1.273   0.659  0.00  0.00    +0.144 C 
ATOM      5  C   UNL     1      -4.529  -0.348   1.152  0.00  0.00    +0.081 C 
ATOM      6  C   UNL     1      -4.760  -0.625   2.644  0.00  0.00    +0.232 C 
ATOM      7  O   UNL     1      -5.227  -1.967   2.787  0.00  0.00    -0.492 OA
ATOM      8  C   UNL     1      -4.538  -2.954   2.159  0.00  0.00    +0.126 A 
ATOM      9  C   UNL     1      -3.657  -2.682   1.125  0.00  0.00    +0.027 A 
ATOM     10  C   UNL     1      -2.979  -3.719   0.508  0.00  0.00    +0.010 A 
ATOM     11  C   UNL     1      -3.175  -5.023   0.920  0.00  0.00    +0.001 A 
ATOM     12  C   UNL     1      -4.051  -5.298   1.954  0.00  0.00    +0.004 A 
ATOM     13  C   UNL     1      -4.731  -4.268   2.572  0.00  0.00    +0.046 A 
ATOM     14  N   UNL     1      -3.323  -1.224  -0.805  0.00  0.00    -0.281 N 
ATOM     15  C   UNL     1      -2.089  -0.766  -1.089  0.00  0.00    +0.310 C 
ATOM     16  O   UNL     1      -1.672  -0.602  -2.219  0.00  0.00    -0.252 OA
ATOM     17  H   UNL     1      -4.011  -1.474  -1.442  0.00  0.00    +0.152 HD
ENDROOT
BRANCH   1  18
ATOM     18  C   UNL     1       0.002  -0.004   0.002  0.00  0.00    +0.213 C 
BRANCH  18  20
ATOM     19  N   UNL     1       1.139   2.192   0.003  0.00  0.00    -0.310 N 
ATOM     20  C   UNL     1      -0.018   1.503   0.010  0.00  0.00    +0.231 C 
ATOM     21  O   UNL     1      -1.077   2.095   0.018  0.00  0.00    -0.274 OA
ATOM     22  H   UNL     1       1.986   1.719  -0.008  0.00  0.00    +0.149 HD
BRANCH  19  23
ATOM     23  C   UNL     1       1.120   3.657   0.011  0.00  0.00    +0.139 C 
BRANCH  23  28
ATOM     24  C   UNL     1       6.540   5.659  -0.030  0.00  0.00    +0.044 C 
ATOM     25  C   UNL     1       5.127   5.137  -0.019  0.00  0.00    -0.050 A 
ATOM     26  C   UNL     1       4.467   4.904  -1.212  0.00  0.00    +0.003 A 
ATOM     27  C   UNL     1       3.171   4.425  -1.202  0.00  0.00    +0.005 A 
ATOM     28  C   UNL     1       2.534   4.179   0.000  0.00  0.00    -0.030 A 
ATOM     29  C   UNL     1       3.191   4.417   1.192  0.00  0.00    +0.005 A 
ATOM     30  C   UNL     1       4.490   4.891   1.183  0.00  0.00    +0.003 A 
ENDBRANCH  23  28
ENDBRANCH  19  23
ENDBRANCH  18  20
ENDBRANCH   1  18
TORSDOF 4
