REMARK  Name = ZINC40897434
REMARK  11 active torsions:
REMARK  status: ('A' for Active; 'I' for Inactive)
REMARK    1  A    between atoms: C_1  and  C_2
REMARK    2  A    between atoms: C_2  and  C_3
REMARK    3  A    between atoms: C_2  and  C_4
REMARK    4  A    between atoms: C_4  and  C_6
REMARK    5  A    between atoms: C_4  and  N_26
REMARK    6  A    between atoms: C_6  and  O_8
REMARK    7  A    between atoms: O_8  and  C_9
REMARK    8  A    between atoms: C_14  and  C_20
REMARK    9  A    between atoms: N_22  and  C_23
REMARK   10  A    between atoms: C_23  and  C_24
REMARK   11  A    between atoms: C_23  and  C_25
REMARK                            x       y       z     vdW  Elec       q    Type
REMARK                         _______ _______ _______ _____ _____    ______ ____
ROOT
ATOM      1  O   UNL     1      -1.660  -0.913  -2.433  0.00  0.00    -0.424 OA
ENDROOT
BRANCH   1   2
ATOM      2  C   UNL     1      -2.467  -0.845  -3.522  0.00  0.00    +0.135 A 
ATOM      3  C   UNL     1      -2.711   0.387  -4.127  0.00  0.00    +0.047 A 
ATOM      4  C   UNL     1      -3.529   0.474  -5.214  0.00  0.00    +0.015 A 
ATOM      5  C   UNL     1      -4.140  -0.682  -5.724  0.00  0.00    +0.019 A 
ATOM      6  C   UNL     1      -5.020  -0.602  -6.830  0.00  0.00    +0.031 A 
ATOM      7  C   UNL     1      -5.751  -1.734  -7.170  0.00  0.00    +0.122 A 
ATOM      8  C   UNL     1      -5.577  -2.930  -6.327  0.00  0.00    +0.350 A 
ATOM      9  O   UNL     1      -6.452  -3.770  -6.237  0.00  0.00    -0.244 OA
ATOM     10  O   UNL     1      -4.409  -3.062  -5.655  0.00  0.00    -0.422 OA
ATOM     11  C   UNL     1      -3.871  -1.933  -5.133  0.00  0.00    +0.143 A 
ATOM     12  C   UNL     1      -3.038  -2.002  -4.027  0.00  0.00    +0.093 A 
BRANCH   7  13
ATOM     13  C   UNL     1      -6.662  -1.739  -8.326  0.00  0.00    +0.251 C 
ATOM     14  O   UNL     1      -6.787  -0.738  -9.006  0.00  0.00    -0.270 OA
ATOM     15  N   UNL     1      -7.358  -2.852  -8.631  0.00  0.00    -0.309 N 
ATOM     16  H   UNL     1      -7.258  -3.650  -8.088  0.00  0.00    +0.149 HD
BRANCH  15  17
ATOM     17  C   UNL     1      -8.265  -2.857  -9.781  0.00  0.00    +0.067 C 
ATOM     18  C   UNL     1      -8.437  -4.290 -10.289  0.00  0.00    +0.027 C 
ATOM     19  C   UNL     1      -9.626  -2.299  -9.360  0.00  0.00    +0.027 C 
ENDBRANCH  15  17
ENDBRANCH   7  13
ENDBRANCH   1   2
BRANCH   1  20
ATOM     20  C   UNL     1      -2.162  -0.521  -1.250  0.00  0.00    +0.334 C 
ATOM     21  O   UNL     1      -3.268  -0.039  -1.193  0.00  0.00    -0.248 OA
BRANCH  20  22
ATOM     22  C   UNL     1      -1.345  -0.683   0.006  0.00  0.00    +0.196 C 
BRANCH  22  23
ATOM     23  N   UNL     1      -2.109  -0.185   1.153  0.00  0.00    -0.220 N 
ATOM     24  C   UNL     1      -2.506  -0.944   2.190  0.00  0.00    +0.255 C 
ATOM     25  O   UNL     1      -2.293  -2.132   2.322  0.00  0.00    -0.270 OA
ATOM     26  C   UNL     1      -3.246  -0.089   3.142  0.00  0.00    +0.049 A 
ATOM     27  C   UNL     1      -3.873  -0.312   4.358  0.00  0.00    +0.014 A 
ATOM     28  C   UNL     1      -4.495   0.739   5.013  0.00  0.00    +0.001 A 
ATOM     29  C   UNL     1      -4.493   2.007   4.463  0.00  0.00    +0.001 A 
ATOM     30  C   UNL     1      -3.870   2.246   3.248  0.00  0.00    +0.014 A 
ATOM     31  C   UNL     1      -3.245   1.204   2.581  0.00  0.00    +0.049 A 
ATOM     32  C   UNL     1      -2.499   1.093   1.310  0.00  0.00    +0.255 C 
ATOM     33  O   UNL     1      -2.279   2.002   0.535  0.00  0.00    -0.270 OA
ENDBRANCH  22  23
BRANCH  22  35
ATOM     34  C   UNL     1       0.719   0.063   1.200  0.00  0.00    +0.009 C 
ATOM     35  C   UNL     1      -0.044   0.112  -0.125  0.00  0.00    +0.015 C 
ATOM     36  C   UNL     1       0.817  -0.498  -1.232  0.00  0.00    +0.009 C 
ENDBRANCH  22  35
ENDBRANCH  20  22
ENDBRANCH   1  20
TORSDOF 7
