REMARK  Name = ZINC14233552
REMARK  5 active torsions:
REMARK  status: ('A' for Active; 'I' for Inactive)
REMARK    1  A    between atoms: C_8  and  C_13
REMARK    2  A    between atoms: C_13  and  C_14
REMARK    3  A    between atoms: C_14  and  C_15
REMARK    4  A    between atoms: N_17  and  C_18
REMARK    5  A    between atoms: C_18  and  C_19
REMARK                            x       y       z     vdW  Elec       q    Type
REMARK                         _______ _______ _______ _____ _____    ______ ____
ROOT
ATOM      1  C   UNL     1       3.325  -3.107  -3.076  0.00  0.00    +0.096 C 
ENDROOT
BRANCH   1   2
ATOM      2  C   UNL     1       3.085  -2.887  -4.547  0.00  0.00    +0.213 C 
ATOM      3  O   UNL     1       2.098  -2.288  -4.918  0.00  0.00    -0.276 OA
ATOM      4  N   UNL     1       3.968  -3.357  -5.451  0.00  0.00    -0.311 N 
ATOM      5  H   UNL     1       4.758  -3.836  -5.154  0.00  0.00    +0.149 HD
BRANCH   4   6
ATOM      6  C   UNL     1       3.735  -3.143  -6.882  0.00  0.00    +0.139 C 
BRANCH   6   7
ATOM      7  C   UNL     1       4.860  -3.761  -7.671  0.00  0.00    -0.027 A 
ATOM      8  C   UNL     1       5.984  -3.013  -7.972  0.00  0.00    +0.009 A 
ATOM      9  C   UNL     1       7.019  -3.575  -8.696  0.00  0.00    +0.050 A 
ATOM     10  C   UNL     1       6.932  -4.890  -9.122  0.00  0.00    +0.166 A 
ATOM     11  C   UNL     1       5.801  -5.644  -8.819  0.00  0.00    +0.167 A 
ATOM     12  C   UNL     1       4.770  -5.076  -8.088  0.00  0.00    +0.054 A 
ATOM     13  O   UNL     1       5.956  -6.894  -9.344  0.00  0.00    -0.453 OA
ATOM     14  C   UNL     1       7.009  -6.774 -10.318  0.00  0.00    +0.466 C 
ATOM     15  O   UNL     1       7.796  -5.669  -9.837  0.00  0.00    -0.453 OA
ENDBRANCH   6   7
ENDBRANCH   4   6
ENDBRANCH   1   2
BRANCH   1  16
ATOM     16  C   UNL     1       2.182  -2.480  -2.274  0.00  0.00    +0.022 C 
BRANCH  16  24
ATOM     17  C   UNL     1      -0.017   1.378   0.010  0.00  0.00    +0.000 A 
ATOM     18  C   UNL     1       1.170   2.088   0.002  0.00  0.00    +0.002 A 
ATOM     19  C   UNL     1       2.377   1.418  -0.021  0.00  0.00    +0.023 A 
ATOM     20  C   UNL     1       2.400   0.030  -0.041  0.00  0.00    +0.037 A 
ATOM     21  C   UNL     1       1.207  -0.680  -0.016  0.00  0.00    -0.025 A 
ATOM     22  C   UNL     1       0.002  -0.004   0.002  0.00  0.00    +0.005 A 
ATOM     23  C   UNL     1       1.224  -2.187   0.013  0.00  0.00    +0.049 C 
ATOM     24  C   UNL     1       2.425  -2.703  -0.780  0.00  0.00    +0.080 C 
ATOM     25  C   UNL     1       3.668  -1.963  -0.360  0.00  0.00    +0.221 C 
ATOM     26  O   UNL     1       4.723  -2.557  -0.283  0.00  0.00    -0.275 OA
ATOM     27  N   UNL     1       3.620  -0.651  -0.071  0.00  0.00    -0.285 N 
ATOM     28  H   UNL     1       4.441  -0.172   0.119  0.00  0.00    +0.155 HD
ENDBRANCH  16  24
ENDBRANCH   1  16
TORSDOF 5
