REMARK  Name = ZINC06078282
REMARK  16 active torsions:
REMARK  status: ('A' for Active; 'I' for Inactive)
REMARK    1  A    between atoms: C_1  and  C_2
REMARK    2  A    between atoms: C_2  and  N_69
REMARK    3  A    between atoms: C_3  and  C_4
REMARK    4  A    between atoms: C_3  and  N_69
REMARK    5  A    between atoms: C_5  and  C_6
REMARK    6  A    between atoms: C_5  and  N_69
REMARK    7  A    between atoms: C_6  and  N_7
REMARK    8  A    between atoms: N_7  and  C_8
REMARK    9  A    between atoms: N_7  and  C_23
REMARK   10  A    between atoms: C_8  and  C_9
REMARK   11  A    between atoms: C_12  and  C_22
REMARK   12  A    between atoms: C_15  and  C_21
REMARK   13  A    between atoms: C_23  and  N_25
REMARK   14  A    between atoms: N_25  and  C_26
REMARK   15  A    between atoms: C_29  and  C_33
REMARK   16  A    between atoms: C_31  and  C_32
REMARK                            x       y       z     vdW  Elec       q    Type
REMARK                         _______ _______ _______ _____ _____    ______ ____
ROOT
ATOM      1  N   UNL     1      -0.577   1.329  -0.166  0.00  0.00    -0.310 N 
ENDROOT
BRANCH   1   2
ATOM      2  C   UNL     1      -0.792  -0.001  -0.207  0.00  0.00    +0.137 C 
ATOM      3  S   UNL     1      -2.393  -0.609  -0.221  0.00  0.00    -0.018 S 
BRANCH   2   4
ATOM      4  N   UNL     1       0.252  -0.853  -0.238  0.00  0.00    -0.297 N 
ATOM      5  H   UNL     1       1.157  -0.508  -0.279  0.00  0.00    +0.154 HD
BRANCH   4   6
ATOM      6  C   UNL     1       0.029  -2.234  -0.212  0.00  0.00    +0.036 A 
ATOM      7  C   UNL     1      -0.930  -2.768   0.639  0.00  0.00    +0.024 A 
ATOM      8  C   UNL     1      -1.147  -4.131   0.662  0.00  0.00    +0.005 A 
ATOM      9  C   UNL     1      -0.411  -4.965  -0.160  0.00  0.00    -0.050 A 
ATOM     10  C   UNL     1       0.544  -4.436  -1.008  0.00  0.00    +0.008 A 
ATOM     11  C   UNL     1       0.763  -3.072  -1.040  0.00  0.00    -0.029 A 
ATOM     12  C   UNL     1       1.800  -2.497  -1.969  0.00  0.00    +0.045 C 
ATOM     13  C   UNL     1      -0.651  -6.452  -0.131  0.00  0.00    +0.044 C 
ENDBRANCH   4   6
ENDBRANCH   2   4
ENDBRANCH   1   2
BRANCH   1  14
ATOM     14  C   UNL     1       0.789   1.846  -0.048  0.00  0.00    +0.088 C 
BRANCH  14  15
ATOM     15  C   UNL     1       1.412   1.963  -1.440  0.00  0.00    -0.060 C 
BRANCH  15  16
ATOM     16  N   UNL     1       2.792   2.474  -1.301  0.00  0.00    +0.380 N 
ATOM     17  H   UNL     1       2.794   3.248  -0.626  0.00  0.00    -0.082 HD
BRANCH  16  19
ATOM     18  C   UNL     1       3.781   0.271  -1.829  0.00  0.00    -0.017 C 
ATOM     19  C   UNL     1       3.679   1.402  -0.804  0.00  0.00    -0.082 C 
ENDBRANCH  16  19
BRANCH  16  20
ATOM     20  C   UNL     1       3.280   2.971  -2.604  0.00  0.00    -0.082 C 
ATOM     21  C   UNL     1       4.655   3.614  -2.405  0.00  0.00    -0.017 C 
ENDBRANCH  16  20
ENDBRANCH  15  16
ENDBRANCH  14  15
ENDBRANCH   1  14
BRANCH   1  22
ATOM     22  C   UNL     1      -1.707   2.257  -0.244  0.00  0.00    +0.147 C 
BRANCH  22  23
ATOM     23  C   UNL     1      -2.014   2.553  -1.690  0.00  0.00    +0.035 A 
ATOM     24  C   UNL     1      -2.977   1.848  -2.334  0.00  0.00    +0.020 A 
ATOM     25  C   UNL     1      -3.251   2.160  -3.738  0.00  0.00    +0.002 A 
ATOM     26  C   UNL     1      -4.232   1.467  -4.455  0.00  0.00    -0.041 A 
ATOM     27  C   UNL     1      -4.464   1.782  -5.764  0.00  0.00    +0.004 A 
ATOM     28  C   UNL     1      -3.734   2.784  -6.389  0.00  0.00    +0.005 A 
ATOM     29  C   UNL     1      -2.763   3.480  -5.702  0.00  0.00    -0.026 A 
ATOM     30  C   UNL     1      -2.509   3.177  -4.368  0.00  0.00    +0.052 A 
ATOM     31  N   UNL     1      -1.544   3.857  -3.657  0.00  0.00    -0.322 N 
ATOM     32  H   UNL     1      -1.016   4.577  -4.107  0.00  0.00    +0.169 HD
ATOM     33  C   UNL     1      -1.303   3.567  -2.366  0.00  0.00    +0.254 A 
ATOM     34  O   UNL     1      -0.445   4.192  -1.767  0.00  0.00    -0.268 OA
ATOM     35  C   UNL     1      -1.978   4.566  -6.393  0.00  0.00    +0.046 C 
ATOM     36  C   UNL     1      -5.030   0.377  -3.786  0.00  0.00    +0.044 C 
ENDBRANCH  22  23
ENDBRANCH   1  22
TORSDOF 10
