REMARK  Name = ZINC66348001
REMARK  5 active torsions:
REMARK  status: ('A' for Active; 'I' for Inactive)
REMARK    1  A    between atoms: C_1  and  C_2
REMARK    2  A    between atoms: C_2  and  C_3
REMARK    3  A    between atoms: C_3  and  C_4
REMARK    4  A    between atoms: C_3  and  C_10
REMARK    5  A    between atoms: C_3  and  O_14
REMARK                            x       y       z     vdW  Elec       q    Type
REMARK                         _______ _______ _______ _____ _____    ______ ____
ROOT
ATOM      1  C   UNL     1       0.793  -0.397  -1.248  0.00  0.00    +0.238 C 
ENDROOT
BRANCH   1   2
ATOM      2  C   UNL     1       0.627  -1.887  -1.402  0.00  0.00    +0.259 A 
ATOM      3  N   UNL     1      -0.499  -2.525  -1.532  0.00  0.00    -0.108 NA
ATOM      4  N   UNL     1      -0.269  -3.786  -1.641  0.00  0.00    -0.093 NA
ATOM      5  C   UNL     1       1.024  -3.997  -1.583  0.00  0.00    +0.305 A 
ATOM      6  O   UNL     1       1.618  -2.799  -1.435  0.00  0.00    -0.406 OA
ATOM      7  N   UNL     1       1.658  -5.223  -1.663  0.00  0.00    -0.312 N 
ATOM      8  H   UNL     1       1.137  -6.033  -1.774  0.00  0.00    +0.147 HD
ATOM      9  H   UNL     1       2.626  -5.273  -1.609  0.00  0.00    +0.147 HD
ENDBRANCH   1   2
BRANCH   1  10
ATOM     10  C   UNL     1       0.202   0.311  -2.468  0.00  0.00    +0.427 C 
ATOM     11  F   UNL     1       0.380   1.693  -2.337  0.00  0.00    -0.167 F 
ATOM     12  F   UNL     1       0.851  -0.134  -3.625  0.00  0.00    -0.167 F 
ATOM     13  F   UNL     1      -1.164   0.023  -2.559  0.00  0.00    -0.167 F 
ENDBRANCH   1  10
BRANCH   1  15
ATOM     14  C   UNL     1       0.632  -0.663   1.232  0.00  0.00    +0.007 C 
ATOM     15  C   UNL     1       0.065   0.070   0.015  0.00  0.00    +0.050 C 
ENDBRANCH   1  15
BRANCH   1  16
ATOM     16  O   UNL     1       2.183  -0.081  -1.140  0.00  0.00    -0.372 OA
ATOM     17  H   UNL     1       2.623  -0.497  -0.386  0.00  0.00    +0.211 HD
ENDBRANCH   1  16
TORSDOF 4
