REMARK  Name = ZINC07490333
REMARK  9 active torsions:
REMARK  status: ('A' for Active; 'I' for Inactive)
REMARK    1  A    between atoms: C_1  and  C_2
REMARK    2  A    between atoms: C_5  and  N_8
REMARK    3  A    between atoms: C_9  and  C_11
REMARK    4  A    between atoms: C_11  and  N_57
REMARK    5  A    between atoms: C_12  and  N_57
REMARK    6  A    between atoms: C_13  and  C_15
REMARK    7  A    between atoms: C_13  and  C_16
REMARK    8  A    between atoms: C_13  and  N_57
REMARK    9  A    between atoms: N_21  and  C_22
REMARK                            x       y       z     vdW  Elec       q    Type
REMARK                         _______ _______ _______ _____ _____    ______ ____
ROOT
ATOM      1  C   UNL     1       4.380  -6.215   0.070  0.00  0.00    +0.017 C 
ATOM      2  C   UNL     1       3.657  -6.482  -1.252  0.00  0.00    -0.004 C 
ENDROOT
BRANCH   1   3
ATOM      3  C   UNL     1       5.855  -6.472  -0.103  0.00  0.00    +0.207 C 
ATOM      4  O   UNL     1       6.630  -5.541  -0.152  0.00  0.00    -0.277 OA
ATOM      5  N   UNL     1       6.312  -7.736  -0.203  0.00  0.00    -0.242 N 
ATOM      6  C   UNL     1       7.631  -7.965  -0.358  0.00  0.00    +0.306 C 
ATOM      7  O   UNL     1       8.408  -7.032  -0.407  0.00  0.00    -0.252 OA
ATOM      8  N   UNL     1       8.088  -9.229  -0.458  0.00  0.00    -0.296 N 
ATOM      9  H   UNL     1       5.691  -8.480  -0.164  0.00  0.00    +0.159 HD
ATOM     10  H   UNL     1       7.467  -9.974  -0.418  0.00  0.00    +0.151 HD
BRANCH   8  11
ATOM     11  C   UNL     1       9.522  -9.479  -0.626  0.00  0.00    +0.074 C 
ATOM     12  C   UNL     1       9.885  -9.386  -2.110  0.00  0.00    +0.022 C 
ATOM     13  C   UNL     1      11.382  -9.646  -2.286  0.00  0.00    +0.002 C 
ATOM     14  C   UNL     1      11.721 -11.044  -1.764  0.00  0.00    +0.000 C 
ATOM     15  C   UNL     1      11.358 -11.137  -0.281  0.00  0.00    +0.002 C 
ATOM     16  C   UNL     1       9.861 -10.876  -0.105  0.00  0.00    +0.022 C 
ENDBRANCH   8  11
ENDBRANCH   1   3
BRANCH   1  18
ATOM     17  C   UNL     1       2.816  -4.621   1.007  0.00  0.00    -0.094 C 
ATOM     18  N   UNL     1       4.189  -4.811   0.491  0.00  0.00    +0.391 N 
ATOM     19  H   UNL     1       4.859  -4.593   1.238  0.00  0.00    -0.080 HD
BRANCH  18  20
ATOM     20  C   UNL     1       4.429  -3.904  -0.651  0.00  0.00    +0.020 C 
BRANCH  20  22
ATOM     21  N   UNL     1       4.666  -1.468  -1.006  0.00  0.00    -0.287 N 
ATOM     22  C   UNL     1       4.445  -2.484  -0.148  0.00  0.00    +0.201 C 
ATOM     23  O   UNL     1       4.259  -2.255   1.028  0.00  0.00    -0.278 OA
ATOM     24  H   UNL     1       4.738  -1.643  -1.958  0.00  0.00    +0.155 HD
BRANCH  21  29
ATOM     25  C   UNL     1       5.180   3.834   0.947  0.00  0.00    +0.044 C 
ATOM     26  C   UNL     1       5.043   2.425   0.428  0.00  0.00    -0.050 A 
ATOM     27  C   UNL     1       5.475   1.361   1.199  0.00  0.00    +0.005 A 
ATOM     28  C   UNL     1       5.351   0.070   0.726  0.00  0.00    +0.023 A 
ATOM     29  C   UNL     1       4.793  -0.160  -0.524  0.00  0.00    +0.033 A 
ATOM     30  C   UNL     1       4.361   0.910  -1.296  0.00  0.00    +0.023 A 
ATOM     31  C   UNL     1       4.487   2.200  -0.818  0.00  0.00    +0.005 A 
ENDBRANCH  21  29
ENDBRANCH  20  22
ENDBRANCH  18  20
ENDBRANCH   1  18
TORSDOF 6
