REMARK  Name = ZINC00674591
REMARK  10 active torsions:
REMARK  status: ('A' for Active; 'I' for Inactive)
REMARK    1  A    between atoms: C_1  and  C_2
REMARK    2  A    between atoms: C_5  and  N_9
REMARK    3  A    between atoms: C_6  and  C_8
REMARK    4  A    between atoms: N_9  and  S_10
REMARK    5  A    between atoms: S_10  and  C_13
REMARK    6  A    between atoms: C_16  and  N_19
REMARK    7  A    between atoms: C_20  and  C_22
REMARK    8  A    between atoms: C_22  and  O_23
REMARK    9  A    between atoms: O_23  and  C_24
REMARK   10  A    between atoms: C_28  and  C_30
REMARK                            x       y       z     vdW  Elec       q    Type
REMARK                         _______ _______ _______ _____ _____    ______ ____
ROOT
ATOM      1  C   UNL     1       1.485   2.874   1.292  0.00  0.00    +0.109 A 
ATOM      2  C   UNL     1       0.972   4.155   1.200  0.00  0.00    +0.030 A 
ATOM      3  C   UNL     1       1.036   5.006   2.285  0.00  0.00    +0.025 A 
ATOM      4  C   UNL     1       1.626   4.579   3.467  0.00  0.00    +0.034 A 
ATOM      5  C   UNL     1       2.146   3.295   3.555  0.00  0.00    +0.025 A 
ATOM      6  C   UNL     1       2.074   2.446   2.468  0.00  0.00    +0.030 A 
ENDROOT
BRANCH   4   7
ATOM      7  N   UNL     1       1.697   5.441   4.567  0.00  0.00    -0.283 N 
ATOM      8  C   UNL     1       2.766   5.402   5.386  0.00  0.00    +0.255 C 
ATOM      9  O   UNL     1       3.627   4.564   5.220  0.00  0.00    -0.272 OA
ATOM     10  H   UNL     1       0.976   6.067   4.739  0.00  0.00    +0.155 HD
BRANCH   8  11
ATOM     11  C   UNL     1       2.892   6.399   6.509  0.00  0.00    +0.324 C 
BRANCH  11  12
ATOM     12  O   UNL     1       4.101   6.154   7.231  0.00  0.00    -0.483 OA
BRANCH  12  13
ATOM     13  C   UNL     1       4.368   6.972   8.283  0.00  0.00    +0.122 A 
ATOM     14  C   UNL     1       3.487   7.993   8.611  0.00  0.00    +0.047 A 
ATOM     15  C   UNL     1       3.758   8.819   9.684  0.00  0.00    +0.019 A 
ATOM     16  C   UNL     1       4.912   8.636  10.425  0.00  0.00    +0.021 A 
ATOM     17  C   UNL     1       5.794   7.623  10.097  0.00  0.00    -0.033 A 
ATOM     18  C   UNL     1       5.524   6.791   9.027  0.00  0.00    +0.050 A 
ATOM     19  C   UNL     1       7.050   7.426  10.906  0.00  0.00    +0.045 C 
ATOM     20 BR   UNL     1       5.283   9.773  11.890  0.00  0.00    -0.050 Br
ENDBRANCH  12  13
ENDBRANCH  11  12
ENDBRANCH   8  11
ENDBRANCH   4   7
BRANCH   1  21
ATOM     21  S   UNL     1       1.396   1.788  -0.092  0.00  0.00    +0.072 S 
ATOM     22  O   UNL     1       2.439   0.837   0.070  0.00  0.00    -0.150 OA
ATOM     23  O   UNL     1       1.288   2.610  -1.246  0.00  0.00    -0.150 OA
BRANCH  21  24
ATOM     24  N   UNL     1      -0.029   0.955   0.030  0.00  0.00    -0.216 N 
ATOM     25  H   UNL     1      -0.021  -0.013   0.098  0.00  0.00    +0.174 HD
BRANCH  24  30
ATOM     26  C   UNL     1      -4.962   3.753   0.029  0.00  0.00    +0.044 C 
ATOM     27  C   UNL     1      -3.651   3.010   0.030  0.00  0.00    -0.050 A 
ATOM     28  C   UNL     1      -2.600   3.463  -0.747  0.00  0.00    +0.005 A 
ATOM     29  C   UNL     1      -1.398   2.784  -0.749  0.00  0.00    +0.025 A 
ATOM     30  C   UNL     1      -1.244   1.644   0.031  0.00  0.00    +0.051 A 
ATOM     31  C   UNL     1      -2.303   1.189   0.806  0.00  0.00    -0.028 A 
ATOM     32  C   UNL     1      -3.501   1.876   0.808  0.00  0.00    +0.008 A 
ATOM     33  C   UNL     1      -2.142  -0.049   1.650  0.00  0.00    +0.046 C 
ENDBRANCH  24  30
ENDBRANCH  21  24
ENDBRANCH   1  21
TORSDOF 7
