REMARK  Name = ZINC60367878
REMARK  6 active torsions:
REMARK  status: ('A' for Active; 'I' for Inactive)
REMARK    1  A    between atoms: C_5  and  C_6
REMARK    2  A    between atoms: C_8  and  C_11
REMARK    3  A    between atoms: N_13  and  C_14
REMARK    4  A    between atoms: C_14  and  C_15
REMARK    5  A    between atoms: C_15  and  C_16
REMARK    6  A    between atoms: N_20  and  C_21
REMARK                            x       y       z     vdW  Elec       q    Type
REMARK                         _______ _______ _______ _____ _____    ______ ____
ROOT
ATOM      1  C   UNL     1      -2.306  -4.387   0.012  0.00  0.00    +0.263 C 
ATOM      2  O   UNL     1      -3.374  -4.970   0.018  0.00  0.00    -0.269 OA
ATOM      3  N   UNL     1      -1.155  -5.089   0.003  0.00  0.00    -0.310 N 
ATOM      4  H   UNL     1      -0.304  -4.624  -0.003  0.00  0.00    +0.149 HD
ENDROOT
BRANCH   1   7
ATOM      5  C   UNL     1      -1.128  -0.946   0.008  0.00  0.00    +0.116 A 
ATOM      6  N   UNL     1      -1.111  -2.270   0.006  0.00  0.00    -0.234 NA
ATOM      7  C   UNL     1      -2.271  -2.915   0.014  0.00  0.00    +0.133 A 
ATOM      8  C   UNL     1      -3.434  -2.193   0.023  0.00  0.00    +0.080 A 
ATOM      9  S   UNL     1      -2.879  -0.604   0.028  0.00  0.00    -0.074 S 
BRANCH   5  14
ATOM     10  C   UNL     1      -0.017   1.368   0.010  0.00  0.00    +0.019 A 
ATOM     11  C   UNL     1       1.181   2.045   0.002  0.00  0.00    +0.028 A 
ATOM     12  C   UNL     1       2.342   1.337  -0.013  0.00  0.00    +0.079 A 
ATOM     13  S   UNL     1       1.754  -0.348  -0.017  0.00  0.00    -0.075 S 
ATOM     14  C   UNL     1       0.002  -0.004   0.002  0.00  0.00    +0.046 A 
ATOM     15 CL   UNL     1       3.977   1.922  -0.026  0.00  0.00    -0.076 Cl
ENDBRANCH   5  14
ENDBRANCH   1   7
BRANCH   3  16
ATOM     16  C   UNL     1      -1.190  -6.553   0.001  0.00  0.00    +0.112 C 
BRANCH  16  17
ATOM     17  C   UNL     1       0.239  -7.098  -0.010  0.00  0.00    +0.093 C 
BRANCH  17  18
ATOM     18  C   UNL     1       0.203  -8.604  -0.013  0.00  0.00    +0.115 A 
ATOM     19  N   UNL     1       0.187  -9.366   1.047  0.00  0.00    -0.240 NA
ATOM     20  C   UNL     1       0.155 -10.652   0.666  0.00  0.00    +0.130 A 
ATOM     21  C   UNL     1       0.152 -10.688  -0.680  0.00  0.00    +0.112 A 
ATOM     22  N   UNL     1       0.177  -9.389  -1.111  0.00  0.00    -0.278 N 
BRANCH  22  23
ATOM     23  C   UNL     1       0.178  -8.935  -2.504  0.00  0.00    +0.449 C 
ATOM     24  F   UNL     1      -0.509  -9.861  -3.296  0.00  0.00    -0.185 F 
ATOM     25  F   UNL     1      -0.452  -7.689  -2.589  0.00  0.00    -0.185 F 
ENDBRANCH  22  23
ENDBRANCH  17  18
ENDBRANCH  16  17
ENDBRANCH   3  16
TORSDOF 6
