REMARK  Name = ZINC66929695
REMARK  6 active torsions:
REMARK  status: ('A' for Active; 'I' for Inactive)
REMARK    1  A    between atoms: C_1  and  C_2
REMARK    2  A    between atoms: C_4  and  N_23
REMARK    3  A    between atoms: C_7  and  C_8
REMARK    4  A    between atoms: N_10  and  C_11
REMARK    5  A    between atoms: C_11  and  C_12
REMARK    6  A    between atoms: C_12  and  O_22
REMARK                            x       y       z     vdW  Elec       q    Type
REMARK                         _______ _______ _______ _____ _____    ______ ____
ROOT
ATOM      1  C   UNL     1       0.174   0.003   2.492  0.00  0.00    +0.244 C 
ATOM      2  O   UNL     1       0.149   1.219   2.494  0.00  0.00    -0.270 OA
ATOM      3  N   UNL     1       0.382  -0.668   3.642  0.00  0.00    -0.308 N 
ATOM      4  H   UNL     1       0.402  -1.638   3.640  0.00  0.00    +0.149 HD
ENDROOT
BRANCH   1  11
ATOM      5  C   UNL     1      -0.548   1.441   0.087  0.00  0.00    +0.044 C 
ATOM      6  C   UNL     1      -0.372  -0.056   0.062  0.00  0.00    -0.036 A 
ATOM      7  C   UNL     1      -0.549  -0.753  -1.115  0.00  0.00    +0.036 A 
ATOM      8  C   UNL     1      -0.387  -2.127  -1.140  0.00  0.00    +0.126 A 
ATOM      9  C   UNL     1      -0.047  -2.810   0.014  0.00  0.00    +0.033 A 
ATOM     10  C   UNL     1       0.134  -2.125   1.197  0.00  0.00    +0.015 A 
ATOM     11  C   UNL     1      -0.023  -0.738   1.228  0.00  0.00    +0.040 A 
BRANCH   8  12
ATOM     12  N   UNL     1      -0.580  -2.869  -2.406  0.00  0.00    +0.056 N 
ATOM     13  O   UNL     1      -0.878  -2.274  -3.416  0.00  0.00    -0.126 OA
ATOM     14  O   UNL     1      -0.440  -4.069  -2.431  0.00  0.00    -0.126 OA
ENDBRANCH   8  12
ENDBRANCH   1  11
BRANCH   3  15
ATOM     15  C   UNL     1       0.577   0.067   4.894  0.00  0.00    +0.144 C 
BRANCH  15  16
ATOM     16  C   UNL     1       0.951  -0.914   6.008  0.00  0.00    +0.107 C 
ATOM     17  C   UNL     1       2.208  -1.681   5.602  0.00  0.00    +0.041 C 
ATOM     18  C   UNL     1       2.689  -2.493   6.810  0.00  0.00    +0.008 C 
ATOM     19  C   UNL     1       3.230  -1.523   7.858  0.00  0.00    +0.035 C 
ATOM     20  C   UNL     1       2.230  -0.431   8.136  0.00  0.00    -0.041 A 
ATOM     21  C   UNL     1       1.185  -0.149   7.284  0.00  0.00    -0.011 A 
ATOM     22  C   UNL     1       0.301   0.875   7.596  0.00  0.00    +0.007 A 
ATOM     23  C   UNL     1       0.459   1.610   8.754  0.00  0.00    +0.000 A 
ATOM     24  C   UNL     1       1.505   1.324   9.611  0.00  0.00    +0.000 A 
ATOM     25  C   UNL     1       2.386   0.307   9.301  0.00  0.00    +0.004 A 
BRANCH  16  26
ATOM     26  O   UNL     1      -0.122  -1.837   6.202  0.00  0.00    -0.382 OA
ATOM     27  H   UNL     1      -0.958  -1.422   6.454  0.00  0.00    +0.211 HD
ENDBRANCH  16  26
ENDBRANCH  15  16
ENDBRANCH   3  15
TORSDOF 5
