REMARK  Name = ZINC02663198
REMARK  6 active torsions:
REMARK  status: ('A' for Active; 'I' for Inactive)
REMARK    1  A    between atoms: C_6  and  C_7
REMARK    2  A    between atoms: C_13  and  C_15
REMARK    3  A    between atoms: C_15  and  S_16
REMARK    4  A    between atoms: S_16  and  C_17
REMARK    5  A    between atoms: C_20  and  C_23
REMARK    6  A    between atoms: N_21  and  N_22
REMARK                            x       y       z     vdW  Elec       q    Type
REMARK                         _______ _______ _______ _____ _____    ______ ____
ROOT
ATOM      1  C   UNL     1       3.970   2.716  -0.062  0.00  0.00    +0.173 C 
ENDROOT
BRANCH   1   8
ATOM      2  C   UNL     1       9.027   6.054  -0.163  0.00  0.00    +0.080 A 
ATOM      3  C   UNL     1       9.811   4.949  -0.344  0.00  0.00    +0.076 A 
ATOM      4  S   UNL     1       8.572   3.661  -0.359  0.00  0.00    -0.060 S 
ATOM      5  C   UNL     1       7.148   4.718  -0.136  0.00  0.00    +0.165 A 
ATOM      6  N   UNL     1       7.714   5.909  -0.064  0.00  0.00    -0.225 NA
ATOM      7  N   UNL     1       5.804   4.377  -0.053  0.00  0.00    -0.264 N 
ATOM      8  C   UNL     1       5.429   3.086  -0.152  0.00  0.00    +0.229 C 
ATOM      9  O   UNL     1       6.265   2.223  -0.312  0.00  0.00    -0.275 OA
ATOM     10  H   UNL     1       5.135   5.068   0.075  0.00  0.00    +0.157 HD
BRANCH   2  16
ATOM     11  C   UNL     1      11.022   7.548  -0.178  0.00  0.00    +0.013 A 
ATOM     12  C   UNL     1      11.587   8.805  -0.103  0.00  0.00    +0.039 A 
ATOM     13  C   UNL     1      10.784   9.919   0.079  0.00  0.00    +0.123 A 
ATOM     14  C   UNL     1       9.409   9.777   0.183  0.00  0.00    +0.039 A 
ATOM     15  C   UNL     1       8.835   8.525   0.105  0.00  0.00    +0.013 A 
ATOM     16  C   UNL     1       9.639   7.402  -0.079  0.00  0.00    +0.001 A 
ATOM     17  F   UNL     1      11.342  11.146   0.157  0.00  0.00    -0.205 F 
ENDBRANCH   2  16
ENDBRANCH   1   8
BRANCH   1  18
ATOM     18  S   UNL     1       3.792   0.923  -0.229  0.00  0.00    -0.075 S 
BRANCH  18  19
ATOM     19  C   UNL     1       2.041   0.776  -0.092  0.00  0.00    +0.209 A 
ATOM     20  N   UNL     1       1.187   1.760   0.082  0.00  0.00    -0.121 NA
ATOM     21  N   UNL     1      -0.011   1.299   0.139  0.00  0.00    -0.127 NA
ATOM     22  C   UNL     1       0.004  -0.006   0.005  0.00  0.00    +0.183 A 
ATOM     23  N   UNL     1       1.319  -0.382  -0.146  0.00  0.00    -0.224 N 
BRANCH  22  24
ATOM     24  C   UNL     1      -1.171  -0.904   0.016  0.00  0.00    +0.040 A 
ATOM     25  C   UNL     1      -1.156  -2.068   0.787  0.00  0.00    +0.033 A 
ATOM     26  C   UNL     1      -2.256  -2.902   0.793  0.00  0.00    +0.042 A 
ATOM     27  C   UNL     1      -3.372  -2.586   0.036  0.00  0.00    +0.021 A 
ATOM     28  C   UNL     1      -3.393  -1.435  -0.729  0.00  0.00    +0.022 A 
ATOM     29  C   UNL     1      -2.302  -0.589  -0.740  0.00  0.00    +0.052 A 
ATOM     30 CL   UNL     1      -2.333   0.860  -1.696  0.00  0.00    -0.083 Cl
ATOM     31 CL   UNL     1      -2.240  -4.350   1.750  0.00  0.00    -0.084 Cl
ENDBRANCH  22  24
BRANCH  23  32
ATOM     32  N   UNL     1       1.801  -1.649  -0.317  0.00  0.00    -0.295 N 
ATOM     33  H   UNL     1       1.928  -1.858  -1.296  0.00  0.00    +0.163 HD
ATOM     34  H   UNL     1       2.660  -1.780   0.196  0.00  0.00    +0.163 HD
ENDBRANCH  23  32
ENDBRANCH  18  19
ENDBRANCH   1  18
TORSDOF 6
