REMARK  Name = ZINC64572745
REMARK  8 active torsions:
REMARK  status: ('A' for Active; 'I' for Inactive)
REMARK    1  A    between atoms: C_1  and  C_2
REMARK    2  A    between atoms: C_5  and  O_9
REMARK    3  A    between atoms: C_6  and  C_8
REMARK    4  A    between atoms: O_9  and  S_10
REMARK    5  A    between atoms: S_10  and  C_13
REMARK    6  A    between atoms: C_17  and  S_19
REMARK    7  A    between atoms: S_19  and  N_22
REMARK    8  A    between atoms: N_22  and  C_23
REMARK                            x       y       z     vdW  Elec       q    Type
REMARK                         _______ _______ _______ _____ _____    ______ ____
ROOT
ATOM      1  S   UNL     1       1.333  -4.491   0.041  0.00  0.00    +0.151 S 
ATOM      2  O   UNL     1       1.220  -5.889  -0.187  0.00  0.00    -0.131 OA
ATOM      3  O   UNL     1       2.066  -3.634  -0.825  0.00  0.00    -0.131 OA
ENDROOT
BRANCH   1   4
ATOM      4  C   UNL     1       2.030  -4.298   1.648  0.00  0.00    +0.130 A 
ATOM      5  C   UNL     1       2.815  -3.196   1.933  0.00  0.00    +0.030 A 
ATOM      6  C   UNL     1       3.362  -3.045   3.194  0.00  0.00    +0.004 A 
ATOM      7  C   UNL     1       3.122  -3.994   4.170  0.00  0.00    +0.028 A 
ATOM      8  C   UNL     1       2.336  -5.095   3.885  0.00  0.00    +0.107 A 
ATOM      9  C   UNL     1       1.786  -5.244   2.625  0.00  0.00    +0.059 A 
BRANCH   8  10
ATOM     10  S   UNL     1       2.030  -6.305   5.128  0.00  0.00    +0.058 S 
ATOM     11  O   UNL     1       1.714  -7.513   4.450  0.00  0.00    -0.153 OA
ATOM     12  O   UNL     1       3.101  -6.211   6.058  0.00  0.00    -0.153 OA
BRANCH  10  13
ATOM     13  N   UNL     1       0.661  -5.843   5.936  0.00  0.00    -0.193 NA
ATOM     14  C   UNL     1      -0.626  -5.808   5.236  0.00  0.00    +0.127 C 
ATOM     15  H   UNL     1       0.710  -5.595   6.873  0.00  0.00    +0.148 HD
ENDBRANCH  10  13
ENDBRANCH   8  10
ENDBRANCH   1   4
BRANCH   1  16
ATOM     16  O   UNL     1      -0.086  -3.943   0.096  0.00  0.00    -0.342 OA
BRANCH  16  21
ATOM     17  C   UNL     1      -0.364   1.681   0.232  0.00  0.00    +0.044 C 
ATOM     18  C   UNL     1      -0.290   0.176   0.196  0.00  0.00    -0.050 A 
ATOM     19  C   UNL     1      -0.103  -0.534   1.368  0.00  0.00    +0.007 A 
ATOM     20  C   UNL     1      -0.034  -1.913   1.337  0.00  0.00    +0.049 A 
ATOM     21  C   UNL     1      -0.153  -2.586   0.129  0.00  0.00    +0.160 A 
ATOM     22  C   UNL     1      -0.341  -1.871  -1.044  0.00  0.00    -0.006 A 
ATOM     23  C   UNL     1      -0.414  -0.492  -1.008  0.00  0.00    +0.010 A 
ATOM     24  C   UNL     1      -0.471  -2.599  -2.358  0.00  0.00    +0.047 C 
ENDBRANCH  16  21
ENDBRANCH   1  16
TORSDOF 5
