REMARK  Name = ZINC38643946
REMARK  5 active torsions:
REMARK  status: ('A' for Active; 'I' for Inactive)
REMARK    1  A    between atoms: C_1  and  C_2
REMARK    2  A    between atoms: C_9  and  C_13
REMARK    3  A    between atoms: N_15  and  C_16
REMARK    4  A    between atoms: C_24  and  C_25
REMARK    5  A    between atoms: C_25  and  C_27
REMARK                            x       y       z     vdW  Elec       q    Type
REMARK                         _______ _______ _______ _____ _____    ______ ____
ROOT
ATOM      1  C   UNL     1       0.950   2.268   5.726  0.00  0.00    +0.091 A 
ATOM      2  C   UNL     1       0.667   3.692   5.942  0.00  0.00    +0.042 A 
ATOM      3  C   UNL     1      -0.010   4.668   5.209  0.00  0.00    +0.013 A 
ATOM      4  C   UNL     1      -0.101   5.941   5.697  0.00  0.00    +0.001 A 
ATOM      5  C   UNL     1       0.475   6.269   6.917  0.00  0.00    +0.004 A 
ATOM      6  C   UNL     1       1.148   5.319   7.655  0.00  0.00    +0.047 A 
ATOM      7  C   UNL     1       1.253   4.017   7.178  0.00  0.00    +0.138 A 
ATOM      8  O   UNL     1       1.836   2.905   7.669  0.00  0.00    -0.450 OA
ATOM      9  C   UNL     1       1.667   1.857   6.833  0.00  0.00    +0.197 A 
ENDROOT
BRANCH   1  12
ATOM     10  C   UNL     1       0.525   2.041   3.407  0.00  0.00    +0.284 C 
ATOM     11  O   UNL     1       0.719   3.232   3.263  0.00  0.00    -0.266 OA
ATOM     12  N   UNL     1       0.572   1.495   4.638  0.00  0.00    -0.275 N 
ATOM     13  H   UNL     1       0.341   0.562   4.764  0.00  0.00    +0.155 HD
BRANCH  10  22
ATOM     14  C   UNL     1      -0.942  -2.668   3.199  0.00  0.00    +0.047 C 
ATOM     15  C   UNL     1      -1.023  -2.157   1.784  0.00  0.00    -0.007 A 
ATOM     16  C   UNL     1      -1.588  -2.939   0.799  0.00  0.00    +0.007 A 
ATOM     17  C   UNL     1      -1.671  -2.484  -0.509  0.00  0.00    +0.001 A 
ATOM     18  C   UNL     1      -1.190  -1.237  -0.842  0.00  0.00    +0.015 A 
ATOM     19  C   UNL     1      -0.620  -0.436   0.145  0.00  0.00    +0.064 A 
ATOM     20  C   UNL     1      -0.533  -0.893   1.472  0.00  0.00    +0.142 A 
ATOM     21  O   UNL     1       0.028  -0.120   2.421  0.00  0.00    -0.450 OA
ATOM     22  C   UNL     1       0.237   1.190   2.230  0.00  0.00    +0.194 A 
ATOM     23  C   UNL     1       0.196   1.768   1.004  0.00  0.00    +0.103 A 
ATOM     24  C   UNL     1      -0.097   0.912  -0.161  0.00  0.00    +0.193 A 
ATOM     25  O   UNL     1       0.067   1.296  -1.305  0.00  0.00    -0.287 OA
ENDBRANCH  10  22
ENDBRANCH   1  12
BRANCH   9  26
ATOM     26  C   UNL     1       2.152   0.545   7.055  0.00  0.00    +0.230 C 
ATOM     27  O   UNL     1       2.033  -0.303   6.189  0.00  0.00    -0.283 OA
BRANCH  26  28
ATOM     28  C   UNL     1       2.803   0.204   8.339  0.00  0.00    +0.025 A 
ATOM     29  C   UNL     1       3.052   1.200   9.285  0.00  0.00    +0.012 A 
ATOM     30  C   UNL     1       3.659   0.875  10.480  0.00  0.00    +0.001 A 
ATOM     31  C   UNL     1       4.021  -0.434  10.743  0.00  0.00    +0.000 A 
ATOM     32  C   UNL     1       3.777  -1.426   9.809  0.00  0.00    +0.001 A 
ATOM     33  C   UNL     1       3.165  -1.116   8.613  0.00  0.00    +0.012 A 
ENDBRANCH  26  28
ENDBRANCH   9  26
TORSDOF 4
