REMARK  Name = ZINC20069660
REMARK  10 active torsions:
REMARK  status: ('A' for Active; 'I' for Inactive)
REMARK    1  A    between atoms: C_1  and  C_2
REMARK    2  A    between atoms: C_5  and  S_8
REMARK    3  A    between atoms: S_8  and  N_11
REMARK    4  A    between atoms: N_11  and  C_12
REMARK    5  A    between atoms: C_12  and  C_33
REMARK    6  A    between atoms: C_16  and  C_20
REMARK    7  A    between atoms: C_16  and  C_21
REMARK    8  A    between atoms: N_22  and  C_25
REMARK    9  A    between atoms: C_28  and  O_31
REMARK   10  A    between atoms: O_31  and  C_32
REMARK                            x       y       z     vdW  Elec       q    Type
REMARK                         _______ _______ _______ _____ _____    ______ ____
ROOT
ATOM      1  C   UNL     1       4.745   0.139  -2.364  0.00  0.00    +0.240 C 
ATOM      2  C   UNL     1       5.196   0.460  -3.761  0.00  0.00    +0.052 C 
ATOM      3  C   UNL     1       6.509   0.821  -3.674  0.00  0.00    +0.028 C 
ATOM      4  C   UNL     1       7.301   1.225  -4.900  0.00  0.00    +0.058 C 
ATOM      5  C   UNL     1       6.322   1.787  -5.937  0.00  0.00    -0.023 C 
ATOM      6  C   UNL     1       5.225   0.765  -6.239  0.00  0.00    +0.086 C 
ATOM      7  C   UNL     1       4.484   0.419  -4.966  0.00  0.00    +0.164 C 
ATOM      8  O   UNL     1       3.308   0.115  -4.987  0.00  0.00    -0.292 OA
ATOM      9  C   UNL     1       5.685   3.066  -5.391  0.00  0.00    +0.011 C 
ATOM     10  C   UNL     1       7.079   2.109  -7.227  0.00  0.00    +0.011 C 
ATOM     11  N   UNL     1       6.952   0.767  -2.389  0.00  0.00    -0.241 N 
ATOM     12  C   UNL     1       5.991   0.375  -1.529  0.00  0.00    +0.259 C 
ATOM     13  O   UNL     1       6.100   0.239  -0.329  0.00  0.00    -0.272 OA
ENDROOT
BRANCH  11  14
ATOM     14  C   UNL     1       8.262   1.082  -2.003  0.00  0.00    +0.041 A 
ATOM     15  C   UNL     1       9.314   0.255  -2.375  0.00  0.00    +0.027 A 
ATOM     16  C   UNL     1      10.605   0.568  -2.000  0.00  0.00    +0.047 A 
ATOM     17  C   UNL     1      10.850   1.704  -1.241  0.00  0.00    +0.120 A 
ATOM     18  C   UNL     1       9.799   2.528  -0.865  0.00  0.00    +0.047 A 
ATOM     19  C   UNL     1       8.508   2.218  -1.244  0.00  0.00    +0.027 A 
BRANCH  17  20
ATOM     20  O   UNL     1      12.121   2.009  -0.867  0.00  0.00    -0.495 OA
ATOM     21  C   UNL     1      13.154   1.117  -1.290  0.00  0.00    +0.277 C 
ENDBRANCH  17  20
ENDBRANCH  11  14
BRANCH   1  22
ATOM     22  C   UNL     1       3.618   1.079  -1.930  0.00  0.00    +0.422 C 
ATOM     23  F   UNL     1       3.440   0.986  -0.546  0.00  0.00    -0.168 F 
ATOM     24  F   UNL     1       3.952   2.395  -2.270  0.00  0.00    -0.168 F 
ATOM     25  F   UNL     1       2.433   0.717  -2.578  0.00  0.00    -0.168 F 
ENDBRANCH   1  22
BRANCH   1  26
ATOM     26  N   UNL     1       4.316  -1.258  -2.267  0.00  0.00    -0.162 NA
ATOM     27  H   UNL     1       3.603  -1.667  -2.999  0.00  0.00    +0.150 HD
BRANCH  26  28
ATOM     28  S   UNL     1       4.700  -2.152  -0.927  0.00  0.00    +0.060 S 
ATOM     29  O   UNL     1       4.143  -3.444  -1.127  0.00  0.00    -0.153 OA
ATOM     30  O   UNL     1       4.379  -1.351   0.202  0.00  0.00    -0.153 OA
BRANCH  28  35
ATOM     31  C   UNL     1      10.694  -2.840  -0.907  0.00  0.00    +0.044 C 
ATOM     32  C   UNL     1       9.197  -2.673  -0.909  0.00  0.00    -0.050 A 
ATOM     33  C   UNL     1       8.444  -3.194  -1.945  0.00  0.00    +0.005 A 
ATOM     34  C   UNL     1       7.072  -3.034  -1.951  0.00  0.00    +0.029 A 
ATOM     35  C   UNL     1       6.450  -2.354  -0.920  0.00  0.00    +0.105 A 
ATOM     36  C   UNL     1       7.202  -1.834   0.116  0.00  0.00    +0.029 A 
ATOM     37  C   UNL     1       8.575  -1.993   0.122  0.00  0.00    +0.005 A 
ENDBRANCH  28  35
ENDBRANCH  26  28
ENDBRANCH   1  26
TORSDOF 6
