REMARK  Name = ZINC21523424
REMARK  7 active torsions:
REMARK  status: ('A' for Active; 'I' for Inactive)
REMARK    1  A    between atoms: C_1  and  C_2
REMARK    2  A    between atoms: C_5  and  C_8
REMARK    3  A    between atoms: N_16  and  C_28
REMARK    4  A    between atoms: C_17  and  C_19
REMARK    5  A    between atoms: C_22  and  O_27
REMARK    6  A    between atoms: C_23  and  O_25
REMARK    7  A    between atoms: O_25  and  C_26
REMARK                            x       y       z     vdW  Elec       q    Type
REMARK                         _______ _______ _______ _____ _____    ______ ____
ROOT
ATOM      1  C   UNL     1       0.059  -4.256  -0.021  0.00  0.00    +0.099 A 
ATOM      2  C   UNL     1       0.717  -5.081   0.898  0.00  0.00    +0.035 A 
ATOM      3  C   UNL     1       0.457  -6.377   0.495  0.00  0.00    +0.126 A 
ATOM      4  N   UNL     1      -0.326  -6.277  -0.621  0.00  0.00    -0.272 N 
ATOM      5  H   UNL     1      -0.669  -7.029  -1.129  0.00  0.00    +0.189 HD
ATOM      6  N   UNL     1      -0.545  -5.040  -0.893  0.00  0.00    -0.173 NA
ATOM      7  C   UNL     1       1.122  -7.297   1.423  0.00  0.00    +0.265 C 
ATOM      8  O   UNL     1       1.088  -8.510   1.343  0.00  0.00    -0.268 OA
ATOM      9  N   UNL     1       1.777  -6.609   2.376  0.00  0.00    -0.288 N 
ATOM     10  C   UNL     1       1.579  -5.175   2.127  0.00  0.00    +0.141 C 
ATOM     11  C   UNL     1       2.554  -7.189   3.474  0.00  0.00    +0.133 C 
ENDROOT
BRANCH   1  16
ATOM     12  C   UNL     1      -0.018   1.503   0.010  0.00  0.00    +0.044 C 
ATOM     13  C   UNL     1       0.002  -0.004   0.002  0.00  0.00    -0.050 A 
ATOM     14  C   UNL     1       0.006  -0.687  -1.201  0.00  0.00    +0.004 A 
ATOM     15  C   UNL     1       0.024  -2.067  -1.214  0.00  0.00    +0.010 A 
ATOM     16  C   UNL     1       0.040  -2.772  -0.013  0.00  0.00    +0.002 A 
ATOM     17  C   UNL     1       0.036  -2.080   1.196  0.00  0.00    +0.010 A 
ATOM     18  C   UNL     1       0.023  -0.700   1.198  0.00  0.00    +0.004 A 
ENDBRANCH   1  16
BRANCH  10  19
ATOM     19  C   UNL     1       0.880  -4.537   3.300  0.00  0.00    -0.019 A 
ATOM     20  C   UNL     1      -0.094  -5.237   3.987  0.00  0.00    +0.009 A 
ATOM     21  C   UNL     1      -0.737  -4.656   5.064  0.00  0.00    +0.049 A 
ATOM     22  C   UNL     1      -0.406  -3.369   5.457  0.00  0.00    +0.158 A 
ATOM     23  C   UNL     1       0.575  -2.664   4.765  0.00  0.00    +0.162 A 
ATOM     24  C   UNL     1       1.219  -3.254   3.690  0.00  0.00    +0.055 A 
BRANCH  23  25
ATOM     25  O   UNL     1       0.903  -1.401   5.147  0.00  0.00    -0.491 OA
ATOM     26  C   UNL     1       1.918  -0.738   4.391  0.00  0.00    +0.277 C 
ENDBRANCH  23  25
BRANCH  22  27
ATOM     27  O   UNL     1      -1.038  -2.795   6.515  0.00  0.00    -0.503 OA
ATOM     28  H   UNL     1      -0.605  -2.954   7.365  0.00  0.00    +0.292 HD
ENDBRANCH  22  27
ENDBRANCH  10  19
TORSDOF 4
