REMARK  Name = ZINC12639621
REMARK  10 active torsions:
REMARK  status: ('A' for Active; 'I' for Inactive)
REMARK    1  A    between atoms: C_1  and  C_2
REMARK    2  A    between atoms: C_2  and  O_3
REMARK    3  A    between atoms: O_3  and  C_4
REMARK    4  A    between atoms: C_4  and  C_6
REMARK    5  A    between atoms: C_6  and  C_7
REMARK    6  A    between atoms: C_13  and  C_15
REMARK    7  A    between atoms: C_15  and  S_16
REMARK    8  A    between atoms: S_16  and  C_17
REMARK    9  A    between atoms: C_24  and  C_26
REMARK   10  A    between atoms: C_30  and  C_34
REMARK                            x       y       z     vdW  Elec       q    Type
REMARK                         _______ _______ _______ _____ _____    ______ ____
ROOT
ATOM      1  S   UNL     1       5.345  -0.187   0.848  0.00  0.00    -0.096 S 
ENDROOT
BRANCH   1   2
ATOM      2  C   UNL     1       5.081   1.500   0.413  0.00  0.00    +0.109 A 
ATOM      3  C   UNL     1       3.776   2.028   0.183  0.00  0.00    +0.043 A 
ATOM      4  C   UNL     1       2.514   1.312   0.262  0.00  0.00    -0.025 A 
ATOM      5  C   UNL     1       1.395   2.025  -0.000  0.00  0.00    -0.004 A 
ATOM      6  S   UNL     1       1.962   3.669  -0.359  0.00  0.00    -0.073 S 
ATOM      7  C   UNL     1       3.693   3.401  -0.160  0.00  0.00    +0.113 A 
ATOM      8  N   UNL     1       4.747   4.185  -0.271  0.00  0.00    -0.225 NA
ATOM      9  C   UNL     1       5.932   3.631  -0.045  0.00  0.00    +0.135 A 
ATOM     10  N   UNL     1       6.087   2.362   0.278  0.00  0.00    -0.225 NA
ATOM     11  C   UNL     1      -0.019   1.531   0.011  0.00  0.00    +0.046 C 
ATOM     12  C   UNL     1       0.002  -0.004   0.002  0.00  0.00    -0.009 C 
ATOM     13  C   UNL     1       0.996  -0.486   1.063  0.00  0.00    +0.008 C 
ATOM     14  C   UNL     1       2.424  -0.169   0.619  0.00  0.00    +0.037 C 
ATOM     15  C   UNL     1      -1.395  -0.538   0.322  0.00  0.00    +0.008 C 
BRANCH   9  16
ATOM     16  C   UNL     1       7.161   4.495  -0.163  0.00  0.00    +0.057 C 
ATOM     17  C   UNL     1       8.523   3.800  -0.099  0.00  0.00    +0.012 C 
ATOM     18  C   UNL     1       8.040   4.647   1.080  0.00  0.00    +0.012 C 
ENDBRANCH   9  16
ENDBRANCH   1   2
BRANCH   1  19
ATOM     19  C   UNL     1       7.149  -0.196   0.988  0.00  0.00    +0.172 C 
BRANCH  19  26
ATOM     20  C   UNL     1      10.829  -4.789   2.399  0.00  0.00    +0.061 A 
ATOM     21  C   UNL     1       9.777  -5.634   2.525  0.00  0.00    +0.072 A 
ATOM     22  S   UNL     1       8.421  -4.532   2.151  0.00  0.00    -0.060 S 
ATOM     23  C   UNL     1       9.363  -3.101   1.871  0.00  0.00    +0.165 A 
ATOM     24  N   UNL     1      10.592  -3.535   2.066  0.00  0.00    -0.229 NA
ATOM     25  N   UNL     1       8.932  -1.825   1.525  0.00  0.00    -0.264 N 
ATOM     26  C   UNL     1       7.617  -1.579   1.364  0.00  0.00    +0.229 C 
ATOM     27  O   UNL     1       6.809  -2.470   1.521  0.00  0.00    -0.275 OA
ATOM     28  H   UNL     1       9.578  -1.113   1.399  0.00  0.00    +0.157 HD
BRANCH  20  29
ATOM     29  C   UNL     1      12.238  -5.273   2.626  0.00  0.00    +0.176 C 
BRANCH  29  30
ATOM     30  C   UNL     1      13.077  -4.965   1.413  0.00  0.00    +0.313 C 
ATOM     31  O   UNL     1      12.582  -4.409   0.461  0.00  0.00    -0.250 OA
BRANCH  30  32
ATOM     32  O   UNL     1      14.375  -5.308   1.389  0.00  0.00    -0.465 OA
BRANCH  32  34
ATOM     33  C   UNL     1      16.571  -5.444   0.346  0.00  0.00    +0.048 C 
ATOM     34  C   UNL     1      15.122  -4.980   0.188  0.00  0.00    +0.229 C 
ENDBRANCH  32  34
ENDBRANCH  30  32
ENDBRANCH  29  30
ENDBRANCH  20  29
ENDBRANCH  19  26
ENDBRANCH   1  19
TORSDOF 8
