REMARK  Name = ZINC65396492
REMARK  4 active torsions:
REMARK  status: ('A' for Active; 'I' for Inactive)
REMARK    1  A    between atoms: C_6  and  C_10
REMARK    2  A    between atoms: C_10  and  N_11
REMARK    3  A    between atoms: N_16  and  C_23
REMARK    4  A    between atoms: C_18  and  C_20
REMARK                            x       y       z     vdW  Elec       q    Type
REMARK                         _______ _______ _______ _____ _____    ______ ____
ROOT
ATOM      1  N   UNL     1       3.029  -2.087  -2.487  0.00  0.00    -0.297 NA
ATOM      2  C   UNL     1       3.777  -0.827  -2.727  0.00  0.00    +0.087 C 
ATOM      3  C   UNL     1       3.526  -0.499  -4.214  0.00  0.00    +0.003 C 
ATOM      4  C   UNL     1       2.240   0.345  -4.327  0.00  0.00    -0.073 C 
ATOM      5  N   UNL     1       1.499  -0.248  -5.470  0.00  0.00    +0.383 N 
ATOM      6  C   UNL     1       1.699  -1.711  -5.314  0.00  0.00    -0.059 C 
ATOM      7  C   UNL     1       3.183  -1.863  -4.870  0.00  0.00    +0.072 C 
ATOM      8  C   UNL     1       3.258  -2.887  -3.718  0.00  0.00    +0.101 C 
ATOM      9  H   UNL     1       1.888   0.069  -6.346  0.00  0.00    -0.081 HD
ENDROOT
BRANCH   5  10
ATOM     10  C   UNL     1       0.072   0.088  -5.387  0.00  0.00    -0.069 C 
ATOM     11  C   UNL     1      -0.681  -0.503  -6.597  0.00  0.00    -0.015 C 
ATOM     12  C   UNL     1      -1.740   0.572  -6.947  0.00  0.00    -0.002 C 
ATOM     13  C   UNL     1      -0.976   1.897  -6.704  0.00  0.00    -0.002 C 
ATOM     14  C   UNL     1      -0.116   1.614  -5.455  0.00  0.00    -0.015 C 
ENDBRANCH   5  10
BRANCH   7  15
ATOM     15  C   UNL     1       4.104  -2.202  -6.014  0.00  0.00    +0.362 C 
ATOM     16  O   UNL     1       4.353  -3.367  -6.272  0.00  0.00    -0.246 OA
ATOM     17  O   UNL     1       4.600  -1.310  -6.681  0.00  0.00    -0.246 OA
ENDBRANCH   7  15
BRANCH   1  18
ATOM     18  C   UNL     1       3.542  -2.787  -1.302  0.00  0.00    +0.131 C 
BRANCH  18  24
ATOM     19  C   UNL     1      -0.016   1.344   0.009  0.00  0.00    +0.002 A 
ATOM     20  C   UNL     1       1.158   2.118   0.002  0.00  0.00    +0.002 A 
ATOM     21  C   UNL     1       2.389   1.570  -0.013  0.00  0.00    +0.027 A 
ATOM     22  C   UNL     1       2.533   0.108  -0.022  0.00  0.00    +0.060 A 
ATOM     23  N   UNL     1       3.569  -0.680  -0.036  0.00  0.00    -0.362 N 
ATOM     24  C   UNL     1       3.071  -2.062  -0.039  0.00  0.00    +0.188 C 
ATOM     25  N   UNL     1       1.606  -1.974  -0.024  0.00  0.00    -0.362 N 
ATOM     26  C   UNL     1       1.290  -0.712  -0.014  0.00  0.00    +0.060 A 
ATOM     27  C   UNL     1       0.002  -0.004   0.002  0.00  0.00    +0.027 A 
ATOM     28  H   UNL     1       4.499  -0.405  -0.045  0.00  0.00    +0.162 HD
ATOM     29  H   UNL     1       0.987  -2.721  -0.022  0.00  0.00    +0.162 HD
ENDBRANCH  18  24
ENDBRANCH   1  18
TORSDOF 4
