REMARK  Name = ZINC12420144
REMARK  12 active torsions:
REMARK  status: ('A' for Active; 'I' for Inactive)
REMARK    1  A    between atoms: C_1  and  C_2
REMARK    2  A    between atoms: C_2  and  C_3
REMARK    3  A    between atoms: C_3  and  C_4
REMARK    4  A    between atoms: C_4  and  N_62
REMARK    5  A    between atoms: C_5  and  C_7
REMARK    6  A    between atoms: C_5  and  C_13
REMARK    7  A    between atoms: C_5  and  N_62
REMARK    8  A    between atoms: C_14  and  N_24
REMARK    9  A    between atoms: C_16  and  C_23
REMARK   10  A    between atoms: C_18  and  C_22
REMARK   11  A    between atoms: C_25  and  C_27
REMARK   12  A    between atoms: C_30  and  N_33
REMARK                            x       y       z     vdW  Elec       q    Type
REMARK                         _______ _______ _______ _____ _____    ______ ____
ROOT
ATOM      1  C   UNL     1       2.260  -0.120   0.424  0.00  0.00    +0.004 A 
ATOM      2  C   UNL     1       2.625   0.921  -0.344  0.00  0.00    +0.052 A 
ATOM      3  C   UNL     1       1.621   1.576  -1.174  0.00  0.00    +0.032 A 
ATOM      4  C   UNL     1       1.772   2.676  -2.051  0.00  0.00    -0.037 A 
ATOM      5  C   UNL     1       0.674   3.133  -2.741  0.00  0.00    +0.027 A 
ATOM      6  C   UNL     1      -0.561   2.524  -2.578  0.00  0.00    +0.040 A 
ATOM      7  N   UNL     1      -0.698   1.502  -1.757  0.00  0.00    -0.245 NA
ATOM      8  C   UNL     1       0.323   1.027  -1.079  0.00  0.00    +0.111 A 
ATOM      9  S   UNL     1       0.519  -0.299   0.085  0.00  0.00    -0.073 S 
ATOM     10  C   UNL     1      -1.755   3.037  -3.342  0.00  0.00    +0.065 C 
ATOM     11  C   UNL     1       3.115   3.337  -2.225  0.00  0.00    +0.044 C 
ENDROOT
BRANCH   2  12
ATOM     12  N   UNL     1       3.956   1.372  -0.347  0.00  0.00    -0.280 N 
ATOM     13  C   UNL     1       4.901   0.677  -1.012  0.00  0.00    +0.248 C 
ATOM     14  O   UNL     1       4.614  -0.372  -1.556  0.00  0.00    -0.270 OA
ATOM     15  H   UNL     1       4.195   2.182   0.129  0.00  0.00    +0.155 HD
BRANCH  13  16
ATOM     16  C   UNL     1       6.285   1.191  -1.081  0.00  0.00    +0.037 A 
ATOM     17  C   UNL     1       6.616   2.398  -0.462  0.00  0.00    +0.015 A 
ATOM     18  C   UNL     1       7.911   2.869  -0.525  0.00  0.00    +0.033 A 
ATOM     19  C   UNL     1       8.878   2.154  -1.208  0.00  0.00    +0.126 A 
ATOM     20  C   UNL     1       8.556   0.960  -1.828  0.00  0.00    +0.033 A 
ATOM     21  C   UNL     1       7.266   0.475  -1.768  0.00  0.00    +0.015 A 
BRANCH  19  22
ATOM     22  N   UNL     1      10.265   2.669  -1.277  0.00  0.00    +0.056 N 
ATOM     23  O   UNL     1      11.118   2.041  -1.877  0.00  0.00    -0.126 OA
ATOM     24  O   UNL     1      10.552   3.720  -0.732  0.00  0.00    -0.126 OA
ENDBRANCH  19  22
ENDBRANCH  13  16
ENDBRANCH   2  12
BRANCH   1  25
ATOM     25  C   UNL     1       3.118  -0.941   1.352  0.00  0.00    -0.001 C 
BRANCH  25  26
ATOM     26  C   UNL     1       3.230  -2.347   0.820  0.00  0.00    -0.057 A 
ATOM     27  C   UNL     1       2.222  -3.260   1.063  0.00  0.00    +0.002 A 
ATOM     28  C   UNL     1       2.322  -4.548   0.572  0.00  0.00    +0.000 A 
ATOM     29  C   UNL     1       3.436  -4.926  -0.155  0.00  0.00    +0.000 A 
ATOM     30  C   UNL     1       4.447  -4.014  -0.394  0.00  0.00    +0.000 A 
ATOM     31  C   UNL     1       4.344  -2.724   0.093  0.00  0.00    +0.002 A 
ENDBRANCH  25  26
BRANCH  25  32
ATOM     32  N   UNL     1       2.497  -0.969   2.689  0.00  0.00    +0.387 N 
ATOM     33  H   UNL     1       2.042  -0.066   2.870  0.00  0.00    -0.085 HD
ATOM     34  H   UNL     1       1.796  -1.718   2.722  0.00  0.00    -0.085 HD
BRANCH  32  35
ATOM     35  C   UNL     1       3.519  -1.214   3.724  0.00  0.00    -0.081 C 
BRANCH  35  36
ATOM     36  C   UNL     1       2.847  -1.237   5.098  0.00  0.00    -0.019 C 
BRANCH  36  38
ATOM     37  C   UNL     1       3.228  -1.515   7.551  0.00  0.00    +0.004 C 
ATOM     38  C   UNL     1       3.901  -1.492   6.177  0.00  0.00    -0.005 C 
ENDBRANCH  36  38
ENDBRANCH  35  36
ENDBRANCH  32  35
ENDBRANCH  25  32
ENDBRANCH   1  25
TORSDOF 9
