REMARK  Name = ZINC01453841
REMARK  8 active torsions:
REMARK  status: ('A' for Active; 'I' for Inactive)
REMARK    1  A    between atoms: C_1  and  C_2
REMARK    2  A    between atoms: C_3  and  C_27
REMARK    3  A    between atoms: C_4  and  C_14
REMARK    4  A    between atoms: C_18  and  O_20
REMARK    5  A    between atoms: O_20  and  C_21
REMARK    6  A    between atoms: C_27  and  O_29
REMARK    7  A    between atoms: O_29  and  C_30
REMARK    8  A    between atoms: C_30  and  C_31
REMARK                            x       y       z     vdW  Elec       q    Type
REMARK                         _______ _______ _______ _____ _____    ______ ____
ROOT
ATOM      1  C   UNL     1       0.571   1.858   3.572  0.00  0.00    +0.061 C 
ATOM      2  C   UNL     1      -0.238   2.521   2.487  0.00  0.00    +0.016 C 
ATOM      3  C   UNL     1      -1.557   2.276   2.393  0.00  0.00    +0.065 C 
ATOM      4  C   UNL     1      -2.395   2.925   1.331  0.00  0.00    +0.092 C 
ATOM      5  C   UNL     1      -1.534   3.469   0.219  0.00  0.00    +0.024 C 
ATOM      6  C   UNL     1      -0.212   3.664   0.403  0.00  0.00    +0.015 C 
ATOM      7  N   UNL     1       0.373   3.368   1.605  0.00  0.00    -0.321 N 
ATOM      8  C   UNL     1       0.656   4.208  -0.704  0.00  0.00    +0.051 C 
ATOM      9  C   UNL     1      -0.173   5.131  -1.601  0.00  0.00    +0.014 C 
ATOM     10  C   UNL     1      -1.356   4.332  -2.158  0.00  0.00    +0.080 C 
ATOM     11  C   UNL     1      -2.147   3.766  -1.011  0.00  0.00    +0.162 C 
ATOM     12  O   UNL     1      -3.337   3.562  -1.150  0.00  0.00    -0.292 OA
ATOM     13  H   UNL     1       1.344   3.818   1.859  0.00  0.00    +0.152 HD
ENDROOT
BRANCH   4  14
ATOM     14  C   UNL     1      -3.183   4.054   1.944  0.00  0.00    -0.032 A 
ATOM     15  C   UNL     1      -2.524   5.122   2.524  0.00  0.00    +0.005 A 
ATOM     16  C   UNL     1      -3.244   6.162   3.082  0.00  0.00    +0.004 A 
ATOM     17  C   UNL     1      -4.625   6.131   3.072  0.00  0.00    +0.046 A 
ATOM     18  C   UNL     1      -5.289   5.058   2.496  0.00  0.00    +0.129 A 
ATOM     19  C   UNL     1      -4.564   4.018   1.931  0.00  0.00    +0.050 A 
BRANCH  18  20
ATOM     20  O   UNL     1      -6.648   5.025   2.484  0.00  0.00    -0.456 OA
BRANCH  20  21
ATOM     21  C   UNL     1      -7.284   5.359   1.331  0.00  0.00    +0.128 A 
ATOM     22  C   UNL     1      -6.550   5.623   0.184  0.00  0.00    +0.046 A 
ATOM     23  C   UNL     1      -7.199   5.956  -0.989  0.00  0.00    +0.004 A 
ATOM     24  C   UNL     1      -8.579   6.037  -1.018  0.00  0.00    +0.000 A 
ATOM     25  C   UNL     1      -9.313   5.780   0.126  0.00  0.00    +0.004 A 
ATOM     26  C   UNL     1      -8.669   5.441   1.300  0.00  0.00    +0.046 A 
ENDBRANCH  20  21
ENDBRANCH  18  20
ENDBRANCH   4  14
BRANCH   3  27
ATOM     27  C   UNL     1      -2.165   1.390   3.312  0.00  0.00    +0.338 C 
ATOM     28  O   UNL     1      -1.477   0.746   4.083  0.00  0.00    -0.245 OA
BRANCH  27  29
ATOM     29  O   UNL     1      -3.508   1.258   3.335  0.00  0.00    -0.459 OA
BRANCH  29  30
ATOM     30  C   UNL     1      -4.054   0.345   4.289  0.00  0.00    +0.264 C 
BRANCH  30  31
ATOM     31  C   UNL     1      -5.579   0.332   4.167  0.00  0.00    +0.156 C 
ATOM     32  C   UNL     1      -6.185  -0.564   5.269  0.00  0.00    +0.037 C 
ATOM     33  C   UNL     1      -7.341  -1.276   4.516  0.00  0.00    +0.031 C 
ATOM     34  C   UNL     1      -6.726  -1.420   3.101  0.00  0.00    +0.160 C 
ATOM     35  O   UNL     1      -5.960  -0.222   2.902  0.00  0.00    -0.373 OA
ENDBRANCH  30  31
ENDBRANCH  29  30
ENDBRANCH  27  29
ENDBRANCH   3  27
TORSDOF 7
