REMARK  Name = ZINC37558109
REMARK  5 active torsions:
REMARK  status: ('A' for Active; 'I' for Inactive)
REMARK    1  A    between atoms: C_4  and  N_11
REMARK    2  A    between atoms: C_5  and  C_7
REMARK    3  A    between atoms: N_11  and  S_12
REMARK    4  A    between atoms: S_12  and  C_15
REMARK    5  A    between atoms: C_20  and  N_21
REMARK                            x       y       z     vdW  Elec       q    Type
REMARK                         _______ _______ _______ _____ _____    ______ ____
ROOT
ATOM      1  S   UNL     1       5.041   0.200  -0.046  0.00  0.00    +0.096 S 
ATOM      2  O   UNL     1       5.095   0.888  -1.288  0.00  0.00    -0.148 OA
ATOM      3  O   UNL     1       5.120   0.875   1.202  0.00  0.00    -0.148 OA
ENDROOT
BRANCH   1   4
ATOM      4  C   UNL     1       6.352  -0.978  -0.065  0.00  0.00    +0.166 A 
ATOM      5  C   UNL     1       7.273  -1.167  -1.099  0.00  0.00    +0.133 A 
ATOM      6  N   UNL     1       8.091  -2.127  -0.750  0.00  0.00    -0.304 N 
ATOM      7  H   UNL     1       8.153  -3.292   1.022  0.00  0.00    +0.188 HD
ATOM      8  N   UNL     1       7.719  -2.584   0.521  0.00  0.00    -0.286 N 
ATOM      9  C   UNL     1       6.651  -1.861   0.927  0.00  0.00    +0.137 A 
ATOM     10  H   UNL     1       8.829  -2.465  -1.281  0.00  0.00    +0.186 HD
BRANCH   9  11
ATOM     11  N   UNL     1       5.977  -1.998   2.137  0.00  0.00    -0.342 N 
ATOM     12  H   UNL     1       5.216  -1.430   2.336  0.00  0.00    +0.144 HD
ATOM     13  H   UNL     1       6.269  -2.661   2.783  0.00  0.00    +0.144 HD
ENDBRANCH   9  11
ENDBRANCH   1   4
BRANCH   1  14
ATOM     14  N   UNL     1       3.620  -0.649  -0.036  0.00  0.00    -0.097 NA
BRANCH  14  18
ATOM     15  C   UNL     1      -0.017   1.378   0.010  0.00  0.00    +0.001 A 
ATOM     16  C   UNL     1       1.170   2.089   0.002  0.00  0.00    +0.002 A 
ATOM     17  C   UNL     1       2.377   1.420  -0.013  0.00  0.00    +0.027 A 
ATOM     18  C   UNL     1       2.400   0.031  -0.021  0.00  0.00    +0.086 A 
ATOM     19  C   UNL     1       1.207  -0.680  -0.013  0.00  0.00    +0.079 A 
ATOM     20  C   UNL     1       0.002  -0.004   0.002  0.00  0.00    +0.014 A 
BRANCH  19  21
ATOM     21  C   UNL     1       1.226  -2.187  -0.022  0.00  0.00    +0.419 C 
ATOM     22  F   UNL     1      -0.087  -2.670  -0.012  0.00  0.00    -0.166 F 
ATOM     23  F   UNL     1       1.880  -2.638  -1.173  0.00  0.00    -0.166 F 
ATOM     24  F   UNL     1       1.903  -2.651   1.111  0.00  0.00    -0.166 F 
ENDBRANCH  19  21
ENDBRANCH  14  18
ENDBRANCH   1  14
TORSDOF 5
