REMARK  Name = ZINC39724389
REMARK  8 active torsions:
REMARK  status: ('A' for Active; 'I' for Inactive)
REMARK    1  A    between atoms: C_1  and  C_2
REMARK    2  A    between atoms: C_7  and  C_14
REMARK    3  A    between atoms: C_14  and  C_15
REMARK    4  A    between atoms: C_15  and  N_16
REMARK    5  A    between atoms: N_16  and  C_17
REMARK    6  A    between atoms: C_17  and  N_19
REMARK    7  A    between atoms: N_19  and  C_20
REMARK    8  A    between atoms: C_23  and  N_26
REMARK                            x       y       z     vdW  Elec       q    Type
REMARK                         _______ _______ _______ _____ _____    ______ ____
ROOT
ATOM      1  C   UNL     1       1.215  -6.989   2.294  0.00  0.00    +0.104 C 
ENDROOT
BRANCH   1   2
ATOM      2  N   UNL     1       2.566  -7.493   2.556  0.00  0.00    -0.326 N 
ATOM      3  H   UNL     1       3.284  -7.304   1.932  0.00  0.00    +0.148 HD
BRANCH   2   4
ATOM      4  C   UNL     1       2.810  -8.220   3.664  0.00  0.00    +0.135 C 
ATOM      5  S   UNL     1       1.543  -8.555   4.766  0.00  0.00    -0.019 S 
BRANCH   4   6
ATOM      6  N   UNL     1       4.052  -8.684   3.905  0.00  0.00    -0.297 N 
ATOM      7  H   UNL     1       4.786  -8.432   3.323  0.00  0.00    +0.154 HD
BRANCH   6   8
ATOM      8  C   UNL     1       4.284  -9.530   4.995  0.00  0.00    +0.033 A 
ATOM      9  C   UNL     1       3.373 -10.532   5.304  0.00  0.00    +0.025 A 
ATOM     10  C   UNL     1       3.605 -11.365   6.381  0.00  0.00    +0.034 A 
ATOM     11  C   UNL     1       4.742 -11.202   7.152  0.00  0.00    +0.126 A 
ATOM     12  C   UNL     1       5.650 -10.205   6.847  0.00  0.00    +0.034 A 
ATOM     13  C   UNL     1       5.427  -9.373   5.768  0.00  0.00    +0.025 A 
BRANCH  11  14
ATOM     14  N   UNL     1       4.986 -12.097   8.306  0.00  0.00    +0.056 N 
ATOM     15  O   UNL     1       4.193 -12.969   8.573  0.00  0.00    -0.126 OA
ATOM     16  O   UNL     1       5.979 -11.955   8.980  0.00  0.00    -0.126 OA
ENDBRANCH  11  14
ENDBRANCH   6   8
ENDBRANCH   4   6
ENDBRANCH   2   4
ENDBRANCH   1   2
BRANCH   1  17
ATOM     17  C   UNL     1       1.210  -6.202   0.982  0.00  0.00    +0.035 C 
BRANCH  17  24
ATOM     18  C   UNL     1      -4.049  -7.086  -4.287  0.00  0.00    +0.044 C 
ATOM     19  C   UNL     1      -3.269  -6.996  -3.001  0.00  0.00    -0.049 A 
ATOM     20  C   UNL     1      -3.458  -7.982  -2.033  0.00  0.00    +0.004 A 
ATOM     21  C   UNL     1      -2.784  -7.955  -0.854  0.00  0.00    +0.010 A 
ATOM     22  C   UNL     1      -1.841  -6.864  -0.605  0.00  0.00    -0.007 A 
ATOM     23  C   UNL     1      -1.142  -6.796   0.563  0.00  0.00    -0.005 C 
ATOM     24  C   UNL     1      -0.187  -5.631   0.735  0.00  0.00    +0.100 C 
ATOM     25  C   UNL     1      -0.088  -4.640  -0.403  0.00  0.00    +0.224 C 
ATOM     26  O   UNL     1       0.663  -3.686  -0.318  0.00  0.00    -0.275 OA
ATOM     27  N   UNL     1      -0.820  -4.814  -1.490  0.00  0.00    -0.284 N 
ATOM     28  C   UNL     1      -1.661  -5.836  -1.645  0.00  0.00    +0.041 A 
ATOM     29  C   UNL     1      -2.405  -5.960  -2.833  0.00  0.00    +0.027 A 
ATOM     30  H   UNL     1      -0.742  -4.167  -2.208  0.00  0.00    +0.155 HD
ENDBRANCH  17  24
ENDBRANCH   1  17
TORSDOF 7
