REMARK  Name = ZINC41168792
REMARK  6 active torsions:
REMARK  status: ('A' for Active; 'I' for Inactive)
REMARK    1  A    between atoms: C_1  and  C_2
REMARK    2  A    between atoms: C_6  and  C_15
REMARK    3  A    between atoms: C_13  and  C_14
REMARK    4  A    between atoms: C_15  and  N_16
REMARK    5  A    between atoms: N_16  and  S_17
REMARK    6  A    between atoms: S_17  and  C_20
REMARK                            x       y       z     vdW  Elec       q    Type
REMARK                         _______ _______ _______ _____ _____    ______ ____
ROOT
ATOM      1  C   UNL     1       0.053  -4.980  -3.675  0.00  0.00    +0.146 C 
ENDROOT
BRANCH   1   7
ATOM      2  C   UNL     1      -0.018   1.503   0.010  0.00  0.00    +0.044 C 
ATOM      3  C   UNL     1       0.002  -0.004   0.002  0.00  0.00    -0.047 A 
ATOM      4  C   UNL     1       0.005  -0.675  -1.188  0.00  0.00    +0.013 A 
ATOM      5  C   UNL     1       0.025  -2.073  -1.196  0.00  0.00    -0.001 A 
ATOM      6  C   UNL     1       0.029  -2.823  -2.454  0.00  0.00    +0.020 A 
ATOM      7  C   UNL     1       0.048  -4.178  -2.399  0.00  0.00    +0.033 A 
ATOM      8  C   UNL     1       0.063  -4.839  -1.153  0.00  0.00    +0.254 A 
ATOM      9  O   UNL     1       0.080  -6.058  -1.127  0.00  0.00    -0.268 OA
ATOM     10  N   UNL     1       0.059  -4.159   0.007  0.00  0.00    -0.322 N 
ATOM     11  H   UNL     1       0.070  -4.645   0.846  0.00  0.00    +0.169 HD
ATOM     12  C   UNL     1       0.040  -2.781   0.021  0.00  0.00    +0.049 A 
ATOM     13  C   UNL     1       0.035  -2.077   1.220  0.00  0.00    +0.030 A 
ATOM     14  C   UNL     1       0.023  -0.698   1.204  0.00  0.00    -0.046 A 
ATOM     15  C   UNL     1       0.025   0.063   2.505  0.00  0.00    +0.044 C 
ENDBRANCH   1   7
BRANCH   1  16
ATOM     16  N   UNL     1       1.432  -5.323  -4.031  0.00  0.00    -0.185 NA
ATOM     17  H   UNL     1       2.172  -4.862  -3.605  0.00  0.00    +0.148 HD
BRANCH  16  18
ATOM     18  S   UNL     1       1.728  -6.498  -5.160  0.00  0.00    +0.059 S 
ATOM     19  O   UNL     1       3.140  -6.578  -5.302  0.00  0.00    -0.153 OA
ATOM     20  O   UNL     1       0.935  -7.620  -4.797  0.00  0.00    -0.153 OA
BRANCH  18  21
ATOM     21  C   UNL     1       1.099  -5.913  -6.698  0.00  0.00    +0.109 A 
ATOM     22  C   UNL     1      -0.214  -6.183  -7.052  0.00  0.00    +0.031 A 
ATOM     23  C   UNL     1      -0.719  -5.731  -8.251  0.00  0.00    +0.033 A 
ATOM     24  C   UNL     1       0.096  -4.998  -9.114  0.00  0.00    +0.113 A 
ATOM     25  C   UNL     1       1.424  -4.727  -8.752  0.00  0.00    +0.161 A 
ATOM     26  C   UNL     1       1.915  -5.184  -7.540  0.00  0.00    +0.077 A 
ATOM     27  O   UNL     1       1.958  -4.011  -9.768  0.00  0.00    -0.406 OA
ATOM     28  C   UNL     1       1.011  -3.848 -10.708  0.00  0.00    +0.441 A 
ATOM     29  O   UNL     1       1.183  -3.182 -11.872  0.00  0.00    -0.221 OA
ATOM     30  N   UNL     1      -0.098  -4.428 -10.335  0.00  0.00    -0.172 NA
ENDBRANCH  18  21
ENDBRANCH  16  18
ENDBRANCH   1  16
TORSDOF 4
