REMARK  Name = ZINC00494403
REMARK  5 active torsions:
REMARK  status: ('A' for Active; 'I' for Inactive)
REMARK    1  A    between atoms: C_1  and  N_2
REMARK    2  A    between atoms: C_6  and  C_20
REMARK    3  A    between atoms: C_7  and  C_14
REMARK    4  A    between atoms: N_8  and  C_13
REMARK    5  A    between atoms: N_11  and  C_12
REMARK                            x       y       z     vdW  Elec       q    Type
REMARK                         _______ _______ _______ _____ _____    ______ ____
ROOT
ATOM      1  C   UNL     1      -0.018   1.461   0.010  0.00  0.00    +0.136 C 
ATOM      2  N   UNL     1       0.002  -0.004   0.002  0.00  0.00    -0.260 N 
ATOM      3  C   UNL     1       0.008  -0.772  -1.095  0.00  0.00    +0.306 C 
ATOM      4  O   UNL     1      -0.003  -0.318  -2.222  0.00  0.00    -0.253 OA
ATOM      5  N   UNL     1       0.027  -2.086  -0.838  0.00  0.00    -0.271 N 
ATOM      6  C   UNL     1       0.036  -2.298   0.617  0.00  0.00    +0.175 C 
ATOM      7  C   UNL     1       0.025  -0.860   1.196  0.00  0.00    +0.177 C 
ATOM      8  N   UNL     1      -1.268  -0.777   1.889  0.00  0.00    -0.260 N 
ATOM      9  C   UNL     1      -1.918  -1.941   1.757  0.00  0.00    +0.308 C 
ATOM     10  O   UNL     1      -3.017  -2.145   2.235  0.00  0.00    -0.252 OA
ATOM     11  N   UNL     1      -1.254  -2.860   1.042  0.00  0.00    -0.260 N 
ATOM     12  C   UNL     1      -1.728  -4.213   0.743  0.00  0.00    +0.136 C 
ATOM     13  C   UNL     1      -1.769   0.395   2.611  0.00  0.00    +0.136 C 
ATOM     14  H   UNL     1       0.033  -2.788  -1.507  0.00  0.00    +0.153 HD
ENDROOT
BRANCH   7  15
ATOM     15  C   UNL     1       1.201  -0.577   2.095  0.00  0.00    -0.002 A 
ATOM     16  C   UNL     1       2.379  -0.090   1.558  0.00  0.00    +0.007 A 
ATOM     17  C   UNL     1       3.458   0.171   2.382  0.00  0.00    +0.000 A 
ATOM     18  C   UNL     1       3.359  -0.055   3.742  0.00  0.00    +0.000 A 
ATOM     19  C   UNL     1       2.182  -0.541   4.279  0.00  0.00    +0.000 A 
ATOM     20  C   UNL     1       1.101  -0.797   3.455  0.00  0.00    +0.007 A 
ENDBRANCH   7  15
BRANCH   6  21
ATOM     21  C   UNL     1       1.211  -3.120   1.079  0.00  0.00    -0.002 A 
ATOM     22  C   UNL     1       1.101  -3.909   2.208  0.00  0.00    +0.007 A 
ATOM     23  C   UNL     1       2.179  -4.663   2.632  0.00  0.00    +0.000 A 
ATOM     24  C   UNL     1       3.367  -4.628   1.927  0.00  0.00    +0.000 A 
ATOM     25  C   UNL     1       3.477  -3.840   0.797  0.00  0.00    +0.000 A 
ATOM     26  C   UNL     1       2.398  -3.089   0.370  0.00  0.00    +0.007 A 
ENDBRANCH   6  21
TORSDOF 2
