REMARK  Name = ZINC00138016
REMARK  6 active torsions:
REMARK  status: ('A' for Active; 'I' for Inactive)
REMARK    1  A    between atoms: C_1  and  C_2
REMARK    2  A    between atoms: C_4  and  C_14
REMARK    3  A    between atoms: C_5  and  C_11
REMARK    4  A    between atoms: C_6  and  C_10
REMARK    5  A    between atoms: C_7  and  C_8
REMARK    6  A    between atoms: N_12  and  O_13
REMARK                            x       y       z     vdW  Elec       q    Type
REMARK                         _______ _______ _______ _____ _____    ______ ____
ROOT
ATOM      1  C   UNL     1      -0.511   1.448  -0.176  0.00  0.00    +0.044 C 
ATOM      2  C   UNL     1      -0.233  -0.030  -0.087  0.00  0.00    -0.046 A 
ATOM      3  C   UNL     1      -0.263  -0.807  -1.232  0.00  0.00    +0.007 A 
ATOM      4  C   UNL     1      -0.009  -2.161  -1.157  0.00  0.00    -0.041 A 
ATOM      5  C   UNL     1       0.278  -2.747   0.077  0.00  0.00    +0.002 A 
ATOM      6  C   UNL     1       0.307  -1.957   1.228  0.00  0.00    -0.037 A 
ATOM      7  C   UNL     1       0.056  -0.604   1.138  0.00  0.00    -0.026 A 
ATOM      8  C   UNL     1       0.616  -2.581   2.564  0.00  0.00    +0.045 C 
ATOM      9  C   UNL     1      -0.043  -3.005  -2.405  0.00  0.00    +0.044 C 
ENDROOT
BRANCH   7  10
ATOM     10  C   UNL     1       0.092   0.252   2.379  0.00  0.00    +0.144 C 
ATOM     11 CL   UNL     1      -1.549   0.296   3.125  0.00  0.00    -0.120 Cl
ENDBRANCH   7  10
BRANCH   5  12
ATOM     12  C   UNL     1       0.550  -4.196   0.165  0.00  0.00    +0.161 C 
ATOM     13  N   UNL     1       0.632  -4.904  -0.914  0.00  0.00    -0.095 NA
BRANCH  13  14
ATOM     14  O   UNL     1       0.893  -6.294  -0.830  0.00  0.00    -0.409 OA
ATOM     15  H   UNL     1       0.936  -6.738  -1.688  0.00  0.00    +0.328 HD
ENDBRANCH  13  14
ENDBRANCH   5  12
TORSDOF 3
