REMARK  Name = ZINC65578373
REMARK  5 active torsions:
REMARK  status: ('A' for Active; 'I' for Inactive)
REMARK    1  A    between atoms: C_1  and  C_2
REMARK    2  A    between atoms: C_6  and  C_8
REMARK    3  A    between atoms: C_12  and  N_14
REMARK    4  A    between atoms: C_15  and  C_17
REMARK    5  A    between atoms: C_18  and  C_19
REMARK                            x       y       z     vdW  Elec       q    Type
REMARK                         _______ _______ _______ _____ _____    ______ ____
ROOT
ATOM      1  C   UNL     1      -0.134  -3.239   1.597  0.00  0.00    +0.023 A 
ATOM      2  C   UNL     1       0.038  -3.037   2.965  0.00  0.00    +0.012 A 
ATOM      3  C   UNL     1       0.234  -4.116   3.804  0.00  0.00    +0.002 A 
ATOM      4  C   UNL     1       0.260  -5.399   3.291  0.00  0.00    +0.023 A 
ATOM      5  C   UNL     1       0.089  -5.610   1.928  0.00  0.00    +0.034 A 
ATOM      6  C   UNL     1      -0.114  -4.531   1.080  0.00  0.00    +0.035 A 
ENDROOT
BRANCH   1  12
ATOM      7  C   UNL     1      -0.693   1.469   0.038  0.00  0.00    +0.087 C 
ATOM      8  C   UNL     1      -0.586  -0.034   0.027  0.00  0.00    +0.122 A 
ATOM      9  N   UNL     1      -0.683  -0.823  -1.058  0.00  0.00    -0.262 N 
ATOM     10  H   UNL     1      -0.832  -0.536  -1.972  0.00  0.00    +0.190 HD
ATOM     11  N   UNL     1      -0.524  -2.143  -0.606  0.00  0.00    -0.152 NA
ATOM     12  C   UNL     1      -0.345  -2.079   0.695  0.00  0.00    +0.181 A 
ATOM     13  N   UNL     1      -0.379  -0.794   1.070  0.00  0.00    -0.212 NA
ENDBRANCH   1  12
BRANCH   5  14
ATOM     14  N   UNL     1       0.117  -6.909   1.412  0.00  0.00    -0.282 N 
ATOM     15  C   UNL     1       0.613  -7.134   0.179  0.00  0.00    +0.241 C 
ATOM     16  O   UNL     1       1.125  -6.224  -0.447  0.00  0.00    -0.270 OA
ATOM     17  H   UNL     1      -0.222  -7.648   1.941  0.00  0.00    +0.155 HD
BRANCH  15  18
ATOM     18  C   UNL     1       0.540  -8.428  -0.387  0.00  0.00    +0.071 C 
ATOM     19  C   UNL     1       1.040  -8.655  -1.628  0.00  0.00    +0.051 C 
BRANCH  19  20
ATOM     20  C   UNL     1       0.966  -9.950  -2.194  0.00  0.00    +0.129 A 
ATOM     21  C   UNL     1       1.437 -10.321  -3.438  0.00  0.00    +0.050 A 
ATOM     22  C   UNL     1       1.153 -11.687  -3.580  0.00  0.00    +0.057 A 
ATOM     23  C   UNL     1       0.535 -12.088  -2.445  0.00  0.00    +0.171 A 
ATOM     24  O   UNL     1       0.429 -11.043  -1.613  0.00  0.00    -0.449 OA
ATOM     25 BR   UNL     1      -0.076 -13.842  -2.089  0.00  0.00    -0.008 Br
ENDBRANCH  19  20
ENDBRANCH  15  18
ENDBRANCH   5  14
TORSDOF 4
