REMARK  Name = ZINC04736389
REMARK  7 active torsions:
REMARK  status: ('A' for Active; 'I' for Inactive)
REMARK    1  A    between atoms: C_1  and  C_2
REMARK    2  A    between atoms: C_8  and  C_10
REMARK    3  A    between atoms: C_10  and  C_12
REMARK    4  A    between atoms: C_10  and  S_13
REMARK    5  A    between atoms: S_13  and  C_14
REMARK    6  A    between atoms: C_17  and  C_20
REMARK    7  A    between atoms: N_18  and  C_19
REMARK                            x       y       z     vdW  Elec       q    Type
REMARK                         _______ _______ _______ _____ _____    ______ ____
ROOT
ATOM      1  C   UNL     1      -7.880   4.599   5.217  0.00  0.00    +0.192 A 
ATOM      2  N   UNL     1      -8.652   4.164   4.246  0.00  0.00    -0.122 NA
ATOM      3  N   UNL     1      -9.845   4.618   4.393  0.00  0.00    -0.128 NA
ATOM      4  C   UNL     1      -9.908   5.371   5.467  0.00  0.00    +0.165 A 
ATOM      5  N   UNL     1      -8.653   5.378   6.030  0.00  0.00    -0.305 N 
ATOM      6  C   UNL     1      -8.233   6.077   7.247  0.00  0.00    +0.153 C 
ENDROOT
BRANCH   4   7
ATOM      7  C   UNL     1     -11.104   6.074   5.977  0.00  0.00    +0.023 A 
ATOM      8  C   UNL     1     -12.377   5.693   5.548  0.00  0.00    +0.015 A 
ATOM      9  C   UNL     1     -13.491   6.350   6.025  0.00  0.00    +0.050 A 
ATOM     10  C   UNL     1     -13.353   7.390   6.932  0.00  0.00    +0.166 A 
ATOM     11  C   UNL     1     -12.085   7.776   7.365  0.00  0.00    +0.167 A 
ATOM     12  C   UNL     1     -10.964   7.118   6.893  0.00  0.00    +0.061 A 
ATOM     13  O   UNL     1     -12.221   8.811   8.246  0.00  0.00    -0.453 OA
ATOM     14  C   UNL     1     -13.600   8.784   8.660  0.00  0.00    +0.466 C 
ATOM     15  O   UNL     1     -14.281   8.184   7.543  0.00  0.00    -0.453 OA
ENDBRANCH   4   7
BRANCH   1  16
ATOM     16  S   UNL     1      -6.169   4.238   5.433  0.00  0.00    -0.074 S 
BRANCH  16  17
ATOM     17  C   UNL     1      -5.888   3.173   3.997  0.00  0.00    +0.137 C 
ATOM     18  C   UNL     1      -6.705   1.888   4.147  0.00  0.00    +0.029 C 
BRANCH  17  26
ATOM     19  C   UNL     1       0.257   1.174   0.448  0.00  0.00    +0.066 C 
ATOM     20  C   UNL     1      -0.539   1.567   1.665  0.00  0.00    +0.047 A 
ATOM     21  C   UNL     1       0.051   1.649   2.883  0.00  0.00    +0.071 A 
ATOM     22  S   UNL     1      -1.340   2.138   3.893  0.00  0.00    -0.060 S 
ATOM     23  C   UNL     1      -2.532   2.182   2.631  0.00  0.00    +0.165 A 
ATOM     24  N   UNL     1      -1.825   1.843   1.570  0.00  0.00    -0.230 NA
ATOM     25  N   UNL     1      -3.882   2.499   2.716  0.00  0.00    -0.264 N 
ATOM     26  C   UNL     1      -4.424   2.829   3.905  0.00  0.00    +0.232 C 
ATOM     27  O   UNL     1      -3.732   2.850   4.901  0.00  0.00    -0.274 OA
ATOM     28  H   UNL     1      -4.435   2.483   1.919  0.00  0.00    +0.157 HD
ENDBRANCH  17  26
ENDBRANCH  16  17
ENDBRANCH   1  16
TORSDOF 4
