REMARK  Name = ZINC29545704
REMARK  6 active torsions:
REMARK  status: ('A' for Active; 'I' for Inactive)
REMARK    1  A    between atoms: C_1  and  C_2
REMARK    2  A    between atoms: C_4  and  N_19
REMARK    3  A    between atoms: C_6  and  O_9
REMARK    4  A    between atoms: O_9  and  C_10
REMARK    5  A    between atoms: C_14  and  C_16
REMARK    6  A    between atoms: N_22  and  C_25
REMARK                            x       y       z     vdW  Elec       q    Type
REMARK                         _______ _______ _______ _____ _____    ______ ____
ROOT
ATOM      1  C   UNL     1       3.683   2.134  -0.036  0.00  0.00    +0.050 C 
ATOM      2  C   UNL     1       2.380   1.378  -0.063  0.00  0.00    +0.029 A 
ATOM      3  C   UNL     1       2.365  -0.006  -0.148  0.00  0.00    +0.169 A 
ATOM      4  C   UNL     1       1.144  -0.672  -0.171  0.00  0.00    +0.161 A 
ATOM      5  N   UNL     1       0.006   0.003  -0.113  0.00  0.00    -0.192 NA
ATOM      6  C   UNL     1      -0.015   1.323  -0.032  0.00  0.00    +0.259 A 
ATOM      7  C   UNL     1       1.168   2.051  -0.005  0.00  0.00    +0.191 A 
ATOM      8  F   UNL     1       1.139   3.399   0.077  0.00  0.00    -0.200 F 
ATOM      9  F   UNL     1       3.523  -0.700  -0.207  0.00  0.00    -0.202 F 
ENDROOT
BRANCH   4  10
ATOM     10  N   UNL     1       1.118  -2.062  -0.255  0.00  0.00    -0.310 N 
ATOM     11  C   UNL     1       1.856  -2.531  -1.436  0.00  0.00    +0.125 C 
ATOM     12  C   UNL     1       1.871  -4.062  -1.450  0.00  0.00    +0.127 C 
ATOM     13  N   UNL     1       0.490  -4.563  -1.461  0.00  0.00    -0.298 N 
ATOM     14  C   UNL     1      -0.247  -4.094  -0.279  0.00  0.00    +0.127 C 
ATOM     15  C   UNL     1      -0.263  -2.563  -0.266  0.00  0.00    +0.125 C 
BRANCH  13  16
ATOM     16  C   UNL     1       0.464  -5.953  -1.545  0.00  0.00    +0.189 A 
ATOM     17  C   UNL     1       1.047  -6.699  -2.512  0.00  0.00    +0.066 A 
ATOM     18  C   UNL     1       0.770  -8.052  -2.206  0.00  0.00    +0.043 A 
ATOM     19  C   UNL     1       0.040  -8.056  -1.077  0.00  0.00    +0.197 A 
ATOM     20  O   UNL     1      -0.138  -6.783  -0.677  0.00  0.00    -0.449 OA
ENDBRANCH  13  16
ENDBRANCH   4  10
BRANCH   6  21
ATOM     21  O   UNL     1      -1.205   1.974   0.018  0.00  0.00    -0.436 OA
BRANCH  21  22
ATOM     22  C   UNL     1      -2.341   1.236  -0.085  0.00  0.00    +0.131 A 
ATOM     23  C   UNL     1      -2.794   0.504   1.004  0.00  0.00    +0.046 A 
ATOM     24  C   UNL     1      -3.949  -0.249   0.904  0.00  0.00    +0.004 A 
ATOM     25  C   UNL     1      -4.659  -0.278  -0.279  0.00  0.00    +0.011 A 
ATOM     26  C   UNL     1      -4.211   0.455  -1.378  0.00  0.00    +0.016 A 
ATOM     27  C   UNL     1      -3.050   1.218  -1.275  0.00  0.00    +0.057 A 
BRANCH  26  28
ATOM     28  C   UNL     1      -4.971   0.427  -2.649  0.00  0.00    +0.094 C 
ATOM     29  N   UNL     1      -4.551   1.111  -3.674  0.00  0.00    -0.387 N 
ATOM     30  N   UNL     1      -6.123  -0.324  -2.747  0.00  0.00    -0.345 N 
ATOM     31  H   UNL     1      -5.115   1.091  -4.618  0.00  0.00    +0.157 HD
ATOM     32  H   UNL     1      -6.687  -0.344  -3.691  0.00  0.00    +0.144 HD
ATOM     33  H   UNL     1      -6.477  -0.902  -1.881  0.00  0.00    +0.144 HD
ATOM     34  H   UNL     1      -3.632   1.710  -3.596  0.00  0.00    +0.157 HD
ENDBRANCH  26  28
ENDBRANCH  21  22
ENDBRANCH   6  21
TORSDOF 5
