REMARK  Name = ZINC05445946
REMARK  12 active torsions:
REMARK  status: ('A' for Active; 'I' for Inactive)
REMARK    1  A    between atoms: C_1  and  C_2
REMARK    2  A    between atoms: C_4  and  C_10
REMARK    3  A    between atoms: C_7  and  O_8
REMARK    4  A    between atoms: O_8  and  C_9
REMARK    5  A    between atoms: C_10  and  O_30
REMARK    6  A    between atoms: C_12  and  C_23
REMARK    7  A    between atoms: N_14  and  C_19
REMARK    8  A    between atoms: C_19  and  C_20
REMARK    9  A    between atoms: C_20  and  N_56
REMARK   10  A    between atoms: C_21  and  N_56
REMARK   11  A    between atoms: C_22  and  N_56
REMARK   12  A    between atoms: C_26  and  O_29
REMARK                            x       y       z     vdW  Elec       q    Type
REMARK                         _______ _______ _______ _____ _____    ______ ____
ROOT
ATOM      1  C   UNL     1       0.346  -3.138   2.844  0.00  0.00    +0.133 C 
ATOM      2  C   UNL     1       0.099  -4.473   2.585  0.00  0.00    +0.071 C 
ATOM      3  C   UNL     1      -0.038  -5.123   1.228  0.00  0.00    +0.144 C 
ATOM      4  N   UNL     1      -0.293  -6.546   1.469  0.00  0.00    -0.285 N 
ATOM      5  C   UNL     1      -0.315  -6.768   2.794  0.00  0.00    +0.288 C 
ATOM      6  O   UNL     1      -0.503  -7.848   3.316  0.00  0.00    -0.266 OA
ATOM      7  C   UNL     1      -0.068  -5.497   3.528  0.00  0.00    +0.249 C 
ATOM      8  O   UNL     1      -0.021  -5.369   4.738  0.00  0.00    -0.282 OA
ENDROOT
BRANCH   1  12
ATOM      9  C   UNL     1       2.614   0.647   0.526  0.00  0.00    +0.047 C 
ATOM     10  C   UNL     1       1.483  -0.345   0.617  0.00  0.00    -0.008 A 
ATOM     11  C   UNL     1       1.444  -1.249   1.654  0.00  0.00    +0.018 A 
ATOM     12  C   UNL     1       0.393  -2.170   1.737  0.00  0.00    +0.017 A 
ATOM     13  C   UNL     1      -0.613  -2.167   0.764  0.00  0.00    +0.015 A 
ATOM     14  C   UNL     1      -0.565  -1.260  -0.269  0.00  0.00    +0.046 A 
ATOM     15  C   UNL     1       0.479  -0.343  -0.345  0.00  0.00    +0.123 A 
BRANCH  15  16
ATOM     16  O   UNL     1       0.519   0.554  -1.362  0.00  0.00    -0.495 OA
ATOM     17  C   UNL     1      -0.544   0.501  -2.316  0.00  0.00    +0.277 C 
ENDBRANCH  15  16
ENDBRANCH   1  12
BRANCH   3  18
ATOM     18  C   UNL     1       1.236  -4.952   0.442  0.00  0.00    -0.022 A 
ATOM     19  C   UNL     1       2.373  -5.645   0.812  0.00  0.00    +0.009 A 
ATOM     20  C   UNL     1       3.541  -5.495   0.090  0.00  0.00    +0.046 A 
ATOM     21  C   UNL     1       3.575  -4.638  -1.002  0.00  0.00    +0.117 A 
ATOM     22  C   UNL     1       2.434  -3.940  -1.368  0.00  0.00    +0.046 A 
ATOM     23  C   UNL     1       1.267  -4.098  -0.645  0.00  0.00    +0.009 A 
BRANCH  21  24
ATOM     24  O   UNL     1       4.724  -4.484  -1.711  0.00  0.00    -0.507 OA
ATOM     25  H   UNL     1       5.294  -3.774  -1.386  0.00  0.00    +0.292 HD
ENDBRANCH  21  24
ENDBRANCH   3  18
BRANCH   1  26
ATOM     26  O   UNL     1       0.544  -2.722   4.113  0.00  0.00    -0.506 OA
ATOM     27  H   UNL     1       0.478  -3.504   4.734  0.00  0.00    +0.292 HD
ENDBRANCH   1  26
BRANCH   4  28
ATOM     28  C   UNL     1      -0.493  -7.563   0.433  0.00  0.00    +0.090 C 
BRANCH  28  29
ATOM     29  C   UNL     1       0.857  -8.175   0.052  0.00  0.00    -0.060 C 
BRANCH  29  32
ATOM     30  C   UNL     1       0.183  -8.585  -2.237  0.00  0.00    -0.097 C 
ATOM     31  C   UNL     1       1.886  -9.966  -1.210  0.00  0.00    -0.097 C 
ATOM     32  N   UNL     1       0.636  -9.212  -0.978  0.00  0.00    +0.377 N 
ATOM     33  H   UNL     1      -0.088  -9.860  -0.648  0.00  0.00    -0.083 HD
ENDBRANCH  29  32
ENDBRANCH  28  29
ENDBRANCH   4  28
TORSDOF 8
