REMARK  Name = ZINC57115731
REMARK  5 active torsions:
REMARK  status: ('A' for Active; 'I' for Inactive)
REMARK    1  A    between atoms: C_1  and  C_2
REMARK    2  A    between atoms: C_5  and  N_9
REMARK    3  A    between atoms: N_9  and  S_10
REMARK    4  A    between atoms: S_10  and  C_13
REMARK    5  A    between atoms: C_15  and  C_23
REMARK                            x       y       z     vdW  Elec       q    Type
REMARK                         _______ _______ _______ _____ _____    ______ ____
ROOT
ATOM      1  S   UNL     1       0.780  -4.980  -1.274  0.00  0.00    +0.073 S 
ATOM      2  O   UNL     1       0.556  -6.364  -1.043  0.00  0.00    -0.150 OA
ATOM      3  O   UNL     1       0.369  -4.331  -2.469  0.00  0.00    -0.150 OA
ENDROOT
BRANCH   1   4
ATOM      4  C   UNL     1       2.517  -4.720  -1.131  0.00  0.00    +0.113 A 
ATOM      5  C   UNL     1       3.101  -3.640  -1.754  0.00  0.00    +0.047 A 
ATOM      6  C   UNL     1       4.480  -3.432  -1.643  0.00  0.00    +0.110 A 
ATOM      7  C   UNL     1       5.260  -4.326  -0.895  0.00  0.00    +0.176 A 
ATOM      8  C   UNL     1       4.654  -5.409  -0.269  0.00  0.00    +0.165 A 
ATOM      9  C   UNL     1       3.286  -5.599  -0.387  0.00  0.00    +0.078 A 
ATOM     10  O   UNL     1       5.389  -6.286   0.469  0.00  0.00    -0.485 OA
ATOM     11  C   UNL     1       6.805  -6.273   0.261  0.00  0.00    +0.270 C 
ATOM     12  C   UNL     1       7.277  -4.812   0.262  0.00  0.00    +0.270 C 
ATOM     13  O   UNL     1       6.598  -4.122  -0.793  0.00  0.00    -0.484 OA
BRANCH   6  14
ATOM     14  C   UNL     1       5.110  -2.280  -2.309  0.00  0.00    +0.390 C 
ATOM     15  O   UNL     1       4.428  -1.502  -2.962  0.00  0.00    -0.240 OA
ATOM     16  O   UNL     1       6.316  -2.101  -2.210  0.00  0.00    -0.240 OA
ENDBRANCH   6  14
ENDBRANCH   1   4
BRANCH   1  17
ATOM     17  N   UNL     1       0.059  -4.169  -0.023  0.00  0.00    -0.215 N 
ATOM     18  H   UNL     1      -0.469  -4.655   0.630  0.00  0.00    +0.174 HD
BRANCH  17  23
ATOM     19  C   UNL     1       0.671   1.451   0.442  0.00  0.00    +0.044 C 
ATOM     20  C   UNL     1       0.508  -0.042   0.319  0.00  0.00    -0.049 A 
ATOM     21  C   UNL     1       0.417  -0.625  -0.932  0.00  0.00    +0.005 A 
ATOM     22  C   UNL     1       0.268  -1.994  -1.049  0.00  0.00    +0.026 A 
ATOM     23  C   UNL     1       0.210  -2.784   0.092  0.00  0.00    +0.066 A 
ATOM     24  C   UNL     1       0.303  -2.195   1.347  0.00  0.00    +0.064 A 
ATOM     25  C   UNL     1       0.457  -0.826   1.456  0.00  0.00    +0.025 A 
ATOM     26 CL   UNL     1       0.231  -3.179   2.776  0.00  0.00    -0.082 Cl
ENDBRANCH  17  23
ENDBRANCH   1  17
TORSDOF 4
