REMARK  Name = ZINC43528093
REMARK  11 active torsions:
REMARK  status: ('A' for Active; 'I' for Inactive)
REMARK    1  A    between atoms: C_1  and  C_2
REMARK    2  A    between atoms: C_4  and  C_30
REMARK    3  A    between atoms: C_6  and  C_8
REMARK    4  A    between atoms: C_17  and  C_19
REMARK    5  A    between atoms: C_19  and  N_20
REMARK    6  A    between atoms: N_20  and  C_21
REMARK    7  A    between atoms: C_21  and  C_22
REMARK    8  A    between atoms: C_26  and  C_28
REMARK    9  A    between atoms: C_33  and  N_36
REMARK   10  A    between atoms: N_36  and  C_37
REMARK   11  A    between atoms: N_36  and  C_38
REMARK                            x       y       z     vdW  Elec       q    Type
REMARK                         _______ _______ _______ _____ _____    ______ ____
ROOT
ATOM      1  C   UNL     1       0.052  -2.698   2.512  0.00  0.00    +0.024 C 
ATOM      2  C   UNL     1      -0.752  -3.995   2.397  0.00  0.00    -0.069 C 
ATOM      3  N   UNL     1       0.108  -5.146   2.683  0.00  0.00    +0.381 N 
ATOM      4  C   UNL     1       1.205  -5.222   1.715  0.00  0.00    -0.078 C 
ATOM      5  C   UNL     1       2.074  -3.966   1.808  0.00  0.00    -0.015 C 
ATOM      6  C   UNL     1       1.498  -3.041   2.892  0.00  0.00    -0.007 C 
ATOM      7  C   UNL     1       1.480  -3.808   4.221  0.00  0.00    -0.013 C 
ATOM      8  C   UNL     1       0.630  -5.072   4.050  0.00  0.00    -0.086 C 
ATOM      9  H   UNL     1      -0.444  -5.986   2.596  0.00  0.00    -0.082 HD
ENDROOT
BRANCH   1  15
ATOM     10  C   UNL     1      -0.018   1.503   0.010  0.00  0.00    +0.088 C 
ATOM     11  C   UNL     1       0.002  -0.004   0.002  0.00  0.00    +0.127 A 
ATOM     12  N   UNL     1       0.005  -0.637  -1.153  0.00  0.00    -0.232 NA
ATOM     13  C   UNL     1       0.024  -1.968  -1.197  0.00  0.00    +0.075 A 
ATOM     14  C   UNL     1       0.039  -2.684   0.004  0.00  0.00    +0.052 A 
ATOM     15  C   UNL     1       0.035  -1.974   1.190  0.00  0.00    +0.047 A 
ATOM     16  N   UNL     1       0.022  -0.650   1.151  0.00  0.00    -0.237 NA
BRANCH  13  17
ATOM     17  C   UNL     1       0.026  -2.678  -2.498  0.00  0.00    +0.001 A 
ATOM     18  C   UNL     1       0.040  -4.073  -2.532  0.00  0.00    +0.012 A 
ATOM     19  C   UNL     1       0.042  -4.731  -3.743  0.00  0.00    +0.024 A 
ATOM     20  C   UNL     1       0.031  -4.006  -4.930  0.00  0.00    +0.029 A 
ATOM     21  C   UNL     1       0.018  -2.615  -4.898  0.00  0.00    +0.024 A 
ATOM     22  C   UNL     1       0.010  -1.953  -3.690  0.00  0.00    +0.012 A 
BRANCH  20  23
ATOM     23  N   UNL     1       0.034  -4.674  -6.153  0.00  0.00    -0.336 N 
ATOM     24  C   UNL     1       0.048  -6.138  -6.188  0.00  0.00    +0.129 C 
ATOM     25  C   UNL     1       0.022  -3.911  -7.404  0.00  0.00    +0.129 C 
ENDBRANCH  20  23
ENDBRANCH  13  17
ENDBRANCH   1  15
BRANCH   8  26
ATOM     26  C   UNL     1       1.489  -6.306   4.332  0.00  0.00    -0.098 C 
BRANCH  26  27
ATOM     27  N   UNL     1       0.706  -7.520   4.067  0.00  0.00    +0.381 N 
ATOM     28  H   UNL     1      -0.107  -7.533   4.665  0.00  0.00    -0.086 HD
ATOM     29  H   UNL     1       0.413  -7.527   3.101  0.00  0.00    -0.086 HD
BRANCH  27  30
ATOM     30  C   UNL     1       1.531  -8.704   4.338  0.00  0.00    -0.047 C 
BRANCH  30  31
ATOM     31  C   UNL     1       0.727  -9.950   4.066  0.00  0.00    -0.063 A 
ATOM     32  C   UNL     1      -0.024 -10.521   5.078  0.00  0.00    +0.002 A 
ATOM     33  C   UNL     1      -0.765 -11.664   4.838  0.00  0.00    +0.001 A 
ATOM     34  C   UNL     1      -0.760 -12.242   3.585  0.00  0.00    +0.019 A 
ATOM     35  C   UNL     1      -0.004 -11.671   2.559  0.00  0.00    +0.052 A 
ATOM     36  C   UNL     1       0.738 -10.515   2.808  0.00  0.00    +0.020 A 
BRANCH  35  37
ATOM     37  C   UNL     1       0.006 -12.267   1.257  0.00  0.00    +0.099 C 
ATOM     38  N   UNL     1       0.015 -12.739   0.224  0.00  0.00    -0.191 NA
ENDBRANCH  35  37
ENDBRANCH  30  31
ENDBRANCH  27  30
ENDBRANCH  26  27
ENDBRANCH   8  26
TORSDOF 8
