REMARK  Name = ZINC40555519
REMARK  4 active torsions:
REMARK  status: ('A' for Active; 'I' for Inactive)
REMARK    1  A    between atoms: C_10  and  N_11
REMARK    2  A    between atoms: C_14  and  C_17
REMARK    3  A    between atoms: C_17  and  O_18
REMARK    4  A    between atoms: O_18  and  C_19
REMARK                            x       y       z     vdW  Elec       q    Type
REMARK                         _______ _______ _______ _____ _____    ______ ____
ROOT
ATOM      1  N   UNL     1       4.335   1.613  -0.030  0.00  0.00    -0.313 N 
ATOM      2  C   UNL     1       3.801   2.979  -0.121  0.00  0.00    +0.107 C 
ATOM      3  C   UNL     1       4.357   3.805   1.043  0.00  0.00    +0.025 C 
ATOM      4  C   UNL     1       5.886   3.725   1.035  0.00  0.00    +0.018 C 
ATOM      5  C   UNL     1       6.324   2.271   1.221  0.00  0.00    +0.025 C 
ATOM      6  C   UNL     1       5.789   1.428   0.065  0.00  0.00    +0.107 C 
ENDROOT
BRANCH   1  16
ATOM      7  C   UNL     1       2.722  -0.842  -3.255  0.00  0.00    +0.199 A 
ATOM      8  N   UNL     1       3.394   0.103  -2.559  0.00  0.00    -0.340 N 
ATOM      9  H   UNL     1       3.967   0.793  -2.929  0.00  0.00    +0.167 HD
ATOM     10  C   UNL     1       3.112  -0.097  -1.224  0.00  0.00    +0.125 A 
ATOM     11  C   UNL     1       2.245  -1.202  -1.171  0.00  0.00    +0.183 A 
ATOM     12  N   UNL     1       2.049  -1.605  -2.440  0.00  0.00    -0.216 NA
ATOM     13  N   UNL     1       1.809  -1.617   0.023  0.00  0.00    -0.214 NA
ATOM     14  C   UNL     1       2.185  -1.003   1.123  0.00  0.00    +0.225 A 
ATOM     15  N   UNL     1       2.998   0.038   1.113  0.00  0.00    -0.219 NA
ATOM     16  C   UNL     1       3.482   0.521  -0.028  0.00  0.00    +0.150 A 
ENDBRANCH   1  16
BRANCH   4  17
ATOM     17  C   UNL     1       6.446   4.577   2.175  0.00  0.00    +0.163 C 
BRANCH  17  18
ATOM     18  O   UNL     1       7.873   4.597   2.098  0.00  0.00    -0.376 OA
BRANCH  18  19
ATOM     19  C   UNL     1       8.500   5.370   3.124  0.00  0.00    +0.118 C 
ATOM     20  C   UNL     1       8.733   6.812   2.631  0.00  0.00    +0.031 C 
ATOM     21  C   UNL     1      10.098   7.208   3.247  0.00  0.00    +0.003 C 
ATOM     22  C   UNL     1      10.914   5.896   3.143  0.00  0.00    +0.003 C 
ATOM     23  C   UNL     1       9.886   4.787   3.450  0.00  0.00    +0.031 C 
ENDBRANCH  18  19
ENDBRANCH  17  18
ENDBRANCH   4  17
TORSDOF 4
