REMARK  Name = ZINC12313399
REMARK  6 active torsions:
REMARK  status: ('A' for Active; 'I' for Inactive)
REMARK    1  A    between atoms: C_1  and  C_2
REMARK    2  A    between atoms: C_5  and  N_9
REMARK    3  A    between atoms: C_7  and  C_8
REMARK    4  A    between atoms: C_11  and  C_16
REMARK    5  A    between atoms: N_18  and  N_19
REMARK    6  A    between atoms: N_28  and  C_29
REMARK                            x       y       z     vdW  Elec       q    Type
REMARK                         _______ _______ _______ _____ _____    ______ ____
ROOT
ATOM      1  C   UNL     1      -5.539   2.719   1.170  0.00  0.00    +0.236 C 
ATOM      2  O   UNL     1      -4.977   3.076   2.184  0.00  0.00    -0.274 OA
ATOM      3  N   UNL     1      -4.830   2.526   0.039  0.00  0.00    -0.219 N 
ATOM      4  H   UNL     1      -5.279   2.241  -0.772  0.00  0.00    +0.176 HD
ENDROOT
BRANCH   3   5
ATOM      5  N   UNL     1      -3.446   2.739   0.036  0.00  0.00    -0.212 N 
ATOM      6  C   UNL     1      -2.956   4.004   0.038  0.00  0.00    +0.224 A 
ATOM      7  N   UNL     1      -1.683   4.272   0.043  0.00  0.00    -0.216 NA
ATOM      8  C   UNL     1      -0.755   3.303   0.033  0.00  0.00    +0.170 A 
ATOM      9  C   UNL     1      -1.166   1.961   0.026  0.00  0.00    +0.105 A 
ATOM     10  C   UNL     1      -2.602   1.680   0.029  0.00  0.00    +0.282 A 
ATOM     11  O   UNL     1      -3.022   0.537   0.027  0.00  0.00    -0.265 OA
ATOM     12  C   UNL     1      -0.004   1.167   0.019  0.00  0.00    +0.150 A 
ATOM     13  N   UNL     1       1.034   1.958   0.014  0.00  0.00    -0.172 NA
ATOM     14  N   UNL     1       0.606   3.292   0.022  0.00  0.00    -0.214 N 
BRANCH  14  15
ATOM     15  C   UNL     1       1.437   4.420   0.019  0.00  0.00    +0.069 A 
ATOM     16  C   UNL     1       2.647   4.395   0.699  0.00  0.00    +0.028 A 
ATOM     17  C   UNL     1       3.464   5.508   0.694  0.00  0.00    +0.003 A 
ATOM     18  C   UNL     1       3.078   6.648   0.013  0.00  0.00    +0.020 A 
ATOM     19  C   UNL     1       1.873   6.677  -0.666  0.00  0.00    +0.043 A 
ATOM     20  C   UNL     1       1.053   5.564  -0.668  0.00  0.00    +0.047 A 
ATOM     21 CL   UNL     1       1.393   8.110  -1.521  0.00  0.00    -0.083 Cl
ENDBRANCH  14  15
ENDBRANCH   3   5
BRANCH   1  24
ATOM     22  N   UNL     1      -7.632   1.476   3.261  0.00  0.00    -0.271 N 
ATOM     23  C   UNL     1      -7.627   2.771   2.570  0.00  0.00    +0.127 C 
ATOM     24  C   UNL     1      -7.028   2.491   1.174  0.00  0.00    +0.103 C 
ATOM     25  C   UNL     1      -7.359   0.992   0.984  0.00  0.00    +0.110 C 
ATOM     26  C   UNL     1      -7.488   0.459   2.394  0.00  0.00    +0.221 C 
ATOM     27  O   UNL     1      -7.467  -0.715   2.697  0.00  0.00    -0.275 OA
BRANCH  22  32
ATOM     28  C   UNL     1      -8.181   0.845   8.872  0.00  0.00    +0.044 C 
ATOM     29  C   UNL     1      -8.035   1.012   7.381  0.00  0.00    -0.047 A 
ATOM     30  C   UNL     1      -8.012  -0.101   6.561  0.00  0.00    +0.005 A 
ATOM     31  C   UNL     1      -7.885   0.050   5.194  0.00  0.00    +0.024 A 
ATOM     32  C   UNL     1      -7.767   1.321   4.645  0.00  0.00    +0.037 A 
ATOM     33  C   UNL     1      -7.790   2.436   5.472  0.00  0.00    +0.027 A 
ATOM     34  C   UNL     1      -7.924   2.279   6.837  0.00  0.00    -0.046 A 
ATOM     35  C   UNL     1      -7.949   3.489   7.735  0.00  0.00    +0.044 C 
ENDBRANCH  22  32
ENDBRANCH   1  24
TORSDOF 4
