REMARK  Name = ZINC40145260
REMARK  5 active torsions:
REMARK  status: ('A' for Active; 'I' for Inactive)
REMARK    1  A    between atoms: C_1  and  C_2
REMARK    2  A    between atoms: C_4  and  C_28
REMARK    3  A    between atoms: N_8  and  N_9
REMARK    4  A    between atoms: C_10  and  C_12
REMARK    5  A    between atoms: N_15  and  C_17
REMARK                            x       y       z     vdW  Elec       q    Type
REMARK                         _______ _______ _______ _____ _____    ______ ____
ROOT
ATOM      1  C   UNL     1       0.056  -1.863   5.996  0.00  0.00    +0.152 A 
ATOM      2  C   UNL     1       0.075  -2.405   7.298  0.00  0.00    +0.006 A 
ATOM      3  C   UNL     1       0.053  -1.348   8.140  0.00  0.00    +0.049 A 
ATOM      4  N   UNL     1       0.036  -0.229   7.375  0.00  0.00    -0.236 N 
ATOM      5  N   UNL     1       0.039  -0.549   6.129  0.00  0.00    -0.161 NA
ATOM      6  C   UNL     1       0.035  -1.429   9.644  0.00  0.00    +0.056 C 
ATOM      7  C   UNL     1       1.102  -2.426  10.107  0.00  0.00    +0.006 C 
ATOM      8  C   UNL     1       0.508  -3.830  10.163  0.00  0.00    +0.001 C 
ATOM      9  C   UNL     1      -0.536  -4.021   9.066  0.00  0.00    +0.005 C 
ATOM     10  C   UNL     1       0.122  -3.855   7.692  0.00  0.00    +0.039 C 
ENDROOT
BRANCH   4  11
ATOM     11  C   UNL     1       0.024   1.082   7.869  0.00  0.00    +0.066 A 
ATOM     12  C   UNL     1      -0.658   1.378   9.042  0.00  0.00    +0.028 A 
ATOM     13  C   UNL     1      -0.668   2.671   9.526  0.00  0.00    +0.002 A 
ATOM     14  C   UNL     1      -0.001   3.672   8.844  0.00  0.00    +0.000 A 
ATOM     15  C   UNL     1       0.679   3.381   7.675  0.00  0.00    +0.002 A 
ATOM     16  C   UNL     1       0.699   2.088   7.190  0.00  0.00    +0.028 A 
ENDBRANCH   4  11
BRANCH   1  18
ATOM     17  N   UNL     1       0.046  -1.962   3.551  0.00  0.00    -0.229 N 
ATOM     18  C   UNL     1       0.060  -2.619   4.728  0.00  0.00    +0.281 C 
ATOM     19  O   UNL     1       0.077  -3.835   4.745  0.00  0.00    -0.267 OA
ATOM     20  H   UNL     1       0.033  -0.992   3.538  0.00  0.00    +0.173 HD
BRANCH  17  28
ATOM     21  C   UNL     1      -0.018   1.503   0.010  0.00  0.00    +0.066 C 
ATOM     22  C   UNL     1       0.002  -0.004   0.002  0.00  0.00    +0.044 A 
ATOM     23  C   UNL     1       0.006  -0.699  -1.197  0.00  0.00    +0.046 A 
ATOM     24  C   UNL     1       0.025  -2.084  -1.160  0.00  0.00    +0.044 A 
ATOM     25  N   UNL     1       0.040  -2.698   0.011  0.00  0.00    -0.219 NA
ATOM     26  C   UNL     1       0.035  -2.004   1.140  0.00  0.00    +0.232 A 
ATOM     27  N   UNL     1       0.022  -0.679   1.139  0.00  0.00    -0.219 NA
ATOM     28  N   UNL     1       0.050  -2.679   2.348  0.00  0.00    -0.232 N 
ATOM     29  C   UNL     1       0.030  -2.881  -2.439  0.00  0.00    +0.066 C 
ATOM     30  H   UNL     1       0.063  -3.649   2.362  0.00  0.00    +0.173 HD
ENDBRANCH  17  28
ENDBRANCH   1  18
TORSDOF 3
