REMARK  Name = ZINC39125168
REMARK  16 active torsions:
REMARK  status: ('A' for Active; 'I' for Inactive)
REMARK    1  A    between atoms: C_1  and  C_2
REMARK    2  A    between atoms: C_2  and  C_3
REMARK    3  A    between atoms: C_3  and  N_4
REMARK    4  A    between atoms: N_4  and  C_5
REMARK    5  A    between atoms: C_6  and  N_22
REMARK    6  A    between atoms: N_9  and  C_21
REMARK    7  A    between atoms: N_12  and  C_13
REMARK    8  A    between atoms: C_17  and  C_20
REMARK    9  A    between atoms: C_18  and  C_19
REMARK   10  A    between atoms: C_23  and  C_25
REMARK   11  A    between atoms: C_25  and  O_26
REMARK   12  A    between atoms: O_26  and  C_27
REMARK   13  A    between atoms: C_29  and  C_36
REMARK   14  A    between atoms: C_30  and  N_35
REMARK   15  A    between atoms: C_31  and  C_34
REMARK   16  A    between atoms: C_32  and  C_33
REMARK                            x       y       z     vdW  Elec       q    Type
REMARK                         _______ _______ _______ _____ _____    ______ ____
ROOT
ATOM      1  C   UNL     1       1.362  -2.505  -2.277  0.00  0.00    +0.134 A 
ATOM      2  C   UNL     1       1.315  -3.880  -2.179  0.00  0.00    +0.138 A 
ATOM      3  C   UNL     1       1.990  -4.653  -3.143  0.00  0.00    +0.280 A 
ATOM      4  O   UNL     1       1.965  -5.871  -3.080  0.00  0.00    -0.265 OA
ATOM      5  N   UNL     1       2.664  -4.040  -4.135  0.00  0.00    -0.262 N 
ATOM      6  C   UNL     1       2.699  -2.698  -4.215  0.00  0.00    +0.338 A 
ATOM      7  O   UNL     1       3.315  -2.170  -5.121  0.00  0.00    -0.246 OA
ATOM      8  N   UNL     1       2.060  -1.929  -3.315  0.00  0.00    -0.248 N 
ATOM      9  C   UNL     1       3.367  -4.844  -5.138  0.00  0.00    +0.157 C 
ENDROOT
BRANCH   8  10
ATOM     10  C   UNL     1       2.111  -0.533  -3.430  0.00  0.00    +0.056 A 
ATOM     11  C   UNL     1       3.076   0.188  -2.739  0.00  0.00    +0.026 A 
ATOM     12  C   UNL     1       3.124   1.563  -2.855  0.00  0.00    +0.002 A 
ATOM     13  C   UNL     1       2.211   2.222  -3.659  0.00  0.00    +0.004 A 
ATOM     14  C   UNL     1       1.249   1.508  -4.348  0.00  0.00    -0.046 A 
ATOM     15  C   UNL     1       1.200   0.131  -4.240  0.00  0.00    -0.024 A 
ATOM     16  C   UNL     1       0.155  -0.647  -4.997  0.00  0.00    +0.046 C 
ATOM     17  C   UNL     1       0.257   2.230  -5.222  0.00  0.00    +0.044 C 
ENDBRANCH   8  10
BRANCH   2  18
ATOM     18  N   UNL     1       0.603  -4.501  -1.131  0.00  0.00    -0.276 N 
ATOM     19  C   UNL     1       1.255  -5.277  -0.240  0.00  0.00    +0.255 C 
ATOM     20  O   UNL     1       2.464  -5.371  -0.287  0.00  0.00    -0.272 OA
ATOM     21  H   UNL     1      -0.354  -4.370  -1.051  0.00  0.00    +0.155 HD
BRANCH  19  22
ATOM     22  C   UNL     1       0.482  -6.025   0.815  0.00  0.00    +0.324 C 
BRANCH  22  23
ATOM     23  O   UNL     1       1.388  -6.770   1.631  0.00  0.00    -0.482 OA
BRANCH  23  24
ATOM     24  C   UNL     1       0.848  -7.507   2.639  0.00  0.00    +0.125 A 
ATOM     25  C   UNL     1      -0.526  -7.517   2.831  0.00  0.00    +0.051 A 
ATOM     26  C   UNL     1      -1.075  -8.265   3.854  0.00  0.00    -0.026 A 
ATOM     27  C   UNL     1      -0.251  -9.008   4.690  0.00  0.00    +0.031 A 
ATOM     28  C   UNL     1       1.124  -8.998   4.496  0.00  0.00    -0.023 A 
ATOM     29  C   UNL     1       1.671  -8.254   3.469  0.00  0.00    -0.004 A 
ATOM     30  C   UNL     1       3.162  -8.247   3.254  0.00  0.00    +0.048 C 
ATOM     31  C   UNL     1       2.019  -9.804   5.402  0.00  0.00    +0.046 C 
ATOM     32  C   UNL     1      -2.567  -8.274   4.064  0.00  0.00    +0.046 C 
BRANCH  27  33
ATOM     33  N   UNL     1      -0.806  -9.766   5.727  0.00  0.00    -0.358 N 
ATOM     34  H   UNL     1      -1.767  -9.772   5.862  0.00  0.00    +0.142 HD
ATOM     35  H   UNL     1      -0.231 -10.285   6.310  0.00  0.00    +0.142 HD
ENDBRANCH  27  33
ENDBRANCH  23  24
ENDBRANCH  22  23
ENDBRANCH  19  22
ENDBRANCH   2  18
BRANCH   1  36
ATOM     36  N   UNL     1       0.714  -1.719  -1.354  0.00  0.00    -0.328 N 
ATOM     37  H   UNL     1       0.687  -0.756  -1.470  0.00  0.00    +0.147 HD
BRANCH  36  38
ATOM     38  C   UNL     1       0.065  -2.336  -0.194  0.00  0.00    +0.102 C 
BRANCH  38  40
ATOM     39  C   UNL     1      -1.107  -1.886   1.966  0.00  0.00    +0.005 C 
ATOM     40  C   UNL     1      -0.429  -1.242   0.755  0.00  0.00    +0.015 C 
ENDBRANCH  38  40
ENDBRANCH  36  38
ENDBRANCH   1  36
TORSDOF 9
