REMARK  Name = ZINC01702871
REMARK  3 active torsions:
REMARK  status: ('A' for Active; 'I' for Inactive)
REMARK    1  A    between atoms: C_4  and  O_15
REMARK    2  A    between atoms: C_5  and  C_7
REMARK    3  A    between atoms: C_8  and  C_9
REMARK                            x       y       z     vdW  Elec       q    Type
REMARK                         _______ _______ _______ _____ _____    ______ ____
ROOT
ATOM      1  C   UNL     1       1.179   1.780   0.000  0.00  0.00    +0.001 A 
ATOM      2  C   UNL     1      -0.013   1.076   0.008  0.00  0.00    +0.004 A 
ATOM      3  C   UNL     1      -1.221   1.747   0.017  0.00  0.00    +0.046 A 
ATOM      4  C   UNL     1      -1.246   3.132   0.030  0.00  0.00    +0.124 A 
ATOM      5  C   UNL     1      -0.043   3.848   0.022  0.00  0.00    +0.016 A 
ATOM      6  C   UNL     1       1.171   3.160   0.007  0.00  0.00    +0.011 A 
ENDROOT
BRANCH   5   7
ATOM      7  C   UNL     1      -0.058   5.326   0.029  0.00  0.00    +0.010 C 
ATOM      8  C   UNL     1       1.083   6.001   0.022  0.00  0.00    +0.005 C 
BRANCH   8   9
ATOM      9  C   UNL     1       1.067   7.508   0.029  0.00  0.00    +0.141 C 
ATOM     10  C   UNL     1       1.897   8.034   1.219  0.00  0.00    +0.038 C 
ATOM     11  C   UNL     1       1.050   9.243   1.703  0.00  0.00    +0.031 C 
ATOM     12  C   UNL     1      -0.384   8.730   1.415  0.00  0.00    +0.160 C 
ATOM     13  O   UNL     1      -0.275   7.979   0.195  0.00  0.00    -0.373 OA
ENDBRANCH   8   9
ENDBRANCH   5   7
BRANCH   4  14
ATOM     14  O   UNL     1      -2.433   3.792   0.044  0.00  0.00    -0.506 OA
ATOM     15  H   UNL     1      -2.784   3.988  -0.835  0.00  0.00    +0.292 HD
ENDBRANCH   4  14
TORSDOF 3
