REMARK  Name = ZINC05555332
REMARK  7 active torsions:
REMARK  status: ('A' for Active; 'I' for Inactive)
REMARK    1  A    between atoms: C_1  and  O_2
REMARK    2  A    between atoms: O_2  and  C_3
REMARK    3  A    between atoms: C_6  and  C_11
REMARK    4  A    between atoms: C_7  and  O_9
REMARK    5  A    between atoms: O_9  and  C_10
REMARK    6  A    between atoms: N_17  and  C_18
REMARK    7  A    between atoms: C_21  and  O_24
REMARK                            x       y       z     vdW  Elec       q    Type
REMARK                         _______ _______ _______ _____ _____    ______ ____
ROOT
ATOM      1  C   UNL     1       2.574  -2.523   4.291  0.00  0.00    +0.032 C 
ATOM      2  C   UNL     1       3.225  -1.780   5.223  0.00  0.00    +0.078 C 
ATOM      3  C   UNL     1       3.296  -0.315   5.367  0.00  0.00    +0.256 C 
ATOM      4  O   UNL     1       2.724   0.429   4.591  0.00  0.00    -0.269 OA
ATOM      5  N   UNL     1       4.007   0.156   6.378  0.00  0.00    -0.260 N 
ATOM      6  C   UNL     1       4.647  -0.703   7.246  0.00  0.00    +0.166 C 
ATOM      7  N   UNL     1       5.387  -0.407   8.291  0.00  0.00    -0.226 NA
ATOM      8  S   UNL     1       4.219  -2.315   6.609  0.00  0.00    -0.049 S 
ATOM      9  H   UNL     1       4.080   1.114   6.508  0.00  0.00    +0.157 HD
ENDROOT
BRANCH   1  13
ATOM     10  C   UNL     1       0.771  -0.632   0.949  0.00  0.00    +0.124 A 
ATOM     11  C   UNL     1       2.025  -0.220   1.390  0.00  0.00    +0.046 A 
ATOM     12  C   UNL     1       2.614  -0.829   2.473  0.00  0.00    +0.015 A 
ATOM     13  C   UNL     1       1.951  -1.870   3.136  0.00  0.00    +0.018 A 
ATOM     14  C   UNL     1       0.684  -2.284   2.689  0.00  0.00    +0.131 A 
ATOM     15  C   UNL     1       0.102  -1.658   1.601  0.00  0.00    +0.091 A 
BRANCH  10  17
ATOM     16  C   UNL     1       0.939   1.024  -0.746  0.00  0.00    +0.277 C 
ATOM     17  O   UNL     1       0.197  -0.024  -0.120  0.00  0.00    -0.495 OA
ENDBRANCH  10  17
BRANCH  14  18
ATOM     18  O   UNL     1       0.033  -3.291   3.324  0.00  0.00    -0.494 OA
ATOM     19  C   UNL     1      -1.250  -3.659   2.814  0.00  0.00    +0.277 C 
ENDBRANCH  14  18
ENDBRANCH   1  13
BRANCH   7  20
ATOM     20  C   UNL     1       5.944  -1.408   9.041  0.00  0.00    +0.067 A 
ATOM     21  C   UNL     1       5.182  -2.521   9.401  0.00  0.00    +0.031 A 
ATOM     22  C   UNL     1       5.748  -3.527  10.156  0.00  0.00    +0.047 A 
ATOM     23  C   UNL     1       7.073  -3.435  10.557  0.00  0.00    +0.117 A 
ATOM     24  C   UNL     1       7.835  -2.331  10.201  0.00  0.00    +0.047 A 
ATOM     25  C   UNL     1       7.279  -1.322   9.442  0.00  0.00    +0.031 A 
BRANCH  23  26
ATOM     26  O   UNL     1       7.627  -4.429  11.301  0.00  0.00    -0.507 OA
ATOM     27  H   UNL     1       8.040  -5.130  10.777  0.00  0.00    +0.292 HD
ENDBRANCH  23  26
ENDBRANCH   7  20
TORSDOF 5
