REMARK  Name = ZINC17248158
REMARK  7 active torsions:
REMARK  status: ('A' for Active; 'I' for Inactive)
REMARK    1  A    between atoms: C_1  and  C_2
REMARK    2  A    between atoms: C_8  and  C_27
REMARK    3  A    between atoms: N_14  and  C_15
REMARK    4  A    between atoms: C_15  and  N_17
REMARK    5  A    between atoms: N_17  and  C_18
REMARK    6  A    between atoms: C_21  and  C_25
REMARK    7  A    between atoms: C_22  and  C_24
REMARK                            x       y       z     vdW  Elec       q    Type
REMARK                         _______ _______ _______ _____ _____    ______ ____
ROOT
ATOM      1  C   UNL     1       1.244   1.609   1.141  0.00  0.00    +0.044 C 
ATOM      2  C   UNL     1       1.176   0.113   0.972  0.00  0.00    -0.050 A 
ATOM      3  C   UNL     1       0.882  -0.423  -0.280  0.00  0.00    +0.005 A 
ATOM      4  C   UNL     1       0.812  -1.771  -0.468  0.00  0.00    +0.029 A 
ATOM      5  C   UNL     1       1.039  -2.634   0.614  0.00  0.00    +0.077 A 
ATOM      6  C   UNL     1       1.339  -2.087   1.888  0.00  0.00    +0.022 A 
ATOM      7  C   UNL     1       1.408  -0.695   2.044  0.00  0.00    +0.015 A 
ATOM      8  C   UNL     1       1.565  -2.970   2.959  0.00  0.00    +0.051 A 
ATOM      9  N   UNL     1       1.487  -4.265   2.732  0.00  0.00    -0.217 NA
ATOM     10  C   UNL     1       1.203  -4.744   1.523  0.00  0.00    +0.231 A 
ATOM     11  N   UNL     1       1.136  -6.119   1.351  0.00  0.00    -0.297 N 
ATOM     12  C   UNL     1       0.844  -6.645   0.111  0.00  0.00    +0.194 C 
ATOM     13  N   UNL     1       0.632  -5.851  -0.899  0.00  0.00    -0.270 NA
ATOM     14  N   UNL     1       0.778  -8.012  -0.060  0.00  0.00    -0.268 N 
ATOM     15  N   UNL     1       0.983  -3.965   0.482  0.00  0.00    -0.212 NA
ATOM     16  C   UNL     1       1.888  -2.447   4.335  0.00  0.00    +0.066 C 
ATOM     17  H   UNL     1       0.501  -8.581   0.676  0.00  0.00    +0.157 HD
ATOM     18  H   UNL     1       0.315  -6.213  -1.741  0.00  0.00    +0.190 HD
ATOM     19  H   UNL     1       1.295  -6.710   2.103  0.00  0.00    +0.171 HD
ENDROOT
BRANCH  14  20
ATOM     20  C   UNL     1       1.097  -8.559  -1.250  0.00  0.00    +0.141 C 
ATOM     21  S   UNL     1       1.737  -7.578  -2.499  0.00  0.00    -0.018 S 
BRANCH  20  22
ATOM     22  N   UNL     1       0.912  -9.878  -1.457  0.00  0.00    -0.297 N 
ATOM     23  H   UNL     1       0.607 -10.445  -0.731  0.00  0.00    +0.154 HD
BRANCH  22  24
ATOM     24  C   UNL     1       1.160 -10.430  -2.718  0.00  0.00    +0.033 A 
ATOM     25  C   UNL     1       2.315 -10.091  -3.411  0.00  0.00    +0.023 A 
ATOM     26  C   UNL     1       2.557 -10.637  -4.656  0.00  0.00    +0.005 A 
ATOM     27  C   UNL     1       1.649 -11.520  -5.214  0.00  0.00    -0.047 A 
ATOM     28  C   UNL     1       0.498 -11.858  -4.527  0.00  0.00    -0.046 A 
ATOM     29  C   UNL     1       0.254 -11.320  -3.278  0.00  0.00    +0.027 A 
ATOM     30  C   UNL     1      -0.488 -12.820  -5.138  0.00  0.00    +0.044 C 
ATOM     31  C   UNL     1       1.915 -12.113  -6.573  0.00  0.00    +0.044 C 
ENDBRANCH  22  24
ENDBRANCH  20  22
ENDBRANCH  14  20
TORSDOF 3
