REMARK  Name = ZINC39438006
REMARK  7 active torsions:
REMARK  status: ('A' for Active; 'I' for Inactive)
REMARK    1  A    between atoms: C_4  and  C_7
REMARK    2  A    between atoms: C_11  and  C_13
REMARK    3  A    between atoms: C_13  and  N_14
REMARK    4  A    between atoms: C_15  and  C_17
REMARK    5  A    between atoms: C_17  and  C_18
REMARK    6  A    between atoms: N_25  and  C_26
REMARK    7  A    between atoms: C_26  and  C_27
REMARK                            x       y       z     vdW  Elec       q    Type
REMARK                         _______ _______ _______ _____ _____    ______ ____
ROOT
ATOM      1  C   UNL     1       3.069  -6.517   2.020  0.00  0.00    +0.124 C 
ENDROOT
BRANCH   1   2
ATOM      2  C   UNL     1       2.615  -7.163   3.330  0.00  0.00    +0.152 C 
ATOM      3  C   UNL     1       3.308  -6.494   4.483  0.00  0.00    +0.231 C 
ATOM      4  O   UNL     1       4.490  -6.238   4.381  0.00  0.00    -0.274 OA
ATOM      5  N   UNL     1       2.678  -6.168   5.616  0.00  0.00    -0.313 N 
ATOM      6  C   UNL     1       1.251  -6.399   5.825  0.00  0.00    +0.119 C 
ATOM      7  C   UNL     1       0.732  -7.424   4.815  0.00  0.00    +0.104 C 
ATOM      8  N   UNL     1       1.160  -7.014   3.468  0.00  0.00    -0.285 NA
ATOM      9  H   UNL     1       3.191  -5.761   6.331  0.00  0.00    +0.149 HD
BRANCH   8  10
ATOM     10  C   UNL     1       0.452  -7.784   2.436  0.00  0.00    +0.120 C 
BRANCH  10  11
ATOM     11  C   UNL     1      -0.978  -7.315   2.352  0.00  0.00    -0.031 A 
ATOM     12  C   UNL     1      -1.947  -7.908   3.139  0.00  0.00    +0.005 A 
ATOM     13  C   UNL     1      -3.259  -7.479   3.063  0.00  0.00    +0.003 A 
ATOM     14  C   UNL     1      -3.603  -6.457   2.199  0.00  0.00    +0.038 A 
ATOM     15  C   UNL     1      -2.633  -5.862   1.410  0.00  0.00    +0.124 A 
ATOM     16  C   UNL     1      -1.319  -6.289   1.492  0.00  0.00    +0.043 A 
ATOM     17  F   UNL     1      -2.969  -4.864   0.564  0.00  0.00    -0.205 F 
ENDBRANCH  10  11
ENDBRANCH   8  10
ENDBRANCH   1   2
BRANCH   1  19
ATOM     18  N   UNL     1       3.059  -4.263   1.000  0.00  0.00    -0.314 N 
ATOM     19  C   UNL     1       2.665  -5.065   2.009  0.00  0.00    +0.215 C 
ATOM     20  O   UNL     1       1.984  -4.618   2.907  0.00  0.00    -0.276 OA
ATOM     21  H   UNL     1       3.604  -4.621   0.281  0.00  0.00    +0.149 HD
BRANCH  18  22
ATOM     22  C   UNL     1       2.666  -2.852   0.989  0.00  0.00    +0.119 C 
BRANCH  22  27
ATOM     23  C   UNL     1       2.748  -0.742  -0.358  0.00  0.00    +0.080 C 
ATOM     24  N   UNL     1       3.815   0.006  -0.295  0.00  0.00    -0.153 NA
ATOM     25  N   UNL     1       4.978  -0.747  -0.167  0.00  0.00    -0.161 NA
ATOM     26  C   UNL     1       4.743  -2.019  -0.138  0.00  0.00    +0.119 C 
ATOM     27  C   UNL     1       3.240  -2.172  -0.256  0.00  0.00    +0.100 C 
BRANCH  23  31
ATOM     28  C   UNL     1      -1.269   0.560  -0.753  0.00  0.00    +0.000 A 
ATOM     29  C   UNL     1      -0.245   1.491  -0.706  0.00  0.00    +0.001 A 
ATOM     30  C   UNL     1       1.063   1.075  -0.578  0.00  0.00    +0.010 A 
ATOM     31  C   UNL     1       1.354  -0.290  -0.495  0.00  0.00    -0.001 A 
ATOM     32  C   UNL     1       0.314  -1.224  -0.543  0.00  0.00    +0.010 A 
ATOM     33  C   UNL     1      -0.989  -0.792  -0.671  0.00  0.00    +0.001 A 
ENDBRANCH  23  31
ENDBRANCH  22  27
ENDBRANCH  18  22
ENDBRANCH   1  19
TORSDOF 7
