REMARK  Name = ZINC63573217
REMARK  6 active torsions:
REMARK  status: ('A' for Active; 'I' for Inactive)
REMARK    1  A    between atoms: C_1  and  C_2
REMARK    2  A    between atoms: C_2  and  C_3
REMARK    3  A    between atoms: C_8  and  N_9
REMARK    4  A    between atoms: C_18  and  O_34
REMARK    5  A    between atoms: C_25  and  C_27
REMARK    6  A    between atoms: O_34  and  C_35
REMARK                            x       y       z     vdW  Elec       q    Type
REMARK                         _______ _______ _______ _____ _____    ______ ____
ROOT
ATOM      1  N   UNL     1      -2.123   1.397  -2.807  0.00  0.00    -0.269 N 
ATOM      2  C   UNL     1      -2.546   0.583  -3.795  0.00  0.00    +0.307 C 
ATOM      3  O   UNL     1      -3.642   0.062  -3.726  0.00  0.00    -0.252 OA
ATOM      4  N   UNL     1      -1.753   0.347  -4.859  0.00  0.00    -0.276 N 
ATOM      5  C   UNL     1      -0.385   0.876  -4.876  0.00  0.00    +0.114 C 
ATOM      6  C   UNL     1       0.611  -0.285  -5.053  0.00  0.00    +0.052 C 
ATOM      7  C   UNL     1       0.066  -1.159  -6.155  0.00  0.00    -0.035 C 
ATOM      8  C   UNL     1       0.626  -1.622  -7.265  0.00  0.00    +0.003 A 
ATOM      9  C   UNL     1       2.004  -1.549  -7.776  0.00  0.00    +0.055 A 
ATOM     10  C   UNL     1       2.238  -2.127  -8.986  0.00  0.00    +0.121 A 
ATOM     11  C   UNL     1       1.255  -2.772  -9.751  0.00  0.00    +0.047 A 
ATOM     12  C   UNL     1      -0.042  -2.903  -9.373  0.00  0.00    +0.029 A 
ATOM     13  C   UNL     1      -0.417  -2.326  -8.075  0.00  0.00    +0.043 A 
ATOM     14  N   UNL     1      -1.557  -2.318  -7.453  0.00  0.00    -0.375 N 
ATOM     15  C   UNL     1      -1.370  -1.669  -6.155  0.00  0.00    +0.131 C 
ATOM     16  C   UNL     1      -2.267  -0.444  -5.988  0.00  0.00    +0.134 C 
ATOM     17  H   UNL     1      -1.281   1.870  -2.895  0.00  0.00    +0.156 HD
ATOM     18  H   UNL     1      -2.391  -2.680  -7.792  0.00  0.00    +0.160 HD
ENDROOT
BRANCH  16  19
ATOM     19  C   UNL     1      -3.679  -0.884  -5.702  0.00  0.00    -0.025 A 
ATOM     20  C   UNL     1      -3.917  -1.893  -4.787  0.00  0.00    +0.008 A 
ATOM     21  C   UNL     1      -5.212  -2.297  -4.523  0.00  0.00    +0.038 A 
ATOM     22  C   UNL     1      -6.272  -1.691  -5.176  0.00  0.00    +0.123 A 
ATOM     23  C   UNL     1      -6.033  -0.681  -6.092  0.00  0.00    +0.038 A 
ATOM     24  C   UNL     1      -4.737  -0.275  -6.350  0.00  0.00    +0.008 A 
ATOM     25  F   UNL     1      -7.538  -2.086  -4.919  0.00  0.00    -0.205 F 
ENDBRANCH  16  19
BRANCH   1  31
ATOM     26  C   UNL     1      -2.292   1.847  -0.440  0.00  0.00    -0.026 A 
ATOM     27  C   UNL     1      -3.062   2.014   0.694  0.00  0.00    +0.005 A 
ATOM     28  C   UNL     1      -4.437   1.891   0.622  0.00  0.00    +0.000 A 
ATOM     29  C   UNL     1      -5.046   1.600  -0.585  0.00  0.00    +0.002 A 
ATOM     30  C   UNL     1      -4.282   1.432  -1.723  0.00  0.00    +0.023 A 
ATOM     31  C   UNL     1      -2.900   1.561  -1.655  0.00  0.00    +0.038 A 
BRANCH  26  33
ATOM     32  C   UNL     1      -0.388   3.409  -0.732  0.00  0.00    +0.009 C 
ATOM     33  C   UNL     1      -0.793   1.981  -0.361  0.00  0.00    +0.033 C 
ENDBRANCH  26  33
ENDBRANCH   1  31
BRANCH  10  34
ATOM     34  O   UNL     1       3.502  -2.075  -9.484  0.00  0.00    -0.495 OA
ATOM     35  C   UNL     1       3.724  -2.688 -10.755  0.00  0.00    +0.277 C 
ENDBRANCH  10  34
TORSDOF 4
