REMARK  Name = ZINC32088142
REMARK  6 active torsions:
REMARK  status: ('A' for Active; 'I' for Inactive)
REMARK    1  A    between atoms: C_4  and  C_7
REMARK    2  A    between atoms: C_7  and  C_8
REMARK    3  A    between atoms: C_8  and  O_9
REMARK    4  A    between atoms: O_9  and  C_10
REMARK    5  A    between atoms: C_15  and  C_16
REMARK    6  A    between atoms: C_19  and  O_27
REMARK                            x       y       z     vdW  Elec       q    Type
REMARK                         _______ _______ _______ _____ _____    ______ ____
ROOT
ATOM      1  C   UNL     1       5.970  -1.968   2.586  0.00  0.00    +0.124 A 
ATOM      2  C   UNL     1       5.320  -1.611   3.759  0.00  0.00    +0.046 A 
ATOM      3  C   UNL     1       5.882  -1.924   4.981  0.00  0.00    +0.004 A 
ATOM      4  C   UNL     1       7.091  -2.594   5.036  0.00  0.00    +0.001 A 
ATOM      5  C   UNL     1       7.740  -2.951   3.869  0.00  0.00    +0.008 A 
ATOM      6  C   UNL     1       7.179  -2.645   2.644  0.00  0.00    +0.003 A 
ENDROOT
BRANCH   6   7
ATOM      7  C   UNL     1       7.884  -3.039   1.372  0.00  0.00    +0.072 C 
ATOM      8  C   UNL     1       8.071  -4.565   1.330  0.00  0.00    +0.109 C 
ATOM      9  C   UNL     1       9.238  -4.977   2.180  0.00  0.00    +0.190 C 
ATOM     10  N   UNL     1      10.297  -4.264   2.369  0.00  0.00    -0.197 NA
ATOM     11  C   UNL     1      10.394  -2.997   1.804  0.00  0.00    +0.169 A 
ATOM     12  C   UNL     1       9.238  -2.421   1.331  0.00  0.00    +0.045 A 
ATOM     13  S   UNL     1       9.796  -0.860   0.715  0.00  0.00    -0.055 S 
ATOM     14  C   UNL     1      11.520  -1.066   1.150  0.00  0.00    +0.158 A 
ATOM     15  N   UNL     1      11.514  -2.272   1.700  0.00  0.00    -0.206 NA
ATOM     16  N   UNL     1      12.581  -0.195   0.962  0.00  0.00    -0.337 N 
ATOM     17  H   UNL     1      12.433   0.665   0.539  0.00  0.00    +0.144 HD
ATOM     18  H   UNL     1      13.472  -0.446   1.252  0.00  0.00    +0.144 HD
BRANCH   9  19
ATOM     19  O   UNL     1       9.174  -6.179   2.792  0.00  0.00    -0.495 OA
ATOM     20  H   UNL     1       9.952  -6.391   3.325  0.00  0.00    +0.293 HD
ENDBRANCH   9  19
ENDBRANCH   6   7
BRANCH   1  21
ATOM     21  O   UNL     1       5.418  -1.661   1.382  0.00  0.00    -0.491 OA
BRANCH  21  22
ATOM     22  C   UNL     1       4.171  -0.963   1.399  0.00  0.00    +0.233 C 
BRANCH  22  23
ATOM     23  C   UNL     1       3.711  -0.707  -0.038  0.00  0.00    +0.076 C 
BRANCH  23  27
ATOM     24  C   UNL     1      -0.017   1.378   0.010  0.00  0.00    +0.000 A 
ATOM     25  C   UNL     1       1.171   2.086   0.002  0.00  0.00    +0.000 A 
ATOM     26  C   UNL     1       2.377   1.411  -0.013  0.00  0.00    +0.004 A 
ATOM     27  C   UNL     1       2.396   0.029  -0.020  0.00  0.00    -0.044 A 
ATOM     28  C   UNL     1       1.208  -0.679  -0.012  0.00  0.00    +0.004 A 
ATOM     29  C   UNL     1       0.002  -0.004   0.002  0.00  0.00    +0.000 A 
ENDBRANCH  23  27
ENDBRANCH  22  23
ENDBRANCH  21  22
ENDBRANCH   1  21
TORSDOF 6
