REMARK  Name = ZINC40568307
REMARK  5 active torsions:
REMARK  status: ('A' for Active; 'I' for Inactive)
REMARK    1  A    between atoms: C_1  and  C_2
REMARK    2  A    between atoms: C_5  and  C_8
REMARK    3  A    between atoms: C_8  and  C_10
REMARK    4  A    between atoms: C_11  and  N_28
REMARK    5  A    between atoms: C_15  and  C_19
REMARK                            x       y       z     vdW  Elec       q    Type
REMARK                         _______ _______ _______ _____ _____    ______ ____
ROOT
ATOM      1  C   UNL     1       0.547  -5.006   1.482  0.00  0.00    +0.083 A 
ATOM      2  C   UNL     1       0.360  -6.375   1.409  0.00  0.00    +0.052 A 
ATOM      3  C   UNL     1       0.320  -7.130   2.649  0.00  0.00    +0.032 A 
ATOM      4  C   UNL     1       0.141  -8.534   2.819  0.00  0.00    -0.031 A 
ATOM      5  C   UNL     1       0.139  -9.058   4.067  0.00  0.00    -0.017 A 
ATOM      6  C   UNL     1       0.300  -8.211   5.182  0.00  0.00    +0.082 A 
ATOM      7  N   UNL     1       0.464  -6.904   5.022  0.00  0.00    -0.239 NA
ATOM      8  C   UNL     1       0.480  -6.364   3.825  0.00  0.00    +0.112 A 
ATOM      9  S   UNL     1       0.682  -4.702   3.232  0.00  0.00    -0.064 S 
ATOM     10  C   UNL     1      -0.023 -10.533   4.327  0.00  0.00    +0.037 C 
ATOM     11  C   UNL     1      -0.613 -11.233   3.105  0.00  0.00    +0.005 C 
ATOM     12  C   UNL     1       0.214 -10.839   1.875  0.00  0.00    +0.005 C 
ATOM     13  C   UNL     1      -0.043  -9.363   1.577  0.00  0.00    +0.036 C 
ENDROOT
BRANCH   6  14
ATOM     14  C   UNL     1       0.286  -8.784   6.541  0.00  0.00    +0.038 A 
ATOM     15  C   UNL     1      -0.325  -8.308   7.673  0.00  0.00    +0.017 A 
ATOM     16  C   UNL     1      -0.199  -9.022   8.842  0.00  0.00    +0.008 A 
ATOM     17  C   UNL     1       0.525 -10.172   8.841  0.00  0.00    +0.046 A 
ATOM     18  S   UNL     1       1.052 -10.281   7.139  0.00  0.00    -0.095 S 
ENDBRANCH   6  14
BRANCH   2  19
ATOM     19  N   UNL     1       0.214  -7.009   0.185  0.00  0.00    -0.356 N 
ATOM     20  H   UNL     1       0.626  -6.632  -0.609  0.00  0.00    +0.142 HD
ATOM     21  H   UNL     1      -0.301  -7.828   0.121  0.00  0.00    +0.142 HD
ENDBRANCH   2  19
BRANCH   1  22
ATOM     22  C   UNL     1       0.619  -4.074   0.422  0.00  0.00    +0.202 C 
ATOM     23  O   UNL     1       0.390  -4.431  -0.720  0.00  0.00    -0.286 OA
BRANCH  22  28
ATOM     24  C   UNL     1       1.995   1.409   1.504  0.00  0.00    +0.044 C 
ATOM     25  C   UNL     1       1.635  -0.026   1.221  0.00  0.00    -0.050 A 
ATOM     26  C   UNL     1       0.912  -0.344   0.084  0.00  0.00    +0.004 A 
ATOM     27  C   UNL     1       0.580  -1.656  -0.181  0.00  0.00    +0.012 A 
ATOM     28  C   UNL     1       0.973  -2.665   0.700  0.00  0.00    +0.023 A 
ATOM     29  C   UNL     1       1.702  -2.337   1.845  0.00  0.00    +0.012 A 
ATOM     30  C   UNL     1       2.033  -1.022   2.096  0.00  0.00    +0.004 A 
ENDBRANCH  22  28
ENDBRANCH   1  22
TORSDOF 4
