REMARK  Name = ZINC49569811
REMARK  2 active torsions:
REMARK  status: ('A' for Active; 'I' for Inactive)
REMARK    1  A    between atoms: C_6  and  C_7
REMARK    2  A    between atoms: N_12  and  C_13
REMARK                            x       y       z     vdW  Elec       q    Type
REMARK                         _______ _______ _______ _____ _____    ______ ____
ROOT
ATOM      1  C   UNL     1      -0.017   1.398   0.010  0.00  0.00    +0.017 A 
ATOM      2  C   UNL     1       1.149   2.105   0.002  0.00  0.00    +0.029 A 
ATOM      3  C   UNL     1       2.370   1.440  -0.013  0.00  0.00    +0.069 A 
ATOM      4  C   UNL     1       2.409   0.032  -0.021  0.00  0.00    +0.090 A 
ATOM      5  C   UNL     1       1.216  -0.688  -0.013  0.00  0.00    +0.045 A 
ATOM      6  C   UNL     1       0.002  -0.004   0.002  0.00  0.00    +0.065 A 
ATOM      7  N   UNL     1       3.719  -0.328  -0.035  0.00  0.00    -0.236 NA
ATOM      8  C   UNL     1       4.463   0.739  -0.037  0.00  0.00    +0.200 A 
ATOM      9  N   UNL     1       3.684   1.855  -0.024  0.00  0.00    -0.329 N 
ENDROOT
BRANCH   9  10
ATOM     10  C   UNL     1       4.155   3.242  -0.020  0.00  0.00    +0.073 C 
ATOM     11  C   UNL     1       5.072   3.506  -1.242  0.00  0.00    +0.005 C 
ATOM     12  C   UNL     1       6.463   3.831  -0.634  0.00  0.00    -0.076 C 
ATOM     13  N   UNL     1       6.422   3.177   0.684  0.00  0.00    +0.383 N 
ATOM     14  C   UNL     1       5.057   3.499   1.190  0.00  0.00    -0.045 C 
ATOM     15  C   UNL     1       4.779   2.594   2.381  0.00  0.00    -0.013 C 
ATOM     16  C   UNL     1       5.792   2.953   3.480  0.00  0.00    -0.003 C 
ATOM     17  C   UNL     1       7.221   2.848   2.948  0.00  0.00    -0.019 C 
ATOM     18  C   UNL     1       7.390   3.671   1.654  0.00  0.00    -0.078 C 
ATOM     19  H   UNL     1       6.525   2.179   0.574  0.00  0.00    -0.081 HD
ENDBRANCH   9  10
BRANCH   6  20
ATOM     20  C   UNL     1      -1.265  -0.756   0.010  0.00  0.00    +0.387 C 
ATOM     21  O   UNL     1      -2.331  -0.158   0.023  0.00  0.00    -0.241 OA
ATOM     22  O   UNL     1      -1.250  -1.979   0.003  0.00  0.00    -0.241 OA
ENDBRANCH   6  20
TORSDOF 2
