REMARK  Name = ZINC21595950
REMARK  8 active torsions:
REMARK  status: ('A' for Active; 'I' for Inactive)
REMARK    1  A    between atoms: C_1  and  C_2
REMARK    2  A    between atoms: C_5  and  C_27
REMARK    3  A    between atoms: C_7  and  N_8
REMARK    4  A    between atoms: N_8  and  C_9
REMARK    5  A    between atoms: C_9  and  N_11
REMARK    6  A    between atoms: C_12  and  C_14
REMARK    7  A    between atoms: C_15  and  C_16
REMARK    8  A    between atoms: C_19  and  C_21
REMARK                            x       y       z     vdW  Elec       q    Type
REMARK                         _______ _______ _______ _____ _____    ______ ____
ROOT
ATOM      1  N   UNL     1       2.323   0.998  -0.015  0.00  0.00    -0.296 N 
ATOM      2  H   UNL     1       2.296  -0.075  -0.256  0.00  0.00    +0.154 HD
ENDROOT
BRANCH   1   9
ATOM      3  C   UNL     1       4.693  -0.200   0.999  0.00  0.00    +0.045 C 
ATOM      4  C   UNL     1       4.704   1.162   0.354  0.00  0.00    -0.029 A 
ATOM      5  C   UNL     1       5.891   1.862   0.244  0.00  0.00    +0.006 A 
ATOM      6  C   UNL     1       5.908   3.110  -0.346  0.00  0.00    +0.009 A 
ATOM      7  C   UNL     1       4.726   3.668  -0.833  0.00  0.00    -0.009 A 
ATOM      8  C   UNL     1       3.531   2.961  -0.727  0.00  0.00    +0.032 A 
ATOM      9  C   UNL     1       3.522   1.710  -0.128  0.00  0.00    +0.036 A 
BRANCH   7  10
ATOM     10  C   UNL     1       4.743   5.007  -1.467  0.00  0.00    +0.067 A 
ATOM     11  C   UNL     1       5.348   6.065  -0.842  0.00  0.00    +0.027 A 
ATOM     12  C   UNL     1       5.336   7.366  -1.512  0.00  0.00    +0.018 A 
ATOM     13  C   UNL     1       5.940   8.479  -0.916  0.00  0.00    +0.011 A 
ATOM     14  C   UNL     1       5.920   9.687  -1.555  0.00  0.00    +0.001 A 
ATOM     15  C   UNL     1       5.305   9.817  -2.792  0.00  0.00    +0.004 A 
ATOM     16  C   UNL     1       4.705   8.733  -3.397  0.00  0.00    +0.047 A 
ATOM     17  C   UNL     1       4.712   7.494  -2.766  0.00  0.00    +0.139 A 
ATOM     18  O   UNL     1       4.126   6.430  -3.354  0.00  0.00    -0.422 OA
ATOM     19  C   UNL     1       4.119   5.219  -2.776  0.00  0.00    +0.345 A 
ATOM     20  O   UNL     1       3.583   4.285  -3.344  0.00  0.00    -0.245 OA
ENDBRANCH   7  10
ENDBRANCH   1   9
BRANCH   1  21
ATOM     21  C   UNL     1       1.201   1.626   0.390  0.00  0.00    +0.141 C 
ATOM     22  S   UNL     1       1.271   3.259   0.898  0.00  0.00    -0.018 S 
BRANCH  21  23
ATOM     23  N   UNL     1       0.025   0.968   0.393  0.00  0.00    -0.264 N 
ATOM     24  C   UNL     1      -1.098   1.598   0.792  0.00  0.00    +0.242 C 
ATOM     25  O   UNL     1      -1.048   2.760   1.154  0.00  0.00    -0.270 OA
ATOM     26  H   UNL     1      -0.019  -0.082   0.070  0.00  0.00    +0.157 HD
BRANCH  24  27
ATOM     27  C   UNL     1      -2.333   0.911   0.791  0.00  0.00    +0.071 C 
ATOM     28  C   UNL     1      -3.464   1.546   1.193  0.00  0.00    +0.051 C 
BRANCH  28  29
ATOM     29  C   UNL     1      -4.699   0.858   1.191  0.00  0.00    +0.129 A 
ATOM     30  C   UNL     1      -5.918   1.381   1.579  0.00  0.00    +0.050 A 
ATOM     31  C   UNL     1      -6.864   0.366   1.416  0.00  0.00    +0.050 A 
ATOM     32  C   UNL     1      -6.191  -0.738   0.945  0.00  0.00    +0.136 A 
ATOM     33  O   UNL     1      -4.890  -0.424   0.816  0.00  0.00    -0.455 OA
BRANCH  32  34
ATOM     34  C   UNL     1      -6.796  -2.048   0.634  0.00  0.00    +0.017 A 
ATOM     35  C   UNL     1      -8.166  -2.250   0.817  0.00  0.00    +0.011 A 
ATOM     36  C   UNL     1      -8.725  -3.475   0.517  0.00  0.00    +0.001 A 
ATOM     37  C   UNL     1      -7.931  -4.506   0.049  0.00  0.00    +0.000 A 
ATOM     38  C   UNL     1      -6.572  -4.315  -0.129  0.00  0.00    +0.001 A 
ATOM     39  C   UNL     1      -6.000  -3.094   0.160  0.00  0.00    +0.011 A 
ENDBRANCH  32  34
ENDBRANCH  28  29
ENDBRANCH  24  27
ENDBRANCH  21  23
ENDBRANCH   1  21
TORSDOF 7
