REMARK  Name = ZINC63515268
REMARK  7 active torsions:
REMARK  status: ('A' for Active; 'I' for Inactive)
REMARK    1  A    between atoms: C_1  and  C_2
REMARK    2  A    between atoms: N_15  and  C_16
REMARK    3  A    between atoms: C_16  and  C_17
REMARK    4  A    between atoms: C_17  and  C_18
REMARK    5  A    between atoms: C_21  and  O_29
REMARK    6  A    between atoms: C_26  and  C_28
REMARK    7  A    between atoms: O_29  and  C_30
REMARK                            x       y       z     vdW  Elec       q    Type
REMARK                         _______ _______ _______ _____ _____    ______ ____
ROOT
ATOM      1  C   UNL     1      -0.486   1.458   0.033  0.00  0.00    +0.088 C 
ATOM      2  C   UNL     1      -0.217  -0.025   0.013  0.00  0.00    +0.129 A 
ATOM      3  N   UNL     1      -0.206  -0.664  -1.144  0.00  0.00    -0.217 NA
ATOM      4  C   UNL     1       0.022  -1.965  -1.228  0.00  0.00    +0.131 A 
ATOM      5  C   UNL     1       0.265  -2.704  -0.037  0.00  0.00    +0.051 A 
ATOM      6  C   UNL     1       0.538  -4.134   0.115  0.00  0.00    -0.025 A 
ATOM      7  C   UNL     1       0.736  -4.589   1.368  0.00  0.00    -0.004 A 
ATOM      8  S   UNL     1       0.575  -3.163   2.409  0.00  0.00    -0.073 S 
ATOM      9  C   UNL     1       0.239  -1.954   1.156  0.00  0.00    +0.114 A 
ATOM     10  N   UNL     1       0.007  -0.656   1.149  0.00  0.00    -0.225 NA
ATOM     11  C   UNL     1       1.028  -5.998   1.787  0.00  0.00    +0.043 C 
ATOM     12  C   UNL     1       0.703  -6.930   0.611  0.00  0.00    +0.005 C 
ATOM     13  C   UNL     1       1.336  -6.356  -0.659  0.00  0.00    +0.005 C 
ATOM     14  C   UNL     1       0.599  -5.084  -1.078  0.00  0.00    +0.037 C 
ATOM     15  N   UNL     1       0.025  -2.597  -2.459  0.00  0.00    -0.328 N 
ATOM     16  H   UNL     1       0.110  -3.562  -2.508  0.00  0.00    +0.147 HD
ENDROOT
BRANCH  15  17
ATOM     17  C   UNL     1      -0.102  -1.810  -3.688  0.00  0.00    +0.107 C 
BRANCH  17  18
ATOM     18  C   UNL     1      -0.071  -2.745  -4.898  0.00  0.00    +0.052 C 
BRANCH  18  19
ATOM     19  C   UNL     1      -0.202  -1.935  -6.162  0.00  0.00    -0.037 C 
ATOM     20  C   UNL     1      -0.322  -0.592  -6.258  0.00  0.00    +0.003 A 
ATOM     21  C   UNL     1      -0.367   0.478  -5.255  0.00  0.00    +0.055 A 
ATOM     22  C   UNL     1      -0.498   1.765  -5.657  0.00  0.00    +0.121 A 
ATOM     23  C   UNL     1      -0.594   2.121  -7.013  0.00  0.00    +0.047 A 
ATOM     24  C   UNL     1      -0.563   1.209  -8.009  0.00  0.00    +0.029 A 
ATOM     25  C   UNL     1      -0.423  -0.215  -7.687  0.00  0.00    +0.043 A 
ATOM     26  N   UNL     1      -0.367  -1.282  -8.443  0.00  0.00    -0.378 N 
ATOM     27  C   UNL     1      -0.217  -2.460  -7.580  0.00  0.00    +0.103 C 
ATOM     28  C   UNL     1       1.096  -3.181  -7.890  0.00  0.00    +0.035 C 
ATOM     29  H   UNL     1      -0.413  -1.293  -9.412  0.00  0.00    +0.160 HD
BRANCH  22  30
ATOM     30  O   UNL     1      -0.539   2.745  -4.716  0.00  0.00    -0.495 OA
ATOM     31  C   UNL     1      -0.679   4.088  -5.185  0.00  0.00    +0.277 C 
ENDBRANCH  22  30
ENDBRANCH  18  19
ENDBRANCH  17  18
ENDBRANCH  15  17
TORSDOF 4
