REMARK  Name = ZINC14076960
REMARK  8 active torsions:
REMARK  status: ('A' for Active; 'I' for Inactive)
REMARK    1  A    between atoms: C_1  and  C_2
REMARK    2  A    between atoms: C_2  and  C_4
REMARK    3  A    between atoms: C_2  and  S_15
REMARK    4  A    between atoms: N_6  and  C_7
REMARK    5  A    between atoms: S_15  and  C_16
REMARK    6  A    between atoms: C_19  and  C_22
REMARK    7  A    between atoms: N_20  and  N_21
REMARK    8  A    between atoms: C_22  and  C_23
REMARK                            x       y       z     vdW  Elec       q    Type
REMARK                         _______ _______ _______ _____ _____    ______ ____
ROOT
ATOM      1  C   UNL     1       0.084   0.839   2.732  0.00  0.00    +0.209 A 
ATOM      2  N   UNL     1       1.100   0.033   2.527  0.00  0.00    -0.121 NA
ATOM      3  N   UNL     1       1.553  -0.393   3.652  0.00  0.00    -0.132 NA
ATOM      4  C   UNL     1       0.855   0.105   4.633  0.00  0.00    +0.155 A 
ATOM      5  N   UNL     1      -0.106   0.907   4.082  0.00  0.00    -0.228 N 
ENDROOT
BRANCH   5   6
ATOM      6  N   UNL     1      -1.059   1.627   4.745  0.00  0.00    -0.295 N 
ATOM      7  H   UNL     1      -1.899   1.083   4.875  0.00  0.00    +0.163 HD
ATOM      8  H   UNL     1      -0.707   1.965   5.629  0.00  0.00    +0.163 HD
ENDBRANCH   5   6
BRANCH   1   9
ATOM      9  S   UNL     1      -0.860   1.669   1.497  0.00  0.00    -0.072 S 
BRANCH   9  11
ATOM     10  C   UNL     1       1.423   1.615  -0.003  0.00  0.00    +0.029 C 
ATOM     11  C   UNL     1      -0.013   1.086   0.008  0.00  0.00    +0.137 C 
BRANCH  11  12
ATOM     12  C   UNL     1      -0.742   1.585  -1.213  0.00  0.00    +0.226 C 
ATOM     13  O   UNL     1      -1.419   2.589  -1.147  0.00  0.00    -0.275 OA
ATOM     14  N   UNL     1      -0.641   0.916  -2.378  0.00  0.00    -0.310 N 
ATOM     15  H   UNL     1      -0.099   0.113  -2.432  0.00  0.00    +0.149 HD
BRANCH  14  16
ATOM     16  C   UNL     1      -1.349   1.401  -3.565  0.00  0.00    +0.095 C 
ATOM     17  C   UNL     1      -2.783   0.846  -3.577  0.00  0.00    +0.046 C 
ATOM     18  C   UNL     1      -3.429   1.082  -4.964  0.00  0.00    +0.168 C 
ATOM     19  S   UNL     1      -1.975   1.091  -6.090  0.00  0.00    -0.029 S 
ATOM     20  O   UNL     1      -1.869   2.372  -6.698  0.00  0.00    -0.174 OA
ATOM     21  O   UNL     1      -2.016  -0.070  -6.909  0.00  0.00    -0.174 OA
ATOM     22  C   UNL     1      -0.626   0.903  -4.849  0.00  0.00    +0.188 C 
ENDBRANCH  14  16
ENDBRANCH  11  12
ENDBRANCH   9  11
ENDBRANCH   1   9
BRANCH   4  23
ATOM     23  C   UNL     1       1.066  -0.156   6.102  0.00  0.00    +0.116 C 
BRANCH  23  24
ATOM     24  C   UNL     1       0.250  -1.351   6.522  0.00  0.00    -0.005 A 
ATOM     25  C   UNL     1      -1.003  -1.173   7.077  0.00  0.00    +0.007 A 
ATOM     26  C   UNL     1      -1.754  -2.269   7.458  0.00  0.00    +0.000 A 
ATOM     27  C   UNL     1      -1.247  -3.545   7.294  0.00  0.00    +0.003 A 
ATOM     28  C   UNL     1       0.008  -3.726   6.745  0.00  0.00    +0.038 A 
ATOM     29  C   UNL     1       0.758  -2.629   6.358  0.00  0.00    +0.127 A 
ATOM     30  F   UNL     1       1.986  -2.804   5.821  0.00  0.00    -0.205 F 
ENDBRANCH  23  24
ENDBRANCH   4  23
TORSDOF 7
