REMARK  Name = ZINC01033764
REMARK  5 active torsions:
REMARK  status: ('A' for Active; 'I' for Inactive)
REMARK    1  A    between atoms: C_3  and  N_27
REMARK    2  A    between atoms: C_6  and  C_7
REMARK    3  A    between atoms: N_8  and  N_9
REMARK    4  A    between atoms: C_10  and  C_12
REMARK    5  A    between atoms: C_12  and  N_13
REMARK                            x       y       z     vdW  Elec       q    Type
REMARK                         _______ _______ _______ _____ _____    ______ ____
ROOT
ATOM      1  N   UNL     1      -1.191   1.867   0.018  0.00  0.00    -0.206 N 
ATOM      2  C   UNL     1      -0.014   1.209   0.009  0.00  0.00    +0.252 C 
ATOM      3  O   UNL     1       0.002  -0.004   0.002  0.00  0.00    -0.272 OA
ATOM      4  H   UNL     1      -1.204   2.837   0.023  0.00  0.00    +0.177 HD
ENDROOT
BRANCH   1   6
ATOM      5  C   UNL     1      -3.527   1.783   0.029  0.00  0.00    +0.138 C 
ATOM      6  N   UNL     1      -2.394   1.150   0.020  0.00  0.00    -0.188 NA
BRANCH   5  12
ATOM      7  C   UNL     1      -4.779  -0.368   0.017  0.00  0.00    +0.012 A 
ATOM      8  C   UNL     1      -5.968  -1.067   0.023  0.00  0.00    +0.033 A 
ATOM      9  C   UNL     1      -7.173  -0.389   0.033  0.00  0.00    +0.126 A 
ATOM     10  C   UNL     1      -7.196   0.995   0.041  0.00  0.00    +0.033 A 
ATOM     11  C   UNL     1      -6.015   1.707   0.040  0.00  0.00    +0.012 A 
ATOM     12  C   UNL     1      -4.794   1.029   0.030  0.00  0.00    -0.005 A 
BRANCH   9  13
ATOM     13  N   UNL     1      -8.445  -1.146   0.034  0.00  0.00    +0.056 N 
ATOM     14  O   UNL     1      -9.508  -0.551   0.042  0.00  0.00    -0.126 OA
ATOM     15  O   UNL     1      -8.428  -2.364   0.026  0.00  0.00    -0.126 OA
ENDBRANCH   9  13
ENDBRANCH   5  12
ENDBRANCH   1   6
BRANCH   2  16
ATOM     16  C   UNL     1       1.280   1.980   0.001  0.00  0.00    +0.223 C 
BRANCH  16  17
ATOM     17  N   UNL     1       2.407   1.043  -0.015  0.00  0.00    -0.290 N 
ATOM     18  C   UNL     1       2.933   0.616   1.161  0.00  0.00    +0.203 A 
ATOM     19  N   UNL     1       3.934  -0.222   1.189  0.00  0.00    -0.230 NA
ATOM     20  C   UNL     1       4.477  -0.676   0.063  0.00  0.00    +0.116 A 
ATOM     21  C   UNL     1       4.005  -0.288  -1.200  0.00  0.00    +0.076 A 
ATOM     22  C   UNL     1       2.902   0.628  -1.196  0.00  0.00    +0.263 A 
ATOM     23  O   UNL     1       2.421   1.024  -2.244  0.00  0.00    -0.267 OA
ATOM     24  C   UNL     1       4.699  -0.868  -2.349  0.00  0.00    -0.023 A 
ATOM     25  C   UNL     1       5.717  -1.714  -2.086  0.00  0.00    -0.004 A 
ATOM     26  S   UNL     1       5.810  -1.785  -0.318  0.00  0.00    -0.073 S 
ATOM     27  C   UNL     1       6.579  -2.433  -3.079  0.00  0.00    +0.043 C 
ATOM     28  C   UNL     1       5.899  -2.360  -4.453  0.00  0.00    +0.005 C 
ATOM     29  C   UNL     1       5.467  -0.913  -4.712  0.00  0.00    +0.005 C 
ATOM     30  C   UNL     1       4.306  -0.545  -3.788  0.00  0.00    +0.037 C 
ENDBRANCH  16  17
ENDBRANCH   2  16
TORSDOF 5
