REMARK  Name = ZINC20889740
REMARK  5 active torsions:
REMARK  status: ('A' for Active; 'I' for Inactive)
REMARK    1  A    between atoms: C_5  and  N_7
REMARK    2  A    between atoms: N_10  and  C_11
REMARK    3  A    between atoms: C_11  and  C_12
REMARK    4  A    between atoms: N_15  and  C_18
REMARK    5  A    between atoms: C_18  and  C_19
REMARK                            x       y       z     vdW  Elec       q    Type
REMARK                         _______ _______ _______ _____ _____    ______ ____
ROOT
ATOM      1  N   UNL     1       0.497  -0.149   2.463  0.00  0.00    -0.269 N 
ATOM      2  C   UNL     1       0.860  -0.715   3.630  0.00  0.00    +0.304 C 
ATOM      3  O   UNL     1       0.331  -0.364   4.667  0.00  0.00    -0.253 OA
ATOM      4  N   UNL     1       1.810  -1.671   3.649  0.00  0.00    -0.299 N 
ATOM      5  H   UNL     1       0.907  -0.529   1.516  0.00  0.00    +0.156 HD
ATOM      6  H   UNL     1       2.289  -1.989   2.711  0.00  0.00    +0.150 HD
ENDROOT
BRANCH   1  11
ATOM      7  C   UNL     1      -1.412   2.787   3.566  0.00  0.00    +0.002 A 
ATOM      8  C   UNL     1      -2.173   3.034   2.442  0.00  0.00    +0.004 A 
ATOM      9  C   UNL     1      -2.057   2.228   1.316  0.00  0.00    -0.042 A 
ATOM     10  C   UNL     1      -1.173   1.175   1.319  0.00  0.00    -0.023 A 
ATOM     11  C   UNL     1      -0.403   0.923   2.455  0.00  0.00    +0.038 A 
ATOM     12  C   UNL     1      -0.524   1.729   3.576  0.00  0.00    +0.023 A 
ATOM     13  C   UNL     1      -0.989   0.266   0.132  0.00  0.00    +0.037 C 
ATOM     14  C   UNL     1      -2.168   0.394  -0.830  0.00  0.00    +0.005 C 
ATOM     15  C   UNL     1      -2.385   1.881  -1.132  0.00  0.00    +0.005 C 
ATOM     16  C   UNL     1      -2.925   2.555   0.128  0.00  0.00    +0.035 C 
ENDBRANCH   1  11
BRANCH   4  17
ATOM     17  C   UNL     1       2.205  -2.286   4.918  0.00  0.00    +0.109 C 
BRANCH  17  18
ATOM     18  C   UNL     1       3.292  -3.332   4.662  0.00  0.00    +0.003 C 
ATOM     19  C   UNL     1       2.713  -4.478   3.827  0.00  0.00    -0.014 C 
ATOM     20  C   UNL     1       3.788  -5.549   3.625  0.00  0.00    -0.078 C 
ATOM     21  N   UNL     1       4.234  -6.048   4.932  0.00  0.00    +0.382 N 
ATOM     22  C   UNL     1       4.837  -4.975   5.733  0.00  0.00    -0.078 C 
ATOM     23  C   UNL     1       3.794  -3.887   5.998  0.00  0.00    -0.014 C 
ATOM     24  H   UNL     1       3.348  -6.412   5.473  0.00  0.00    -0.081 HD
BRANCH  21  25
ATOM     25  C   UNL     1       5.165  -7.174   4.775  0.00  0.00    -0.043 C 
BRANCH  25  26
ATOM     26  C   UNL     1       4.437  -8.346   4.167  0.00  0.00    -0.064 A 
ATOM     27  C   UNL     1       3.821  -9.276   4.984  0.00  0.00    +0.004 A 
ATOM     28  C   UNL     1       3.150 -10.348   4.427  0.00  0.00    +0.038 A 
ATOM     29  C   UNL     1       3.104 -10.496   3.052  0.00  0.00    +0.123 A 
ATOM     30  C   UNL     1       3.725  -9.567   2.235  0.00  0.00    +0.038 A 
ATOM     31  C   UNL     1       4.392  -8.493   2.793  0.00  0.00    +0.004 A 
ATOM     32  F   UNL     1       2.452 -11.546   2.506  0.00  0.00    -0.205 F 
ENDBRANCH  25  26
ENDBRANCH  21  25
ENDBRANCH  17  18
ENDBRANCH   4  17
TORSDOF 5
