REMARK  Name = ZINC57334236
REMARK  8 active torsions:
REMARK  status: ('A' for Active; 'I' for Inactive)
REMARK    1  A    between atoms: C_1  and  C_2
REMARK    2  A    between atoms: C_2  and  C_3
REMARK    3  A    between atoms: C_9  and  C_11
REMARK    4  A    between atoms: C_14  and  N_17
REMARK    5  A    between atoms: C_18  and  C_20
REMARK    6  A    between atoms: C_20  and  N_21
REMARK    7  A    between atoms: C_27  and  C_29
REMARK    8  A    between atoms: C_29  and  C_30
REMARK                            x       y       z     vdW  Elec       q    Type
REMARK                         _______ _______ _______ _____ _____    ______ ____
ROOT
ATOM      1  C   UNL     1      -2.440  -1.167   5.150  0.00  0.00    +0.009 A 
ATOM      2  C   UNL     1      -3.671  -1.433   4.547  0.00  0.00    +0.012 A 
ATOM      3  C   UNL     1      -4.814  -1.488   5.314  0.00  0.00    +0.024 A 
ATOM      4  C   UNL     1      -4.743  -1.279   6.687  0.00  0.00    +0.033 A 
ATOM      5  C   UNL     1      -3.519  -1.014   7.290  0.00  0.00    +0.024 A 
ATOM      6  C   UNL     1      -2.371  -0.964   6.529  0.00  0.00    +0.012 A 
ENDROOT
BRANCH   1  13
ATOM      7  C   UNL     1       0.737  -1.273   1.175  0.00  0.00    +0.155 A 
ATOM      8  N   UNL     1       2.019  -1.068   1.296  0.00  0.00    -0.132 NA
ATOM      9  N   UNL     1       2.316  -0.854   2.531  0.00  0.00    -0.120 NA
ATOM     10  C   UNL     1       1.237  -0.913   3.251  0.00  0.00    +0.218 A 
ATOM     11  N   UNL     1       0.169  -1.178   2.428  0.00  0.00    -0.190 N 
ATOM     12  N   UNL     1      -1.076  -1.270   3.038  0.00  0.00    -0.156 NA
ATOM     13  C   UNL     1      -1.211  -1.107   4.329  0.00  0.00    +0.132 A 
ATOM     14  S   UNL     1       0.471  -0.806   4.849  0.00  0.00    -0.026 S 
BRANCH   7  16
ATOM     15  C   UNL     1      -0.445  -0.239  -0.745  0.00  0.00    +0.012 C 
ATOM     16  C   UNL     1       0.004  -1.557  -0.111  0.00  0.00    +0.075 C 
ENDBRANCH   7  16
ENDBRANCH   1  13
BRANCH   4  17
ATOM     17  N   UNL     1      -5.905  -1.336   7.462  0.00  0.00    -0.284 N 
ATOM     18  C   UNL     1      -5.856  -1.833   8.713  0.00  0.00    +0.231 C 
ATOM     19  O   UNL     1      -4.791  -2.154   9.197  0.00  0.00    -0.274 OA
ATOM     20  H   UNL     1      -6.746  -1.017   7.099  0.00  0.00    +0.155 HD
BRANCH  18  21
ATOM     21  C   UNL     1      -7.125  -1.991   9.512  0.00  0.00    +0.180 C 
BRANCH  21  22
ATOM     22  N   UNL     1      -6.806  -2.549  10.833  0.00  0.00    -0.291 NA
ATOM     23  C   UNL     1      -6.287  -3.918  10.715  0.00  0.00    +0.104 C 
ATOM     24  C   UNL     1      -5.799  -4.396  12.086  0.00  0.00    +0.123 C 
ATOM     25  N   UNL     1      -6.892  -4.226  13.056  0.00  0.00    -0.299 N 
ATOM     26  C   UNL     1      -7.555  -2.916  13.135  0.00  0.00    +0.123 C 
ATOM     27  C   UNL     1      -7.974  -2.497  11.722  0.00  0.00    +0.104 C 
ATOM     28  C   UNL     1      -7.275  -5.245  13.851  0.00  0.00    +0.215 C 
ATOM     29  O   UNL     1      -6.716  -6.319  13.773  0.00  0.00    -0.276 OA
BRANCH  28  30
ATOM     30  C   UNL     1      -8.397  -5.050  14.838  0.00  0.00    +0.092 C 
ATOM     31  C   UNL     1      -8.630  -6.350  15.609  0.00  0.00    +0.013 C 
ENDBRANCH  28  30
ENDBRANCH  21  22
ENDBRANCH  18  21
ENDBRANCH   4  17
TORSDOF 6
