REMARK  Name = ZINC09049157
REMARK  5 active torsions:
REMARK  status: ('A' for Active; 'I' for Inactive)
REMARK    1  A    between atoms: C_1  and  C_2
REMARK    2  A    between atoms: C_10  and  C_12
REMARK    3  A    between atoms: C_15  and  O_18
REMARK    4  A    between atoms: C_22  and  C_25
REMARK    5  A    between atoms: C_28  and  O_31
REMARK                            x       y       z     vdW  Elec       q    Type
REMARK                         _______ _______ _______ _____ _____    ______ ____
ROOT
ATOM      1  C   UNL     1      -1.819   8.732   1.010  0.00  0.00    +0.069 C 
ATOM      2  C   UNL     1      -1.592   7.500   1.847  0.00  0.00    +0.087 A 
ATOM      3  C   UNL     1      -1.211   6.240   1.395  0.00  0.00    +0.049 A 
ATOM      4  C   UNL     1      -1.141   5.474   2.530  0.00  0.00    +0.226 A 
ATOM      5  O   UNL     1      -1.463   6.276   3.540  0.00  0.00    -0.339 OA
ATOM      6  N   UNL     1      -1.713   7.399   3.147  0.00  0.00    -0.081 NA
ATOM      7  N   UNL     1      -0.791   4.141   2.472  0.00  0.00    -0.286 N 
ATOM      8  C   UNL     1      -0.798   3.513   1.249  0.00  0.00    +0.019 C 
ATOM      9  C   UNL     1      -0.855   4.192   0.084  0.00  0.00    +0.024 C 
ATOM     10  C   UNL     1      -0.912   5.705   0.031  0.00  0.00    +0.091 C 
ATOM     11  C   UNL     1      -0.859   3.515  -1.149  0.00  0.00    +0.162 C 
ATOM     12  O   UNL     1      -0.936   4.156  -2.179  0.00  0.00    -0.292 OA
ATOM     13  C   UNL     1      -0.771   2.016  -1.222  0.00  0.00    +0.088 C 
ATOM     14  C   UNL     1      -0.018   1.503   0.010  0.00  0.00    +0.032 C 
ATOM     15  C   UNL     1      -0.746   2.002   1.260  0.00  0.00    +0.059 C 
ATOM     16  H   UNL     1      -0.545   3.658   3.276  0.00  0.00    +0.155 HD
ENDROOT
BRANCH  10  17
ATOM     17  C   UNL     1       0.415   6.242  -0.439  0.00  0.00    -0.035 A 
ATOM     18  C   UNL     1       1.562   5.981   0.287  0.00  0.00    +0.008 A 
ATOM     19  C   UNL     1       2.781   6.467  -0.145  0.00  0.00    +0.046 A 
ATOM     20  C   UNL     1       2.852   7.228  -1.302  0.00  0.00    +0.117 A 
ATOM     21  C   UNL     1       1.699   7.494  -2.027  0.00  0.00    +0.046 A 
ATOM     22  C   UNL     1       0.483   7.000  -1.594  0.00  0.00    +0.008 A 
BRANCH  20  23
ATOM     23  O   UNL     1       4.048   7.713  -1.726  0.00  0.00    -0.507 OA
ATOM     24  H   UNL     1       4.266   8.587  -1.373  0.00  0.00    +0.292 HD
ENDBRANCH  20  23
ENDBRANCH  10  17
BRANCH  14  25
ATOM     25  C   UNL     1       0.002  -0.004   0.002  0.00  0.00    -0.043 A 
ATOM     26  C   UNL     1      -1.186  -0.711   0.015  0.00  0.00    +0.007 A 
ATOM     27  C   UNL     1      -1.171  -2.092   0.002  0.00  0.00    +0.045 A 
ATOM     28  C   UNL     1       0.040  -2.770  -0.013  0.00  0.00    +0.117 A 
ATOM     29  C   UNL     1       1.231  -2.059  -0.020  0.00  0.00    +0.045 A 
ATOM     30  C   UNL     1       1.209  -0.678  -0.013  0.00  0.00    +0.007 A 
BRANCH  28  31
ATOM     31  O   UNL     1       0.058  -4.129  -0.019  0.00  0.00    -0.507 OA
ATOM     32  H   UNL     1       0.071  -4.527   0.862  0.00  0.00    +0.292 HD
ENDBRANCH  28  31
ENDBRANCH  14  25
TORSDOF 4
