REMARK  Name = ZINC58572004
REMARK  4 active torsions:
REMARK  status: ('A' for Active; 'I' for Inactive)
REMARK    1  A    between atoms: C_6  and  C_7
REMARK    2  A    between atoms: C_16  and  C_18
REMARK    3  A    between atoms: C_18  and  C_19
REMARK    4  A    between atoms: C_19  and  N_20
REMARK                            x       y       z     vdW  Elec       q    Type
REMARK                         _______ _______ _______ _____ _____    ______ ____
ROOT
ATOM      1  C   UNL     1      -1.270  -0.765   0.011  0.00  0.00    +0.004 A 
ATOM      2  C   UNL     1      -2.240  -0.477   0.911  0.00  0.00    +0.056 A 
ATOM      3  S   UNL     1      -3.530  -1.642   0.515  0.00  0.00    -0.076 S 
ATOM      4  C   UNL     1      -2.745  -2.480  -0.838  0.00  0.00    +0.116 A 
ATOM      5  C   UNL     1      -1.503  -1.833  -0.954  0.00  0.00    +0.080 A 
ATOM      6  C   UNL     1      -0.647  -2.317  -1.995  0.00  0.00    +0.260 A 
ATOM      7  O   UNL     1       0.453  -1.822  -2.171  0.00  0.00    -0.267 OA
ATOM      8  N   UNL     1      -1.076  -3.326  -2.775  0.00  0.00    -0.310 N 
ATOM      9  H   UNL     1      -0.500  -3.658  -3.482  0.00  0.00    +0.170 HD
ATOM     10  C   UNL     1      -2.297  -3.890  -2.592  0.00  0.00    +0.112 A 
ATOM     11  N   UNL     1      -3.096  -3.477  -1.645  0.00  0.00    -0.227 NA
ENDROOT
BRANCH   1  17
ATOM     12  C   UNL     1      -0.017   1.390   0.010  0.00  0.00    +0.011 A 
ATOM     13  C   UNL     1       1.170   2.094   0.002  0.00  0.00    +0.039 A 
ATOM     14  C   UNL     1       2.379   1.417  -0.013  0.00  0.00    +0.123 A 
ATOM     15  C   UNL     1       2.403   0.032  -0.021  0.00  0.00    +0.039 A 
ATOM     16  C   UNL     1       1.221  -0.680  -0.014  0.00  0.00    +0.011 A 
ATOM     17  C   UNL     1       0.002  -0.004   0.002  0.00  0.00    -0.016 A 
ATOM     18  F   UNL     1       3.538   2.111  -0.020  0.00  0.00    -0.205 F 
ENDBRANCH   1  17
BRANCH  10  19
ATOM     19  C   UNL     1      -2.734  -5.018  -3.490  0.00  0.00    +0.094 C 
BRANCH  19  20
ATOM     20  C   UNL     1      -4.136  -5.478  -3.086  0.00  0.00    +0.125 C 
BRANCH  20  21
ATOM     21  N   UNL     1      -4.561  -6.575  -3.959  0.00  0.00    -0.224 N 
ATOM     22  C   UNL     1      -5.222  -6.406  -5.123  0.00  0.00    +0.247 C 
ATOM     23  O   UNL     1      -5.565  -5.358  -5.626  0.00  0.00    -0.273 OA
ATOM     24  C   UNL     1      -5.445  -7.799  -5.667  0.00  0.00    +0.113 C 
ATOM     25  C   UNL     1      -4.750  -7.960  -7.014  0.00  0.00    +0.035 C 
ATOM     26  C   UNL     1      -4.962  -9.385  -7.533  0.00  0.00    +0.003 C 
ATOM     27  C   UNL     1      -6.461  -9.656  -7.677  0.00  0.00    +0.000 C 
ATOM     28  C   UNL     1      -7.140  -9.513  -6.313  0.00  0.00    +0.003 C 
ATOM     29  C   UNL     1      -6.937  -8.089  -5.790  0.00  0.00    +0.035 C 
ATOM     30  N   UNL     1      -4.831  -8.676  -4.662  0.00  0.00    -0.285 N 
ATOM     31  C   UNL     1      -4.336  -7.870  -3.704  0.00  0.00    +0.309 C 
ATOM     32  O   UNL     1      -3.753  -8.273  -2.716  0.00  0.00    -0.252 OA
ATOM     33  H   UNL     1      -4.788  -9.645  -4.686  0.00  0.00    +0.151 HD
ENDBRANCH  20  21
ENDBRANCH  19  20
ENDBRANCH  10  19
TORSDOF 4
