REMARK  Name = ZINC36579384
REMARK  17 active torsions:
REMARK  status: ('A' for Active; 'I' for Inactive)
REMARK    1  A    between atoms: C_1  and  C_2
REMARK    2  A    between atoms: C_2  and  C_3
REMARK    3  A    between atoms: C_2  and  C_4
REMARK    4  A    between atoms: C_2  and  N_5
REMARK    5  A    between atoms: C_6  and  C_8
REMARK    6  A    between atoms: C_8  and  C_10
REMARK    7  A    between atoms: C_8  and  N_19
REMARK    8  A    between atoms: C_13  and  O_18
REMARK    9  A    between atoms: C_14  and  O_16
REMARK   10  A    between atoms: O_16  and  C_17
REMARK   11  A    between atoms: N_19  and  C_36
REMARK   12  A    between atoms: C_20  and  C_22
REMARK   13  A    between atoms: C_22  and  C_30
REMARK   14  A    between atoms: C_23  and  C_24
REMARK   15  A    between atoms: C_36  and  C_37
REMARK   16  A    between atoms: C_36  and  C_38
REMARK   17  A    between atoms: C_36  and  C_39
REMARK                            x       y       z     vdW  Elec       q    Type
REMARK                         _______ _______ _______ _____ _____    ______ ____
ROOT
ATOM      1  N   UNL     1       3.861  -1.467  -1.669  0.00  0.00    -0.277 N 
ATOM      2  C   UNL     1       4.031  -2.200  -2.787  0.00  0.00    +0.248 C 
ATOM      3  O   UNL     1       3.296  -3.143  -3.014  0.00  0.00    -0.270 OA
ENDROOT
BRANCH   1   4
ATOM      4  C   UNL     1       4.677  -0.271  -1.447  0.00  0.00    +0.030 C 
ATOM      5  C   UNL     1       4.416   0.270  -0.040  0.00  0.00    +0.031 C 
ATOM      6  C   UNL     1       6.158  -0.630  -1.589  0.00  0.00    +0.031 C 
ATOM      7  C   UNL     1       4.310   0.796  -2.480  0.00  0.00    +0.031 C 
ENDBRANCH   1   4
BRANCH   2   8
ATOM      8  C   UNL     1       5.106  -1.861  -3.734  0.00  0.00    +0.045 C 
ATOM      9  C   UNL     1       4.902  -0.905  -4.680  0.00  0.00    +0.021 C 
BRANCH   9  10
ATOM     10  C   UNL     1       3.559  -0.342  -4.878  0.00  0.00    -0.024 A 
ATOM     11  C   UNL     1       3.406   1.004  -5.231  0.00  0.00    +0.008 A 
ATOM     12  C   UNL     1       2.143   1.524  -5.415  0.00  0.00    +0.001 A 
ATOM     13  C   UNL     1       1.028   0.720  -5.252  0.00  0.00    +0.000 A 
ATOM     14  C   UNL     1       1.171  -0.612  -4.903  0.00  0.00    +0.001 A 
ATOM     15  C   UNL     1       2.427  -1.150  -4.720  0.00  0.00    +0.008 A 
ENDBRANCH   9  10
BRANCH   8  16
ATOM     16  C   UNL     1       6.409  -2.560  -3.656  0.00  0.00    -0.013 A 
ATOM     17  C   UNL     1       6.453  -3.936  -3.428  0.00  0.00    +0.008 A 
ATOM     18  C   UNL     1       7.670  -4.581  -3.357  0.00  0.00    +0.001 A 
ATOM     19  C   UNL     1       8.845  -3.867  -3.511  0.00  0.00    +0.000 A 
ATOM     20  C   UNL     1       8.808  -2.503  -3.737  0.00  0.00    +0.001 A 
ATOM     21  C   UNL     1       7.597  -1.847  -3.817  0.00  0.00    +0.008 A 
ENDBRANCH   8  16
ENDBRANCH   2   8
BRANCH   1  22
ATOM     22  C   UNL     1       2.861  -1.866  -0.676  0.00  0.00    +0.193 C 
BRANCH  22  23
ATOM     23  C   UNL     1       3.280  -3.163  -0.034  0.00  0.00    -0.014 A 
ATOM     24  C   UNL     1       4.132  -4.021  -0.705  0.00  0.00    +0.010 A 
ATOM     25  C   UNL     1       4.519  -5.213  -0.120  0.00  0.00    +0.049 A 
ATOM     26  C   UNL     1       4.054  -5.548   1.141  0.00  0.00    +0.158 A 
ATOM     27  C   UNL     1       3.197  -4.685   1.817  0.00  0.00    +0.162 A 
ATOM     28  C   UNL     1       2.817  -3.490   1.227  0.00  0.00    +0.055 A 
BRANCH  27  29
ATOM     29  O   UNL     1       2.739  -5.010   3.055  0.00  0.00    -0.491 OA
ATOM     30  C   UNL     1       1.863  -4.075   3.688  0.00  0.00    +0.277 C 
ENDBRANCH  27  29
BRANCH  26  31
ATOM     31  O   UNL     1       4.434  -6.720   1.718  0.00  0.00    -0.503 OA
ATOM     32  H   UNL     1       5.240  -6.654   2.249  0.00  0.00    +0.292 HD
ENDBRANCH  26  31
ENDBRANCH  22  23
BRANCH  22  34
ATOM     33  N   UNL     1       0.497  -2.595  -0.676  0.00  0.00    -0.309 N 
ATOM     34  C   UNL     1       1.526  -2.049  -1.353  0.00  0.00    +0.239 C 
ATOM     35  O   UNL     1       1.379  -1.704  -2.506  0.00  0.00    -0.273 OA
ATOM     36  H   UNL     1       0.592  -2.802   0.267  0.00  0.00    +0.149 HD
BRANCH  33  38
ATOM     37  C   UNL     1      -0.512  -3.859  -2.511  0.00  0.00    +0.031 C 
ATOM     38  C   UNL     1      -0.765  -2.877  -1.365  0.00  0.00    +0.026 C 
ATOM     39  C   UNL     1      -1.342  -1.576  -1.926  0.00  0.00    +0.031 C 
ATOM     40  C   UNL     1      -1.759  -3.491  -0.377  0.00  0.00    +0.031 C 
ENDBRANCH  33  38
ENDBRANCH  22  34
ENDBRANCH   1  22
TORSDOF 10
