REMARK  Name = ZINC39939549
REMARK  7 active torsions:
REMARK  status: ('A' for Active; 'I' for Inactive)
REMARK    1  A    between atoms: C_7  and  C_10
REMARK    2  A    between atoms: C_13  and  S_19
REMARK    3  A    between atoms: N_15  and  C_16
REMARK    4  A    between atoms: S_19  and  C_20
REMARK    5  A    between atoms: C_20  and  C_21
REMARK    6  A    between atoms: N_23  and  C_24
REMARK    7  A    between atoms: C_28  and  C_30
REMARK                            x       y       z     vdW  Elec       q    Type
REMARK                         _______ _______ _______ _____ _____    ______ ____
ROOT
ATOM      1  C   UNL     1       0.740  -3.125   0.162  0.00  0.00    +0.147 C 
ATOM      2  N   UNL     1      -0.554  -3.247   0.028  0.00  0.00    -0.169 NA
ATOM      3  N   UNL     1      -0.913  -4.571  -0.251  0.00  0.00    -0.237 N 
ATOM      4  C   UNL     1       0.339  -5.345  -0.288  0.00  0.00    +0.237 C 
ATOM      5  N   UNL     1       1.389  -4.349  -0.017  0.00  0.00    -0.282 N 
ATOM      6  H   UNL     1      -1.810  -4.911  -0.392  0.00  0.00    +0.171 HD
ENDROOT
BRANCH   1  13
ATOM      7  C   UNL     1      -0.826   1.023   1.124  0.00  0.00    +0.001 A 
ATOM      8  C   UNL     1       0.182   1.964   1.345  0.00  0.00    +0.002 A 
ATOM      9  C   UNL     1       1.495   1.636   1.271  0.00  0.00    +0.026 A 
ATOM     10  C   UNL     1       1.873   0.303   0.962  0.00  0.00    +0.043 A 
ATOM     11  N   UNL     1       3.059  -0.259   0.834  0.00  0.00    -0.380 N 
ATOM     12  C   UNL     1       2.888  -1.677   0.504  0.00  0.00    +0.152 C 
ATOM     13  C   UNL     1       1.395  -1.917   0.445  0.00  0.00    +0.022 C 
ATOM     14  C   UNL     1       0.807  -0.684   0.731  0.00  0.00    +0.006 A 
ATOM     15  C   UNL     1      -0.539  -0.270   0.824  0.00  0.00    +0.010 A 
ATOM     16  H   UNL     1       3.910   0.194   0.941  0.00  0.00    +0.160 HD
ENDBRANCH   1  13
BRANCH   5  17
ATOM     17  C   UNL     1       2.831  -4.595   0.053  0.00  0.00    +0.078 C 
ATOM     18  C   UNL     1       3.322  -6.012  -0.252  0.00  0.00    +0.024 C 
ATOM     19  C   UNL     1       3.341  -5.488   1.186  0.00  0.00    +0.024 C 
ENDBRANCH   5  17
BRANCH   4  20
ATOM     20  S   UNL     1       0.578  -6.086  -1.926  0.00  0.00    -0.109 S 
BRANCH  20  21
ATOM     21  C   UNL     1       0.592  -4.665  -3.053  0.00  0.00    +0.168 C 
BRANCH  21  22
ATOM     22  C   UNL     1       0.787  -5.147  -4.468  0.00  0.00    +0.227 C 
ATOM     23  O   UNL     1       0.904  -6.333  -4.693  0.00  0.00    -0.275 OA
ATOM     24  N   UNL     1       0.830  -4.260  -5.482  0.00  0.00    -0.285 N 
ATOM     25  H   UNL     1       0.811  -3.309  -5.295  0.00  0.00    +0.155 HD
BRANCH  24  26
ATOM     26  C   UNL     1       0.903  -4.713  -6.804  0.00  0.00    +0.035 A 
ATOM     27  C   UNL     1       1.634  -3.997  -7.744  0.00  0.00    +0.023 A 
ATOM     28  C   UNL     1       1.710  -4.439  -9.052  0.00  0.00    +0.003 A 
ATOM     29  C   UNL     1       1.059  -5.595  -9.432  0.00  0.00    +0.019 A 
ATOM     30  C   UNL     1       0.322  -6.322  -8.496  0.00  0.00    +0.054 A 
ATOM     31  C   UNL     1       0.250  -5.878  -7.175  0.00  0.00    +0.042 A 
BRANCH  30  32
ATOM     32  C   UNL     1      -0.354  -7.522  -8.888  0.00  0.00    +0.099 C 
ATOM     33  N   UNL     1      -0.890  -8.474  -9.199  0.00  0.00    -0.191 NA
ENDBRANCH  30  32
ENDBRANCH  24  26
ENDBRANCH  21  22
ENDBRANCH  20  21
ENDBRANCH   4  20
TORSDOF 7
