REMARK  Name = ZINC04494624
REMARK  7 active torsions:
REMARK  status: ('A' for Active; 'I' for Inactive)
REMARK    1  A    between atoms: C_1  and  C_2
REMARK    2  A    between atoms: C_2  and  C_3
REMARK    3  A    between atoms: C_2  and  C_4
REMARK    4  A    between atoms: C_2  and  C_5
REMARK    5  A    between atoms: C_12  and  N_24
REMARK    6  A    between atoms: C_13  and  C_22
REMARK    7  A    between atoms: C_14  and  C_16
REMARK                            x       y       z     vdW  Elec       q    Type
REMARK                         _______ _______ _______ _____ _____    ______ ____
ROOT
ATOM      1  C   UNL     1       1.170  -0.432  -1.422  0.00  0.00    +0.049 A 
ATOM      2  C   UNL     1       1.165  -1.739  -1.722  0.00  0.00    +0.050 A 
ATOM      3  C   UNL     1       1.897  -1.917  -2.917  0.00  0.00    +0.245 A 
ATOM      4  N   UNL     1       2.320  -0.750  -3.308  0.00  0.00    -0.135 NA
ATOM      5  N   UNL     1       1.872   0.208  -2.385  0.00  0.00    -0.277 N 
ATOM      6  H   UNL     1       2.038   1.163  -2.429  0.00  0.00    +0.189 HD
ATOM      7  O   UNL     1       2.068  -3.142  -3.482  0.00  0.00    -0.421 OA
ATOM      8  C   UNL     1       1.298  -4.149  -3.025  0.00  0.00    +0.201 C 
ATOM      9  C   UNL     1       0.566  -4.100  -1.893  0.00  0.00    +0.099 C 
ATOM     10  C   UNL     1       0.529  -2.893  -0.990  0.00  0.00    +0.108 C 
ENDROOT
BRANCH  10  11
ATOM     11  C   UNL     1       1.298  -3.179   0.275  0.00  0.00    +0.004 A 
ATOM     12  C   UNL     1       0.828  -3.434   1.520  0.00  0.00    +0.013 A 
ATOM     13  C   UNL     1       1.728  -3.671   2.541  0.00  0.00    +0.023 A 
ATOM     14  C   UNL     1       3.056  -3.641   2.266  0.00  0.00    +0.055 A 
ATOM     15  S   UNL     1       3.063  -3.276   0.519  0.00  0.00    -0.085 S 
ATOM     16 BR   UNL     1       4.520  -3.919   3.431  0.00  0.00    -0.043 Br
ENDBRANCH  10  11
BRANCH   1  18
ATOM     17  C   UNL     1       0.650   1.730  -0.323  0.00  0.00    +0.017 C 
ATOM     18  C   UNL     1       0.507   0.209  -0.230  0.00  0.00    +0.004 C 
ATOM     19  C   UNL     1       1.175  -0.289   1.054  0.00  0.00    +0.017 C 
ATOM     20  C   UNL     1      -0.977  -0.163  -0.210  0.00  0.00    +0.017 C 
ENDBRANCH   1  18
BRANCH   8  21
ATOM     21  N   UNL     1       1.255  -5.306  -3.763  0.00  0.00    -0.328 N 
ATOM     22  H   UNL     1       1.768  -5.378  -4.583  0.00  0.00    +0.145 HD
ATOM     23  H   UNL     1       0.711  -6.052  -3.465  0.00  0.00    +0.145 HD
ENDBRANCH   8  21
BRANCH   9  24
ATOM     24  C   UNL     1      -0.211  -5.247  -1.531  0.00  0.00    +0.101 C 
ATOM     25  N   UNL     1      -0.827  -6.157  -1.244  0.00  0.00    -0.191 NA
ENDBRANCH   9  24
TORSDOF 4
