REMARK  Name = ZINC26918384
REMARK  7 active torsions:
REMARK  status: ('A' for Active; 'I' for Inactive)
REMARK    1  A    between atoms: C_1  and  C_2
REMARK    2  A    between atoms: C_5  and  N_9
REMARK    3  A    between atoms: C_7  and  C_8
REMARK    4  A    between atoms: C_13  and  S_14
REMARK    5  A    between atoms: S_14  and  C_15
REMARK    6  A    between atoms: C_15  and  C_16
REMARK    7  A    between atoms: N_18  and  C_19
REMARK                            x       y       z     vdW  Elec       q    Type
REMARK                         _______ _______ _______ _____ _____    ______ ____
ROOT
ATOM      1  C   UNL     1       1.142   7.434   0.243  0.00  0.00    +0.173 C 
ENDROOT
BRANCH   1   2
ATOM      2  C   UNL     1       1.141   5.931   0.123  0.00  0.00    +0.228 C 
ATOM      3  O   UNL     1       2.190   5.323   0.109  0.00  0.00    -0.275 OA
ATOM      4  N   UNL     1      -0.026   5.264   0.029  0.00  0.00    -0.283 N 
ATOM      5  H   UNL     1      -0.972   5.819  -0.051  0.00  0.00    +0.155 HD
BRANCH   4   6
ATOM      6  C   UNL     1      -0.034   3.864   0.034  0.00  0.00    +0.059 A 
ATOM      7  C   UNL     1       1.002   3.165   0.625  0.00  0.00    +0.025 A 
ATOM      8  C   UNL     1       1.001   1.776   0.633  0.00  0.00    +0.003 A 
ATOM      9  C   UNL     1      -0.019   1.076   0.059  0.00  0.00    +0.011 A 
ATOM     10  C   UNL     1      -1.080   1.758  -0.553  0.00  0.00    +0.021 A 
ATOM     11  C   UNL     1      -1.089   3.165  -0.559  0.00  0.00    +0.087 A 
ATOM     12  N   UNL     1      -2.235   3.547  -1.210  0.00  0.00    -0.275 N 
ATOM     13  H   UNL     1      -2.461   4.615  -1.344  0.00  0.00    +0.189 HD
ATOM     14  N   UNL     1      -2.924   2.390  -1.593  0.00  0.00    -0.181 NA
ATOM     15  C   UNL     1      -2.261   1.337  -1.211  0.00  0.00    +0.142 A 
ENDBRANCH   4   6
ENDBRANCH   1   2
BRANCH   1  16
ATOM     16  S   UNL     1       2.848   8.029   0.349  0.00  0.00    -0.076 S 
BRANCH  16  21
ATOM     17  N   UNL     1       3.510  10.740   0.589  0.00  0.00    -0.277 N 
ATOM     18  C   UNL     1       2.820  11.921   0.660  0.00  0.00    +0.230 A 
ATOM     19  N   UNL     1       1.551  11.632   0.593  0.00  0.00    -0.137 NA
ATOM     20  N   UNL     1       1.391  10.362   0.481  0.00  0.00    -0.122 NA
ATOM     21  C   UNL     1       2.559   9.763   0.478  0.00  0.00    +0.196 A 
BRANCH  17  26
ATOM     22  C   UNL     1       9.142  10.045   0.728  0.00  0.00    +0.044 C 
ATOM     23  C   UNL     1       7.647  10.230   0.691  0.00  0.00    -0.047 A 
ATOM     24  C   UNL     1       6.838   9.479   1.525  0.00  0.00    +0.005 A 
ATOM     25  C   UNL     1       5.468   9.650   1.498  0.00  0.00    +0.026 A 
ATOM     26  C   UNL     1       4.902  10.568   0.624  0.00  0.00    +0.050 A 
ATOM     27  C   UNL     1       5.716  11.320  -0.212  0.00  0.00    +0.030 A 
ATOM     28  C   UNL     1       7.086  11.149  -0.176  0.00  0.00    -0.046 A 
ATOM     29  C   UNL     1       7.971  11.965  -1.083  0.00  0.00    +0.044 C 
ENDBRANCH  17  26
ENDBRANCH  16  21
ENDBRANCH   1  16
TORSDOF 5
