REMARK  Name = ZINC33334618
REMARK  8 active torsions:
REMARK  status: ('A' for Active; 'I' for Inactive)
REMARK    1  A    between atoms: C_1  and  O_2
REMARK    2  A    between atoms: O_2  and  C_3
REMARK    3  A    between atoms: C_5  and  C_11
REMARK    4  A    between atoms: C_8  and  O_9
REMARK    5  A    between atoms: N_12  and  N_13
REMARK    6  A    between atoms: C_14  and  C_16
REMARK    7  A    between atoms: C_16  and  S_17
REMARK    8  A    between atoms: S_17  and  C_18
REMARK                            x       y       z     vdW  Elec       q    Type
REMARK                         _______ _______ _______ _____ _____    ______ ____
ROOT
ATOM      1  N   UNL     1      -1.442  -5.082  -0.696  0.00  0.00    -0.206 N 
ATOM      2  C   UNL     1      -1.741  -3.769  -0.645  0.00  0.00    +0.243 C 
ATOM      3  O   UNL     1      -2.786  -3.404  -0.148  0.00  0.00    -0.273 OA
ATOM      4  H   UNL     1      -0.495  -5.413  -1.146  0.00  0.00    +0.177 HD
ENDROOT
BRANCH   1   6
ATOM      5  C   UNL     1      -1.999  -7.277  -0.115  0.00  0.00    +0.138 C 
ATOM      6  N   UNL     1      -2.337  -6.026  -0.174  0.00  0.00    -0.188 NA
BRANCH   5   9
ATOM      7  C   UNL     1       1.129  -9.340  -0.367  0.00  0.00    +0.163 A 
ATOM      8  C   UNL     1      -0.208  -8.989  -0.346  0.00  0.00    +0.059 A 
ATOM      9  C   UNL     1      -0.575  -7.658  -0.132  0.00  0.00    -0.001 A 
ATOM     10  C   UNL     1       0.411  -6.690   0.074  0.00  0.00    +0.028 A 
ATOM     11  C   UNL     1       1.743  -7.048   0.058  0.00  0.00    +0.063 A 
ATOM     12  C   UNL     1       2.107  -8.370  -0.161  0.00  0.00    +0.173 A 
ATOM     13 BR   UNL     1       3.077  -5.737   0.336  0.00  0.00    -0.046 Br
BRANCH   7  15
ATOM     14  C   UNL     1       0.434 -11.575  -0.785  0.00  0.00    +0.277 C 
ATOM     15  O   UNL     1       1.489 -10.633  -0.582  0.00  0.00    -0.491 OA
ENDBRANCH   7  15
BRANCH  12  16
ATOM     16  O   UNL     1       3.421  -8.718  -0.175  0.00  0.00    -0.503 OA
ATOM     17  H   UNL     1       4.194  -7.953  -0.013  0.00  0.00    +0.292 HD
ENDBRANCH  12  16
ENDBRANCH   5   9
ENDBRANCH   1   6
BRANCH   2  18
ATOM     18  C   UNL     1      -0.778  -2.755  -1.206  0.00  0.00    +0.176 C 
BRANCH  18  19
ATOM     19  S   UNL     1      -1.460  -1.092  -0.989  0.00  0.00    -0.058 S 
BRANCH  19  20
ATOM     20  C   UNL     1      -0.168  -0.135  -1.711  0.00  0.00    +0.258 A 
ATOM     21  N   UNL     1       0.931  -0.626  -2.225  0.00  0.00    -0.203 NA
ATOM     22  C   UNL     1       1.694   0.403  -2.686  0.00  0.00    +0.110 A 
ATOM     23  C   UNL     1       2.938   0.473  -3.316  0.00  0.00    +0.031 A 
ATOM     24  C   UNL     1       3.456   1.700  -3.669  0.00  0.00    +0.002 A 
ATOM     25  C   UNL     1       2.750   2.863  -3.403  0.00  0.00    +0.004 A 
ATOM     26  C   UNL     1       1.519   2.807  -2.781  0.00  0.00    +0.048 A 
ATOM     27  C   UNL     1       0.983   1.582  -2.419  0.00  0.00    +0.156 A 
ATOM     28  O   UNL     1      -0.167   1.206  -1.813  0.00  0.00    -0.431 OA
ENDBRANCH  19  20
ENDBRANCH  18  19
ENDBRANCH   2  18
TORSDOF 7
