REMARK  Name = ZINC41585716
REMARK  10 active torsions:
REMARK  status: ('A' for Active; 'I' for Inactive)
REMARK    1  A    between atoms: C_1  and  C_2
REMARK    2  A    between atoms: C_2  and  N_3
REMARK    3  A    between atoms: C_5  and  C_12
REMARK    4  A    between atoms: C_17  and  C_39
REMARK    5  A    between atoms: C_19  and  O_38
REMARK    6  A    between atoms: C_20  and  C_23
REMARK    7  A    between atoms: C_23  and  N_24
REMARK    8  A    between atoms: N_27  and  C_30
REMARK    9  A    between atoms: C_33  and  O_36
REMARK   10  A    between atoms: O_36  and  C_37
REMARK                            x       y       z     vdW  Elec       q    Type
REMARK                         _______ _______ _______ _____ _____    ______ ____
ROOT
ATOM      1  C   UNL     1       0.737  -1.597  -4.636  0.00  0.00    +0.060 C 
ATOM      2  C   UNL     1      -0.540  -1.763  -5.083  0.00  0.00    +0.176 C 
ATOM      3  C   UNL     1      -1.720  -1.424  -4.370  0.00  0.00    +0.232 C 
ATOM      4  O   UNL     1      -1.797  -0.935  -3.255  0.00  0.00    -0.283 OA
ATOM      5  C   UNL     1      -2.831  -1.790  -5.265  0.00  0.00    +0.071 A 
ATOM      6  C   UNL     1      -4.219  -1.710  -5.156  0.00  0.00    -0.033 A 
ATOM      7  C   UNL     1      -5.009  -2.142  -6.184  0.00  0.00    +0.050 A 
ATOM      8  C   UNL     1      -4.432  -2.661  -7.340  0.00  0.00    +0.122 A 
ATOM      9  C   UNL     1      -3.055  -2.746  -7.463  0.00  0.00    +0.020 A 
ATOM     10  C   UNL     1      -2.239  -2.311  -6.427  0.00  0.00    +0.145 A 
ATOM     11  O   UNL     1      -0.896  -2.274  -6.285  0.00  0.00    -0.451 OA
ATOM     12  C   UNL     1      -4.847  -1.150  -3.905  0.00  0.00    +0.045 C 
ENDROOT
BRANCH   1  15
ATOM     13  N   UNL     1       0.781  -0.969  -1.041  0.00  0.00    -0.346 N 
ATOM     14  C   UNL     1       0.247  -1.549  -2.144  0.00  0.00    +0.094 A 
ATOM     15  C   UNL     1       0.979  -1.188  -3.254  0.00  0.00    +0.004 A 
ATOM     16  C   UNL     1       2.058  -0.305  -2.769  0.00  0.00    +0.007 A 
ATOM     17  C   UNL     1       1.878  -0.203  -1.380  0.00  0.00    +0.050 A 
ATOM     18  C   UNL     1       2.754   0.581  -0.635  0.00  0.00    +0.026 A 
ATOM     19  C   UNL     1       3.783   1.248  -1.263  0.00  0.00    +0.002 A 
ATOM     20  C   UNL     1       3.957   1.148  -2.635  0.00  0.00    +0.001 A 
ATOM     21  C   UNL     1       3.104   0.371  -3.389  0.00  0.00    +0.010 A 
BRANCH  13  23
ATOM     22  C   UNL     1      -0.682   0.030   0.645  0.00  0.00    +0.027 C 
ATOM     23  C   UNL     1       0.263  -1.129   0.320  0.00  0.00    +0.118 C 
ENDBRANCH  13  23
ENDBRANCH   1  15
BRANCH   8  24
ATOM     24  O   UNL     1      -5.226  -3.087  -8.355  0.00  0.00    -0.506 OA
ATOM     25  H   UNL     1      -5.438  -2.402  -9.004  0.00  0.00    +0.292 HD
ENDBRANCH   8  24
BRANCH   9  26
ATOM     26  C   UNL     1      -2.443  -3.310  -8.719  0.00  0.00    -0.035 C 
BRANCH  26  27
ATOM     27  N   UNL     1      -2.215  -2.225  -9.683  0.00  0.00    +0.385 N 
ATOM     28  C   UNL     1      -1.221  -1.291  -9.140  0.00  0.00    -0.059 C 
ATOM     29  C   UNL     1      -1.067  -0.100 -10.092  0.00  0.00    +0.086 C 
ATOM     30  N   UNL     1      -0.749  -0.613 -11.433  0.00  0.00    -0.333 N 
ATOM     31  C   UNL     1      -1.603  -1.674 -11.990  0.00  0.00    +0.086 C 
ATOM     32  C   UNL     1      -1.731  -2.791 -10.949  0.00  0.00    -0.059 C 
ATOM     33  H   UNL     1      -3.081  -1.734  -9.845  0.00  0.00    -0.081 HD
BRANCH  30  34
ATOM     34  C   UNL     1       0.335  -0.107 -12.159  0.00  0.00    +0.030 A 
ATOM     35  C   UNL     1       0.545  -0.515 -13.470  0.00  0.00    +0.027 A 
ATOM     36  C   UNL     1       1.615  -0.014 -14.186  0.00  0.00    +0.047 A 
ATOM     37  C   UNL     1       2.480   0.895 -13.595  0.00  0.00    +0.120 A 
ATOM     38  C   UNL     1       2.271   1.303 -12.286  0.00  0.00    +0.047 A 
ATOM     39  C   UNL     1       1.198   0.808 -11.571  0.00  0.00    +0.027 A 
BRANCH  37  40
ATOM     40  O   UNL     1       3.533   1.388 -14.301  0.00  0.00    -0.495 OA
ATOM     41  C   UNL     1       4.383   2.321 -13.631  0.00  0.00    +0.277 C 
ENDBRANCH  37  40
ENDBRANCH  30  34
ENDBRANCH  26  27
ENDBRANCH   9  26
TORSDOF 7
