REMARK  Name = ZINC38818511
REMARK  5 active torsions:
REMARK  status: ('A' for Active; 'I' for Inactive)
REMARK    1  A    between atoms: C_1  and  C_2
REMARK    2  A    between atoms: C_2  and  C_4
REMARK    3  A    between atoms: C_2  and  N_18
REMARK    4  A    between atoms: N_6  and  N_7
REMARK    5  A    between atoms: C_8  and  C_9
REMARK                            x       y       z     vdW  Elec       q    Type
REMARK                         _______ _______ _______ _____ _____    ______ ____
ROOT
ATOM      1  C   UNL     1       0.818  -0.730  -1.098  0.00  0.00    +0.253 C 
ATOM      2  O   UNL     1       0.209  -1.388  -1.915  0.00  0.00    -0.272 OA
ATOM      3  N   UNL     1       2.077  -0.327  -1.362  0.00  0.00    -0.205 N 
ATOM      4  H   UNL     1       2.564   0.200  -0.709  0.00  0.00    +0.177 HD
ENDROOT
BRANCH   1   6
ATOM      5  C   UNL     1       0.101   1.160   0.338  0.00  0.00    +0.038 C 
ATOM      6  C   UNL     1       0.167  -0.363   0.211  0.00  0.00    +0.162 C 
BRANCH   6   7
ATOM      7  N   UNL     1      -1.188  -0.916   0.254  0.00  0.00    -0.270 N 
ATOM      8  C   UNL     1      -1.547  -1.860   1.313  0.00  0.00    +0.214 C 
ATOM      9  N   UNL     1      -2.959  -1.702   1.679  0.00  0.00    -0.328 N 
ATOM     10  C   UNL     1      -3.900  -1.552   0.667  0.00  0.00    +0.040 A 
ATOM     11  C   UNL     1      -5.211  -1.972   0.822  0.00  0.00    +0.024 A 
ATOM     12  C   UNL     1      -6.113  -1.791  -0.208  0.00  0.00    +0.002 A 
ATOM     13  C   UNL     1      -5.718  -1.194  -1.394  0.00  0.00    +0.001 A 
ATOM     14  C   UNL     1      -4.415  -0.774  -1.567  0.00  0.00    +0.015 A 
ATOM     15  C   UNL     1      -3.493  -0.955  -0.538  0.00  0.00    +0.058 A 
ATOM     16  C   UNL     1      -2.086  -0.543  -0.680  0.00  0.00    +0.250 C 
ATOM     17  O   UNL     1      -1.737   0.126  -1.634  0.00  0.00    -0.270 OA
ATOM     18  H   UNL     1      -3.231  -1.704   2.610  0.00  0.00    +0.148 HD
ENDBRANCH   6   7
ENDBRANCH   1   6
BRANCH   3  19
ATOM     19  N   UNL     1       2.682  -0.667  -2.578  0.00  0.00    -0.188 NA
ATOM     20  C   UNL     1       3.860  -0.185  -2.881  0.00  0.00    +0.136 C 
BRANCH  20  21
ATOM     21  C   UNL     1       4.543   0.626  -1.963  0.00  0.00    +0.000 C 
ATOM     22  C   UNL     1       5.789   1.225  -2.133  0.00  0.00    +0.004 A 
ATOM     23  C   UNL     1       6.713   1.220  -3.201  0.00  0.00    +0.010 A 
ATOM     24  C   UNL     1       7.877   1.908  -3.087  0.00  0.00    +0.001 A 
ATOM     25  C   UNL     1       8.191   2.631  -1.932  0.00  0.00    +0.002 A 
ATOM     26  C   UNL     1       7.353   2.680  -0.869  0.00  0.00    +0.026 A 
ATOM     27  C   UNL     1       6.115   1.984  -0.913  0.00  0.00    +0.043 A 
ATOM     28  N   UNL     1       5.146   1.876  -0.030  0.00  0.00    -0.380 N 
ATOM     29  C   UNL     1       4.078   1.037  -0.584  0.00  0.00    +0.150 C 
ATOM     30  H   UNL     1       5.137   2.289   0.848  0.00  0.00    +0.160 HD
ENDBRANCH  20  21
ENDBRANCH   3  19
TORSDOF 4
