REMARK  Name = ZINC09867876
REMARK  5 active torsions:
REMARK  status: ('A' for Active; 'I' for Inactive)
REMARK    1  A    between atoms: C_1  and  C_2
REMARK    2  A    between atoms: N_11  and  C_15
REMARK    3  A    between atoms: C_15  and  N_63
REMARK    4  A    between atoms: N_18  and  C_21
REMARK    5  A    between atoms: N_24  and  C_29
REMARK                            x       y       z     vdW  Elec       q    Type
REMARK                         _______ _______ _______ _____ _____    ______ ____
ROOT
ATOM      1  C   UNL     1       2.465   0.494  -1.995  0.00  0.00    -0.057 C 
ATOM      2  C   UNL     1       2.897   0.426  -3.462  0.00  0.00    +0.086 C 
ATOM      3  N   UNL     1       4.354   0.244  -3.532  0.00  0.00    -0.331 N 
ATOM      4  C   UNL     1       5.053   1.353  -2.869  0.00  0.00    +0.086 C 
ATOM      5  C   UNL     1       4.620   1.421  -1.402  0.00  0.00    -0.057 C 
ATOM      6  N   UNL     1       3.158   1.627  -1.346  0.00  0.00    +0.392 N 
ATOM      7  H   UNL     1       2.923   2.492  -1.846  0.00  0.00    -0.079 HD
ENDROOT
BRANCH   3   8
ATOM      8  C   UNL     1       4.774   0.106  -4.845  0.00  0.00    +0.074 A 
ATOM      9  C   UNL     1       4.609   1.167  -5.760  0.00  0.00    +0.158 A 
ATOM     10  N   UNL     1       5.009   1.042  -6.995  0.00  0.00    -0.170 NA
ATOM     11  N   UNL     1       5.598  -0.144  -7.445  0.00  0.00    -0.195 N 
ATOM     12  C   UNL     1       5.770  -1.185  -6.606  0.00  0.00    +0.292 A 
ATOM     13  O   UNL     1       6.285  -2.218  -7.006  0.00  0.00    -0.264 OA
ATOM     14  C   UNL     1       5.355  -1.075  -5.272  0.00  0.00    +0.129 A 
ATOM     15 CL   UNL     1       5.565  -2.401  -4.171  0.00  0.00    -0.076 Cl
BRANCH  11  16
ATOM     16  C   UNL     1       6.013  -0.251  -8.777  0.00  0.00    +0.069 A 
ATOM     17  C   UNL     1       7.284  -0.724  -9.075  0.00  0.00    +0.028 A 
ATOM     18  C   UNL     1       7.688  -0.833 -10.391  0.00  0.00    +0.002 A 
ATOM     19  C   UNL     1       6.832  -0.462 -11.412  0.00  0.00    +0.000 A 
ATOM     20  C   UNL     1       5.567   0.015 -11.118  0.00  0.00    +0.002 A 
ATOM     21  C   UNL     1       5.155   0.121  -9.805  0.00  0.00    +0.028 A 
ENDBRANCH  11  16
ENDBRANCH   3   8
BRANCH   6  22
ATOM     22  C   UNL     1       2.718   1.749   0.060  0.00  0.00    +0.043 C 
BRANCH  22  32
ATOM     23  C   UNL     1      -0.663   3.287  -2.392  0.00  0.00    +0.010 C 
ATOM     24  C   UNL     1      -1.585   3.118  -1.183  0.00  0.00    +0.018 C 
ATOM     25  C   UNL     1      -2.556   4.300  -1.113  0.00  0.00    +0.006 C 
ATOM     26  C   UNL     1      -3.464   4.141   0.108  0.00  0.00    +0.000 C 
ATOM     27  C   UNL     1      -2.612   4.117   1.379  0.00  0.00    +0.003 C 
ATOM     28  C   UNL     1      -1.642   2.935   1.319  0.00  0.00    +0.035 C 
ATOM     29  C   UNL     1      -0.748   3.068   0.091  0.00  0.00    +0.115 C 
ATOM     30  C   UNL     1       0.237   1.924   0.029  0.00  0.00    +0.245 C 
ATOM     31  O   UNL     1      -0.016   0.742  -0.064  0.00  0.00    -0.273 OA
ATOM     32  N   UNL     1       1.458   2.495   0.094  0.00  0.00    -0.241 N 
ATOM     33  C   UNL     1       1.374   3.827   0.192  0.00  0.00    +0.308 C 
ATOM     34  O   UNL     1       2.339   4.562   0.263  0.00  0.00    -0.252 OA
ATOM     35  N   UNL     1       0.099   4.263   0.201  0.00  0.00    -0.285 N 
ATOM     36  H   UNL     1      -0.200   5.183   0.264  0.00  0.00    +0.151 HD
ENDBRANCH  22  32
ENDBRANCH   6  22
TORSDOF 4
