REMARK  Name = ZINC13298903
REMARK  7 active torsions:
REMARK  status: ('A' for Active; 'I' for Inactive)
REMARK    1  A    between atoms: C_1  and  C_2
REMARK    2  A    between atoms: C_5  and  C_34
REMARK    3  A    between atoms: C_10  and  C_12
REMARK    4  A    between atoms: C_12  and  N_62
REMARK    5  A    between atoms: N_15  and  C_18
REMARK    6  A    between atoms: N_21  and  C_26
REMARK    7  A    between atoms: C_31  and  C_32
REMARK                            x       y       z     vdW  Elec       q    Type
REMARK                         _______ _______ _______ _____ _____    ______ ____
ROOT
ATOM      1  C   UNL     1       0.614  -2.044  -1.206  0.00  0.00    -0.059 C 
ATOM      2  C   UNL     1       0.684  -0.515  -1.196  0.00  0.00    +0.086 C 
ATOM      3  N   UNL     1       0.002  -0.004   0.002  0.00  0.00    -0.331 N 
ATOM      4  C   UNL     1       0.627  -0.529   1.224  0.00  0.00    +0.086 C 
ATOM      5  C   UNL     1       0.556  -2.058   1.214  0.00  0.00    -0.059 C 
ATOM      6  N   UNL     1       1.264  -2.559   0.017  0.00  0.00    +0.387 N 
ATOM      7  H   UNL     1       2.236  -2.230   0.042  0.00  0.00    -0.081 HD
ENDROOT
BRANCH   3   8
ATOM      8  C   UNL     1      -0.017   1.381   0.010  0.00  0.00    +0.074 A 
ATOM      9  C   UNL     1       1.192   2.110   0.002  0.00  0.00    +0.158 A 
ATOM     10  N   UNL     1       1.177   3.413   0.008  0.00  0.00    -0.170 NA
ATOM     11  N   UNL     1      -0.030   4.120   0.023  0.00  0.00    -0.195 N 
ATOM     12  C   UNL     1      -1.208   3.465   0.031  0.00  0.00    +0.292 A 
ATOM     13  O   UNL     1      -2.258   4.088   0.044  0.00  0.00    -0.264 OA
ATOM     14  C   UNL     1      -1.220   2.062   0.019  0.00  0.00    +0.129 A 
ATOM     15 CL   UNL     1      -2.724   1.195   0.022  0.00  0.00    -0.076 Cl
BRANCH  11  16
ATOM     16  C   UNL     1      -0.015   5.514   0.029  0.00  0.00    +0.083 A 
ATOM     17  C   UNL     1      -0.700   6.223  -0.948  0.00  0.00    +0.029 A 
ATOM     18  C   UNL     1      -0.688   7.604  -0.937  0.00  0.00    +0.002 A 
ATOM     19  C   UNL     1       0.015   8.291   0.039  0.00  0.00    +0.001 A 
ATOM     20  C   UNL     1       0.706   7.604   1.013  0.00  0.00    +0.017 A 
ATOM     21  C   UNL     1       0.698   6.207   1.019  0.00  0.00    +0.089 A 
BRANCH  21  22
ATOM     22  C   UNL     1       1.435   5.465   2.059  0.00  0.00    +0.389 C 
ATOM     23  O   UNL     1       1.425   4.250   2.061  0.00  0.00    -0.241 OA
ATOM     24  O   UNL     1       2.118   6.135   3.008  0.00  0.00    -0.241 OA
ENDBRANCH  21  22
ENDBRANCH  11  16
ENDBRANCH   3   8
BRANCH   6  25
ATOM     25  C   UNL     1       1.258  -4.038   0.008  0.00  0.00    +0.019 C 
BRANCH  25  33
ATOM     26  C   UNL     1       2.021  -8.885  -0.927  0.00  0.00    +0.009 C 
ATOM     27  C   UNL     1       2.696  -7.785  -0.105  0.00  0.00    +0.004 C 
ATOM     28  C   UNL     1       3.458  -8.416   1.063  0.00  0.00    +0.009 C 
ATOM     29  C   UNL     1       4.161  -7.319   1.867  0.00  0.00    +0.004 C 
ATOM     30  C   UNL     1       3.112  -6.358   2.437  0.00  0.00    +0.111 C 
ATOM     31  N   UNL     1       2.280  -5.859   1.334  0.00  0.00    -0.303 N 
ATOM     32  C   UNL     1       1.627  -6.830   0.446  0.00  0.00    +0.111 C 
ATOM     33  C   UNL     1       2.115  -4.535   1.144  0.00  0.00    +0.199 C 
ATOM     34  O   UNL     1       2.655  -3.743   1.887  0.00  0.00    -0.278 OA
ATOM     35  C   UNL     1       5.117  -6.549   0.954  0.00  0.00    +0.009 C 
ENDBRANCH  25  33
ENDBRANCH   6  25
TORSDOF 5
