REMARK  Name = ZINC49202444
REMARK  7 active torsions:
REMARK  status: ('A' for Active; 'I' for Inactive)
REMARK    1  A    between atoms: C_1  and  C_2
REMARK    2  A    between atoms: C_2  and  C_4
REMARK    3  A    between atoms: C_2  and  N_13
REMARK    4  A    between atoms: C_14  and  C_16
REMARK    5  A    between atoms: N_18  and  C_19
REMARK    6  A    between atoms: C_26  and  C_28
REMARK    7  A    between atoms: C_26  and  C_29
REMARK                            x       y       z     vdW  Elec       q    Type
REMARK                         _______ _______ _______ _____ _____    ______ ____
ROOT
ATOM      1  N   UNL     1       0.686  -0.481  -1.202  0.00  0.00    -0.298 N 
ATOM      2  C   UNL     1       0.004  -0.614  -2.357  0.00  0.00    +0.300 C 
ATOM      3  O   UNL     1      -1.179  -0.350  -2.397  0.00  0.00    -0.265 OA
ATOM      4  H   UNL     1       1.633  -0.692  -1.170  0.00  0.00    +0.150 HD
ENDROOT
BRANCH   2   5
ATOM      5  C   UNL     1       0.706  -1.088  -3.588  0.00  0.00    +0.303 C 
ATOM      6  O   UNL     1       1.890  -1.352  -3.548  0.00  0.00    -0.265 OA
ATOM      7  N   UNL     1       0.024  -1.221  -4.742  0.00  0.00    -0.278 N 
ATOM      8  H   UNL     1      -0.935  -1.075  -4.759  0.00  0.00    +0.155 HD
BRANCH   7   9
ATOM      9  C   UNL     1       0.698  -1.571  -5.916  0.00  0.00    +0.038 A 
ATOM     10  C   UNL     1       0.293  -1.042  -7.135  0.00  0.00    +0.027 A 
ATOM     11  C   UNL     1       0.958  -1.387  -8.295  0.00  0.00    +0.051 A 
ATOM     12  C   UNL     1       2.031  -2.262  -8.248  0.00  0.00    +0.167 A 
ATOM     13  C   UNL     1       2.441  -2.795  -7.027  0.00  0.00    +0.169 A 
ATOM     14  C   UNL     1       1.777  -2.444  -5.864  0.00  0.00    +0.073 A 
ATOM     15  O   UNL     1       3.506  -3.619  -7.246  0.00  0.00    -0.448 OA
ATOM     16  C   UNL     1       3.487  -3.906  -8.657  0.00  0.00    +0.248 C 
ATOM     17  O   UNL     1       2.841  -2.754  -9.231  0.00  0.00    -0.448 OA
ATOM     18  C   UNL     1       4.912  -4.047  -9.197  0.00  0.00    +0.104 C 
ATOM     19  C   UNL     1       2.676  -5.172  -8.938  0.00  0.00    +0.104 C 
ENDBRANCH   7   9
ENDBRANCH   2   5
BRANCH   1  21
ATOM     20  C   UNL     1      -0.033   1.513   0.017  0.00  0.00    +0.036 C 
ATOM     21  C   UNL     1      -0.002  -0.016   0.005  0.00  0.00    +0.136 C 
BRANCH  21  22
ATOM     22  C   UNL     1       0.732  -0.513   1.224  0.00  0.00    +0.126 A 
ATOM     23  C   UNL     1       0.146  -0.975   2.337  0.00  0.00    +0.055 A 
ATOM     24  C   UNL     1       1.235  -1.344   3.249  0.00  0.00    +0.020 A 
ATOM     25  C   UNL     1       1.290  -1.874   4.538  0.00  0.00    +0.011 A 
ATOM     26  C   UNL     1       2.503  -2.107   5.124  0.00  0.00    +0.001 A 
ATOM     27  C   UNL     1       3.678  -1.820   4.444  0.00  0.00    +0.004 A 
ATOM     28  C   UNL     1       3.644  -1.296   3.170  0.00  0.00    +0.047 A 
ATOM     29  C   UNL     1       2.421  -1.052   2.556  0.00  0.00    +0.135 A 
ATOM     30  O   UNL     1       2.070  -0.563   1.350  0.00  0.00    -0.458 OA
ENDBRANCH  21  22
ENDBRANCH   1  21
TORSDOF 4
