REMARK  Name = ZINC40104508
REMARK  9 active torsions:
REMARK  status: ('A' for Active; 'I' for Inactive)
REMARK    1  A    between atoms: C_1  and  N_2
REMARK    2  A    between atoms: N_2  and  C_3
REMARK    3  A    between atoms: N_2  and  C_4
REMARK    4  A    between atoms: C_4  and  C_6
REMARK    5  A    between atoms: C_4  and  C_25
REMARK    6  A    between atoms: C_6  and  N_7
REMARK    7  A    between atoms: N_10  and  C_11
REMARK    8  A    between atoms: C_15  and  N_17
REMARK    9  A    between atoms: C_18  and  C_20
REMARK                            x       y       z     vdW  Elec       q    Type
REMARK                         _______ _______ _______ _____ _____    ______ ____
ROOT
ATOM      1  N   UNL     1      -1.792   1.567  -1.122  0.00  0.00    -0.300 N 
ATOM      2  C   UNL     1      -2.278   2.288  -2.152  0.00  0.00    +0.304 C 
ATOM      3  O   UNL     1      -2.957   1.749  -3.005  0.00  0.00    -0.253 OA
ATOM      4  N   UNL     1      -2.012   3.606  -2.236  0.00  0.00    -0.269 N 
ATOM      5  H   UNL     1      -1.251   1.996  -0.442  0.00  0.00    +0.150 HD
ATOM      6  H   UNL     1      -1.408   4.021  -1.600  0.00  0.00    +0.156 HD
ENDROOT
BRANCH   4   7
ATOM      7  C   UNL     1      -2.606   4.377  -3.242  0.00  0.00    +0.037 A 
ATOM      8  C   UNL     1      -1.905   5.430  -3.817  0.00  0.00    +0.023 A 
ATOM      9  C   UNL     1      -2.491   6.192  -4.809  0.00  0.00    +0.004 A 
ATOM     10  C   UNL     1      -3.776   5.910  -5.233  0.00  0.00    +0.023 A 
ATOM     11  C   UNL     1      -4.482   4.859  -4.662  0.00  0.00    +0.035 A 
ATOM     12  C   UNL     1      -3.894   4.088  -3.669  0.00  0.00    +0.046 A 
BRANCH  11  13
ATOM     13  N   UNL     1      -5.782   4.574  -5.091  0.00  0.00    -0.281 N 
ATOM     14  C   UNL     1      -6.120   4.755  -6.383  0.00  0.00    +0.255 C 
ATOM     15  O   UNL     1      -5.272   5.076  -7.195  0.00  0.00    -0.269 OA
ATOM     16  H   UNL     1      -6.441   4.246  -4.459  0.00  0.00    +0.155 HD
BRANCH  14  17
ATOM     17  C   UNL     1      -7.508   4.565  -6.811  0.00  0.00    +0.074 A 
ATOM     18  C   UNL     1      -8.058   4.693  -8.078  0.00  0.00    +0.021 A 
ATOM     19  C   UNL     1      -9.408   4.449  -8.171  0.00  0.00    +0.008 A 
ATOM     20  C   UNL     1     -10.094   4.107  -7.052  0.00  0.00    +0.046 A 
ATOM     21  S   UNL     1      -8.930   4.100  -5.841  0.00  0.00    -0.092 S 
ENDBRANCH  14  17
ENDBRANCH  11  13
ENDBRANCH   4   7
BRANCH   1  22
ATOM     22  C   UNL     1      -2.082   0.133  -1.030  0.00  0.00    +0.095 C 
BRANCH  22  23
ATOM     23  C   UNL     1      -1.318  -0.467   0.151  0.00  0.00    -0.014 C 
BRANCH  23  24
ATOM     24  C   UNL     1      -1.842   0.118   1.438  0.00  0.00    -0.022 A 
ATOM     25  C   UNL     1      -1.324   1.117   2.195  0.00  0.00    +0.009 A 
ATOM     26  C   UNL     1      -1.984   1.494   3.349  0.00  0.00    +0.008 A 
ATOM     27  C   UNL     1      -3.129   0.854   3.691  0.00  0.00    +0.045 A 
ATOM     28  S   UNL     1      -3.310  -0.318   2.356  0.00  0.00    -0.103 S 
ENDBRANCH  23  24
BRANCH  23  30
ATOM     29  C   UNL     1      -0.894  -2.506  -1.038  0.00  0.00    -0.096 C 
ATOM     30  N   UNL     1      -1.503  -1.924   0.165  0.00  0.00    +0.382 N 
ATOM     31  C   UNL     1      -0.863  -2.488   1.361  0.00  0.00    -0.096 C 
ATOM     32  H   UNL     1      -2.490  -2.137   0.180  0.00  0.00    -0.082 HD
ENDBRANCH  23  30
ENDBRANCH  22  23
ENDBRANCH   1  22
TORSDOF 7
