REMARK  Name = ZINC65923179
REMARK  8 active torsions:
REMARK  status: ('A' for Active; 'I' for Inactive)
REMARK    1  A    between atoms: C_1  and  C_2
REMARK    2  A    between atoms: C_2  and  C_3
REMARK    3  A    between atoms: C_2  and  C_4
REMARK    4  A    between atoms: C_2  and  N_5
REMARK    5  A    between atoms: C_7  and  N_10
REMARK    6  A    between atoms: C_11  and  C_13
REMARK    7  A    between atoms: C_13  and  O_14
REMARK    8  A    between atoms: O_14  and  C_15
REMARK                            x       y       z     vdW  Elec       q    Type
REMARK                         _______ _______ _______ _____ _____    ______ ____
ROOT
ATOM      1  C   UNL     1       4.932  -1.864  -5.158  0.00  0.00    +0.324 C 
ENDROOT
BRANCH   1   3
ATOM      2  N   UNL     1       3.508  -1.150  -3.265  0.00  0.00    -0.280 N 
ATOM      3  C   UNL     1       3.588  -1.686  -4.500  0.00  0.00    +0.255 C 
ATOM      4  O   UNL     1       2.579  -2.025  -5.080  0.00  0.00    -0.272 OA
ATOM      5  H   UNL     1       4.315  -0.879  -2.801  0.00  0.00    +0.155 HD
BRANCH   2   8
ATOM      6  N   UNL     1       0.688  -0.476  -1.203  0.00  0.00    -0.264 N 
ATOM      7  C   UNL     1       2.029  -0.461  -1.418  0.00  0.00    +0.132 A 
ATOM      8  C   UNL     1       2.252  -0.984  -2.651  0.00  0.00    +0.071 A 
ATOM      9  C   UNL     1       1.010  -1.329  -3.203  0.00  0.00    +0.157 A 
ATOM     10  N   UNL     1       0.077  -1.030  -2.336  0.00  0.00    -0.177 NA
BRANCH   6  12
ATOM     11  C   UNL     1      -0.019   1.526   0.010  0.00  0.00    +0.036 C 
ATOM     12  C   UNL     1       0.002  -0.004   0.002  0.00  0.00    +0.055 C 
ATOM     13  C   UNL     1       0.742  -0.511   1.242  0.00  0.00    +0.036 C 
ATOM     14  C   UNL     1      -1.433  -0.534   0.013  0.00  0.00    +0.036 C 
ENDBRANCH   6  12
ENDBRANCH   2   8
ENDBRANCH   1   3
BRANCH   1  15
ATOM     15  O   UNL     1       4.756  -2.447  -6.450  0.00  0.00    -0.483 OA
BRANCH  15  16
ATOM     16  C   UNL     1       5.878  -2.676  -7.183  0.00  0.00    +0.122 A 
ATOM     17  C   UNL     1       7.123  -2.351  -6.663  0.00  0.00    +0.047 A 
ATOM     18  C   UNL     1       8.264  -2.583  -7.406  0.00  0.00    +0.027 A 
ATOM     19  C   UNL     1       8.165  -3.142  -8.673  0.00  0.00    +0.037 A 
ATOM     20  C   UNL     1       6.919  -3.467  -9.192  0.00  0.00    -0.022 A 
ATOM     21  C   UNL     1       5.779  -3.240  -8.446  0.00  0.00    +0.051 A 
ATOM     22  C   UNL     1       6.814  -4.074 -10.567  0.00  0.00    +0.046 C 
ATOM     23  C   UNL     1       7.909  -3.498 -11.465  0.00  0.00    +0.101 C 
ATOM     24  C   UNL     1       9.237  -3.562 -10.759  0.00  0.00    +0.218 C 
ATOM     25  O   UNL     1      10.245  -3.781 -11.398  0.00  0.00    -0.275 OA
ATOM     26  N   UNL     1       9.319  -3.379  -9.429  0.00  0.00    -0.285 N 
ATOM     27  H   UNL     1      10.184  -3.411  -8.991  0.00  0.00    +0.155 HD
ENDBRANCH  15  16
ENDBRANCH   1  15
TORSDOF 5
