REMARK  Name = ZINC59427692
REMARK  5 active torsions:
REMARK  status: ('A' for Active; 'I' for Inactive)
REMARK    1  A    between atoms: C_4  and  C_7
REMARK    2  A    between atoms: C_9  and  C_27
REMARK    3  A    between atoms: C_10  and  C_21
REMARK    4  A    between atoms: N_11  and  C_12
REMARK    5  A    between atoms: C_15  and  N_18
REMARK                            x       y       z     vdW  Elec       q    Type
REMARK                         _______ _______ _______ _____ _____    ______ ____
ROOT
ATOM      1  C   UNL     1       3.446  -0.640   0.474  0.00  0.00    +0.055 A 
ATOM      2  C   UNL     1       4.668   0.042   0.605  0.00  0.00    +0.036 A 
ATOM      3  C   UNL     1       5.687  -0.898   0.532  0.00  0.00    +0.003 A 
ATOM      4  C   UNL     1       5.026  -2.216   0.346  0.00  0.00    +0.062 A 
ATOM      5  N   UNL     1       3.681  -1.990   0.327  0.00  0.00    -0.308 N 
ENDROOT
BRANCH   3   6
ATOM      6  C   UNL     1       7.075  -0.650   0.616  0.00  0.00    +0.038 C 
ATOM      7  C   UNL     1       7.561   0.630   0.432  0.00  0.00    +0.100 C 
ATOM      8  C   UNL     1       8.946   1.104   0.637  0.00  0.00    +0.286 C 
ATOM      9  O   UNL     1      10.000   0.367   1.047  0.00  0.00    -0.267 OA
ATOM     10  N   UNL     1       8.947   2.387   0.342  0.00  0.00    -0.123 NA
ATOM     11  C   UNL     1       7.720   2.776  -0.028  0.00  0.00    +0.331 C 
ATOM     12  O   UNL     1       7.426   3.911  -0.357  0.00  0.00    -0.250 OA
ATOM     13  N   UNL     1       6.857   1.745   0.009  0.00  0.00    -0.263 N 
ATOM     14  H   UNL     1       5.914   1.777  -0.217  0.00  0.00    +0.157 HD
ENDBRANCH   3   6
BRANCH   1  18
ATOM     15  C   UNL     1      -0.376   1.173   0.542  0.00  0.00    +0.000 A 
ATOM     16  C   UNL     1      -0.219  -0.082  -0.029  0.00  0.00    +0.001 A 
ATOM     17  C   UNL     1       1.015  -0.678  -0.057  0.00  0.00    +0.010 A 
ATOM     18  C   UNL     1       2.125  -0.013   0.497  0.00  0.00    -0.001 A 
ATOM     19  C   UNL     1       1.954   1.259   1.074  0.00  0.00    +0.010 A 
ATOM     20  C   UNL     1       0.711   1.837   1.091  0.00  0.00    +0.001 A 
ENDBRANCH   1  18
BRANCH   5  21
ATOM     21  C   UNL     1       2.696  -2.972   0.176  0.00  0.00    +0.047 A 
ATOM     22  C   UNL     1       2.566  -3.650  -1.029  0.00  0.00    +0.028 A 
ATOM     23  C   UNL     1       1.593  -4.619  -1.174  0.00  0.00    +0.035 A 
ATOM     24  C   UNL     1       0.748  -4.915  -0.120  0.00  0.00    +0.126 A 
ATOM     25  C   UNL     1       0.874  -4.242   1.081  0.00  0.00    +0.035 A 
ATOM     26  C   UNL     1       1.849  -3.276   1.234  0.00  0.00    +0.028 A 
BRANCH  24  27
ATOM     27  N   UNL     1      -0.295  -5.953  -0.280  0.00  0.00    +0.056 N 
ATOM     28  O   UNL     1      -0.417  -6.594  -1.424  0.00  0.00    -0.126 OA
ATOM     29  O   UNL     1      -1.101  -6.236   0.723  0.00  0.00    -0.126 OA
ENDBRANCH  24  27
ENDBRANCH   5  21
BRANCH   4  30
ATOM     30  C   UNL     1       5.668  -3.467   0.220  0.00  0.00    -0.001 A 
ATOM     31  C   UNL     1       5.338  -4.527   1.091  0.00  0.00    +0.010 A 
ATOM     32  C   UNL     1       5.966  -5.732   0.959  0.00  0.00    +0.001 A 
ATOM     33  C   UNL     1       6.926  -5.916  -0.026  0.00  0.00    +0.000 A 
ATOM     34  C   UNL     1       7.261  -4.881  -0.888  0.00  0.00    +0.001 A 
ATOM     35  C   UNL     1       6.642  -3.669  -0.780  0.00  0.00    +0.010 A 
ENDBRANCH   4  30
TORSDOF 5
