REMARK  Name = ZINC64480211
REMARK  8 active torsions:
REMARK  status: ('A' for Active; 'I' for Inactive)
REMARK    1  A    between atoms: C_1  and  C_2
REMARK    2  A    between atoms: C_3  and  C_30
REMARK    3  A    between atoms: N_6  and  C_19
REMARK    4  A    between atoms: C_10  and  N_11
REMARK    5  A    between atoms: N_11  and  C_12
REMARK    6  A    between atoms: C_15  and  O_18
REMARK    7  A    between atoms: C_19  and  C_20
REMARK    8  A    between atoms: C_20  and  C_21
REMARK                            x       y       z     vdW  Elec       q    Type
REMARK                         _______ _______ _______ _____ _____    ______ ____
ROOT
ATOM      1  C   UNL     1      -0.160   1.480   0.003  0.00  0.00    +0.046 C 
ATOM      2  C   UNL     1       0.006  -0.018   0.002  0.00  0.00    -0.015 C 
ATOM      3  C   UNL     1       0.081  -0.720  -1.193  0.00  0.00    +0.118 C 
ATOM      4  C   UNL     1       0.242  -2.175  -1.167  0.00  0.00    +0.264 C 
ATOM      5  O   UNL     1       0.309  -2.791  -2.214  0.00  0.00    -0.269 OA
ATOM      6  N   UNL     1       0.318  -2.838   0.000  0.00  0.00    -0.233 N 
ATOM      7  C   UNL     1       0.248  -2.193   1.178  0.00  0.00    +0.255 C 
ATOM      8  O   UNL     1       0.320  -2.821   2.218  0.00  0.00    -0.269 OA
ATOM      9  C   UNL     1       0.092  -0.733   1.216  0.00  0.00    +0.055 C 
ATOM     10  C   UNL     1       0.025  -0.063   2.435  0.00  0.00    +0.085 C 
ENDROOT
BRANCH  10  11
ATOM     11  N   UNL     1      -0.056  -0.760   3.582  0.00  0.00    -0.320 N 
ATOM     12  H   UNL     1      -0.043  -1.730   3.563  0.00  0.00    +0.152 HD
BRANCH  11  13
ATOM     13  C   UNL     1      -0.159  -0.087   4.804  0.00  0.00    +0.031 A 
ATOM     14  C   UNL     1      -0.184   1.302   4.832  0.00  0.00    +0.027 A 
ATOM     15  C   UNL     1      -0.287   1.965   6.039  0.00  0.00    +0.047 A 
ATOM     16  C   UNL     1      -0.365   1.246   7.222  0.00  0.00    +0.117 A 
ATOM     17  C   UNL     1      -0.340  -0.141   7.195  0.00  0.00    +0.047 A 
ATOM     18  C   UNL     1      -0.243  -0.807   5.989  0.00  0.00    +0.027 A 
BRANCH  16  19
ATOM     19  O   UNL     1      -0.466   1.900   8.410  0.00  0.00    -0.507 OA
ATOM     20  H   UNL     1      -1.375   2.075   8.686  0.00  0.00    +0.292 HD
ENDBRANCH  16  19
ENDBRANCH  11  13
ENDBRANCH  10  11
BRANCH   3  21
ATOM     21  C   UNL     1       0.002  -0.026  -2.443  0.00  0.00    +0.105 C 
ATOM     22  N   UNL     1      -0.061   0.524  -3.435  0.00  0.00    -0.191 NA
ENDBRANCH   3  21
BRANCH   6  23
ATOM     23  C   UNL     1       0.478  -4.294  -0.012  0.00  0.00    +0.121 C 
BRANCH  23  24
ATOM     24  C   UNL     1       1.968  -4.643  -0.018  0.00  0.00    +0.052 C 
BRANCH  24  25
ATOM     25  C   UNL     1       2.133  -6.141  -0.030  0.00  0.00    -0.040 C 
ATOM     26  C   UNL     1       2.319  -6.930  -1.113  0.00  0.00    -0.001 A 
ATOM     27  C   UNL     1       2.417  -6.641  -2.549  0.00  0.00    +0.010 A 
ATOM     28  C   UNL     1       2.607  -7.664  -3.413  0.00  0.00    +0.001 A 
ATOM     29  C   UNL     1       2.713  -8.990  -2.972  0.00  0.00    +0.002 A 
ATOM     30  C   UNL     1       2.632  -9.335  -1.669  0.00  0.00    +0.026 A 
ATOM     31  C   UNL     1       2.433  -8.339  -0.674  0.00  0.00    +0.043 A 
ATOM     32  N   UNL     1       2.323  -8.418   0.630  0.00  0.00    -0.380 N 
ATOM     33  C   UNL     1       2.132  -7.066   1.166  0.00  0.00    +0.144 C 
ATOM     34  H   UNL     1       2.365  -9.233   1.153  0.00  0.00    +0.160 HD
ENDBRANCH  24  25
ENDBRANCH  23  24
ENDBRANCH   6  23
TORSDOF 7
