REMARK  Name = ZINC67547765
REMARK  8 active torsions:
REMARK  status: ('A' for Active; 'I' for Inactive)
REMARK    1  A    between atoms: C_1  and  C_2
REMARK    2  A    between atoms: C_5  and  C_22
REMARK    3  A    between atoms: C_7  and  N_8
REMARK    4  A    between atoms: C_9  and  C_11
REMARK    5  A    between atoms: C_13  and  O_20
REMARK    6  A    between atoms: C_16  and  N_17
REMARK    7  A    between atoms: O_20  and  C_21
REMARK    8  A    between atoms: N_24  and  C_25
REMARK                            x       y       z     vdW  Elec       q    Type
REMARK                         _______ _______ _______ _____ _____    ______ ____
ROOT
ATOM      1  N   UNL     1       0.086  -0.081   2.438  0.00  0.00    -0.281 N 
ATOM      2  C   UNL     1      -0.019  -0.733   3.613  0.00  0.00    +0.251 C 
ATOM      3  O   UNL     1      -0.007  -1.948   3.637  0.00  0.00    -0.270 OA
ATOM      4  H   UNL     1       0.137   0.888   2.424  0.00  0.00    +0.155 HD
ENDROOT
BRANCH   1  11
ATOM      5  C   UNL     1      -1.153   1.067   0.153  0.00  0.00    +0.045 C 
ATOM      6  C   UNL     1      -0.473  -0.277   0.097  0.00  0.00    -0.029 A 
ATOM      7  C   UNL     1      -0.438  -0.983  -1.091  0.00  0.00    +0.006 A 
ATOM      8  C   UNL     1       0.183  -2.213  -1.150  0.00  0.00    +0.013 A 
ATOM      9  C   UNL     1       0.778  -2.750  -0.007  0.00  0.00    +0.038 A 
ATOM     10  C   UNL     1       0.742  -2.039   1.192  0.00  0.00    +0.036 A 
ATOM     11  C   UNL     1       0.120  -0.801   1.239  0.00  0.00    +0.037 A 
BRANCH   9  12
ATOM     12  C   UNL     1       1.444  -4.069  -0.067  0.00  0.00    +0.244 C 
ATOM     13  O   UNL     1       1.961  -4.535   0.929  0.00  0.00    -0.270 OA
ATOM     14  N   UNL     1       1.477  -4.755  -1.227  0.00  0.00    -0.314 N 
ATOM     15  C   UNL     1       2.137  -6.062  -1.286  0.00  0.00    +0.128 C 
ATOM     16  H   UNL     1       1.065  -4.383  -2.022  0.00  0.00    +0.149 HD
ENDBRANCH   9  12
ENDBRANCH   1  11
BRANCH   2  17
ATOM     17  C   UNL     1      -0.148   0.030   4.873  0.00  0.00    +0.071 A 
ATOM     18  C   UNL     1       0.804   0.993   5.209  0.00  0.00    +0.061 A 
ATOM     19  C   UNL     1       0.676   1.703   6.391  0.00  0.00    +0.121 A 
ATOM     20  C   UNL     1      -0.397   1.457   7.237  0.00  0.00    +0.048 A 
ATOM     21  C   UNL     1      -1.341   0.503   6.905  0.00  0.00    +0.037 A 
ATOM     22  C   UNL     1      -1.227  -0.206   5.727  0.00  0.00    +0.138 A 
BRANCH  22  23
ATOM     23  N   UNL     1      -2.243  -1.222   5.373  0.00  0.00    +0.057 N 
ATOM     24  O   UNL     1      -3.109  -1.512   6.165  0.00  0.00    -0.126 OA
ATOM     25  O   UNL     1      -2.208  -1.762   4.291  0.00  0.00    -0.126 OA
ENDBRANCH  22  23
BRANCH  19  26
ATOM     26  O   UNL     1       1.601   2.642   6.722  0.00  0.00    -0.495 OA
ATOM     27  C   UNL     1       1.407   3.337   7.956  0.00  0.00    +0.277 C 
ENDBRANCH  19  26
ENDBRANCH   2  17
TORSDOF 5
