REMARK  Name = ZINC63502965
REMARK  8 active torsions:
REMARK  status: ('A' for Active; 'I' for Inactive)
REMARK    1  A    between atoms: C_1  and  C_2
REMARK    2  A    between atoms: C_2  and  C_3
REMARK    3  A    between atoms: N_5  and  C_20
REMARK    4  A    between atoms: C_14  and  C_19
REMARK    5  A    between atoms: C_20  and  C_21
REMARK    6  A    between atoms: N_23  and  C_24
REMARK    7  A    between atoms: C_24  and  C_25
REMARK    8  A    between atoms: C_25  and  C_26
REMARK                            x       y       z     vdW  Elec       q    Type
REMARK                         _______ _______ _______ _____ _____    ______ ____
ROOT
ATOM      1  C   UNL     1      -4.853   0.590  -0.474  0.00  0.00    +0.230 C 
ENDROOT
BRANCH   1   4
ATOM      2  C   UNL     1      -1.412  -0.526   0.013  0.00  0.00    +0.117 C 
ATOM      3  N   UNL     1      -2.457   0.262   0.021  0.00  0.00    -0.166 NA
ATOM      4  N   UNL     1      -3.756  -0.258   0.001  0.00  0.00    -0.181 N 
ATOM      5  C   UNL     1      -4.033  -1.525   0.408  0.00  0.00    +0.256 C 
ATOM      6  O   UNL     1      -5.168  -1.952   0.427  0.00  0.00    -0.272 OA
ATOM      7  C   UNL     1      -2.867  -2.372   0.831  0.00  0.00    +0.164 C 
ATOM      8  N   UNL     1      -1.711  -1.875   0.008  0.00  0.00    -0.298 N 
ATOM      9  C   UNL     1      -1.257  -2.997  -0.729  0.00  0.00    +0.112 C 
ATOM     10  C   UNL     1      -0.014  -3.269  -1.449  0.00  0.00    +0.006 C 
ATOM     11  C   UNL     1       0.164  -4.557  -1.817  0.00  0.00    -0.019 C 
ATOM     12  S   UNL     1      -1.236  -5.445  -1.115  0.00  0.00    -0.124 S 
ATOM     13  C   UNL     1      -1.565  -4.233   0.223  0.00  0.00    +0.078 C 
ATOM     14  C   UNL     1      -3.046  -3.874   0.501  0.00  0.00    +0.048 C 
ATOM     15  C   UNL     1       1.291  -5.128  -2.638  0.00  0.00    +0.051 C 
BRANCH   2  17
ATOM     16  C   UNL     1      -0.019   1.526   0.010  0.00  0.00    +0.012 C 
ATOM     17  C   UNL     1       0.002  -0.004   0.002  0.00  0.00    +0.070 C 
ENDBRANCH   2  17
ENDBRANCH   1   4
BRANCH   1  18
ATOM     18  C   UNL     1      -5.438   1.351   0.688  0.00  0.00    +0.232 C 
ATOM     19  O   UNL     1      -4.984   1.200   1.802  0.00  0.00    -0.274 OA
ATOM     20  N   UNL     1      -6.466   2.200   0.488  0.00  0.00    -0.314 N 
ATOM     21  H   UNL     1      -6.829   2.320  -0.403  0.00  0.00    +0.149 HD
BRANCH  20  22
ATOM     22  C   UNL     1      -7.035   2.939   1.617  0.00  0.00    +0.108 C 
BRANCH  22  23
ATOM     23  C   UNL     1      -8.180   3.825   1.122  0.00  0.00    +0.052 C 
BRANCH  23  24
ATOM     24  C   UNL     1      -8.765   4.586   2.283  0.00  0.00    -0.040 C 
ATOM     25  C   UNL     1      -8.450   5.842   2.674  0.00  0.00    -0.001 A 
ATOM     26  C   UNL     1      -7.504   6.837   2.155  0.00  0.00    +0.010 A 
ATOM     27  C   UNL     1      -7.409   8.037   2.772  0.00  0.00    +0.001 A 
ATOM     28  C   UNL     1      -8.188   8.352   3.894  0.00  0.00    +0.002 A 
ATOM     29  C   UNL     1      -9.079   7.490   4.429  0.00  0.00    +0.026 A 
ATOM     30  C   UNL     1      -9.262   6.200   3.859  0.00  0.00    +0.043 A 
ATOM     31  N   UNL     1     -10.048   5.204   4.188  0.00  0.00    -0.380 N 
ATOM     32  C   UNL     1      -9.828   4.103   3.244  0.00  0.00    +0.144 C 
ATOM     33  H   UNL     1     -10.674   5.198   4.929  0.00  0.00    +0.160 HD
ENDBRANCH  23  24
ENDBRANCH  22  23
ENDBRANCH  20  22
ENDBRANCH   1  18
TORSDOF 6
