REMARK  Name = ZINC40021909
REMARK  15 active torsions:
REMARK  status: ('A' for Active; 'I' for Inactive)
REMARK    1  A    between atoms: C_1  and  C_2
REMARK    2  A    between atoms: C_2  and  C_3
REMARK    3  A    between atoms: C_3  and  C_4
REMARK    4  A    between atoms: C_4  and  C_5
REMARK    5  A    between atoms: C_5  and  C_6
REMARK    6  A    between atoms: C_6  and  O_7
REMARK    7  A    between atoms: O_7  and  C_8
REMARK    8  A    between atoms: C_11  and  C_16
REMARK    9  A    between atoms: C_13  and  O_14
REMARK   10  A    between atoms: O_14  and  C_15
REMARK   11  A    between atoms: C_23  and  C_36
REMARK   12  A    between atoms: C_24  and  C_35
REMARK   13  A    between atoms: N_31  and  C_32
REMARK   14  A    between atoms: C_32  and  C_33
REMARK   15  A    between atoms: C_33  and  O_34
REMARK                            x       y       z     vdW  Elec       q    Type
REMARK                         _______ _______ _______ _____ _____    ______ ____
ROOT
ATOM      1  C   UNL     1       2.664 -10.137   4.223  0.00  0.00    +0.145 C 
ATOM      2  C   UNL     1       1.372 -10.708   4.708  0.00  0.00    +0.072 A 
ATOM      3  C   UNL     1       0.614 -10.473   5.941  0.00  0.00    +0.199 A 
ATOM      4  O   UNL     1       0.882  -9.584   6.730  0.00  0.00    -0.287 OA
ATOM      5  C   UNL     1      -0.511 -11.422   6.137  0.00  0.00    +0.065 A 
ATOM      6  C   UNL     1      -1.201 -11.459   7.349  0.00  0.00    +0.019 A 
ATOM      7  C   UNL     1      -2.232 -12.342   7.516  0.00  0.00    -0.047 A 
ATOM      8  C   UNL     1      -2.591 -13.199   6.484  0.00  0.00    -0.044 A 
ATOM      9  C   UNL     1      -1.921 -13.175   5.282  0.00  0.00    +0.050 A 
ATOM     10  C   UNL     1      -0.869 -12.281   5.086  0.00  0.00    +0.140 A 
ATOM     11  O   UNL     1      -0.232 -12.267   3.893  0.00  0.00    -0.450 OA
ATOM     12  C   UNL     1       0.922 -11.584   3.761  0.00  0.00    +0.199 A 
ATOM     13  C   UNL     1       1.896 -11.611   2.656  0.00  0.00    +0.283 C 
ATOM     14  O   UNL     1       1.795 -12.292   1.655  0.00  0.00    -0.267 OA
ATOM     15  N   UNL     1       2.918 -10.768   2.917  0.00  0.00    -0.281 N 
ATOM     16  C   UNL     1      -3.727 -14.168   6.684  0.00  0.00    +0.044 C 
ATOM     17  C   UNL     1      -2.979 -12.385   8.823  0.00  0.00    +0.044 C 
ENDROOT
BRANCH   1  21
ATOM     18  C   UNL     1       2.324  -5.899   3.768  0.00  0.00    +0.162 A 
ATOM     19  C   UNL     1       1.782  -6.746   2.815  0.00  0.00    +0.050 A 
ATOM     20  C   UNL     1       1.894  -8.116   2.965  0.00  0.00    +0.009 A 
ATOM     21  C   UNL     1       2.545  -8.643   4.064  0.00  0.00    -0.019 A 
ATOM     22  C   UNL     1       3.087  -7.803   5.019  0.00  0.00    +0.055 A 
ATOM     23  C   UNL     1       2.984  -6.429   4.872  0.00  0.00    +0.162 A 
BRANCH  23  24
ATOM     24  O   UNL     1       3.522  -5.601   5.807  0.00  0.00    -0.491 OA
ATOM     25  C   UNL     1       4.185  -6.216   6.913  0.00  0.00    +0.277 C 
ENDBRANCH  23  24
BRANCH  18  26
ATOM     26  O   UNL     1       2.215  -4.551   3.622  0.00  0.00    -0.488 OA
BRANCH  26  27
ATOM     27  C   UNL     1       1.524  -4.077   2.464  0.00  0.00    +0.229 C 
BRANCH  27  28
ATOM     28  C   UNL     1       1.503  -2.548   2.473  0.00  0.00    +0.041 C 
BRANCH  28  29
ATOM     29  C   UNL     1       0.763  -2.041   1.233  0.00  0.00    +0.003 C 
BRANCH  29  30
ATOM     30  C   UNL     1       0.742  -0.511   1.242  0.00  0.00    -0.000 C 
BRANCH  30  32
ATOM     31  C   UNL     1      -0.019   1.526   0.010  0.00  0.00    +0.004 C 
ATOM     32  C   UNL     1       0.002  -0.004   0.002  0.00  0.00    -0.003 C 
ENDBRANCH  30  32
ENDBRANCH  29  30
ENDBRANCH  28  29
ENDBRANCH  27  28
ENDBRANCH  26  27
ENDBRANCH  18  26
ENDBRANCH   1  21
BRANCH  15  33
ATOM     33  C   UNL     1       4.077 -10.523   2.054  0.00  0.00    +0.137 C 
BRANCH  33  34
ATOM     34  C   UNL     1       5.194 -11.505   2.409  0.00  0.00    +0.175 C 
BRANCH  34  35
ATOM     35  O   UNL     1       4.772 -12.837   2.106  0.00  0.00    -0.393 OA
ATOM     36  H   UNL     1       5.432 -13.514   2.306  0.00  0.00    +0.209 HD
ENDBRANCH  34  35
ENDBRANCH  33  34
ENDBRANCH  15  33
TORSDOF 11
