REMARK  Name = ZINC16600799
REMARK  5 active torsions:
REMARK  status: ('A' for Active; 'I' for Inactive)
REMARK    1  A    between atoms: C_3  and  N_32
REMARK    2  A    between atoms: C_6  and  N_7
REMARK    3  A    between atoms: C_13  and  C_15
REMARK    4  A    between atoms: C_15  and  C_16
REMARK    5  A    between atoms: C_16  and  C_17
REMARK                            x       y       z     vdW  Elec       q    Type
REMARK                         _______ _______ _______ _____ _____    ______ ____
ROOT
ATOM      1  N   UNL     1      -0.018   1.465   0.010  0.00  0.00    -0.327 N 
ATOM      2  C   UNL     1       1.344   2.016   0.000  0.00  0.00    +0.124 C 
ATOM      3  C   UNL     1       2.072   1.594   1.280  0.00  0.00    +0.126 C 
ATOM      4  N   UNL     1       1.995   0.130   1.400  0.00  0.00    -0.298 N 
ATOM      5  C   UNL     1       0.675  -0.509   1.282  0.00  0.00    +0.126 C 
ATOM      6  C   UNL     1       0.002  -0.004   0.002  0.00  0.00    +0.124 C 
ATOM      7  C   UNL     1       3.103  -0.607   1.612  0.00  0.00    +0.216 C 
ATOM      8  O   UNL     1       3.022  -1.813   1.708  0.00  0.00    -0.276 OA
ENDROOT
BRANCH   1  14
ATOM      9  C   UNL     1      -1.365   1.085  -1.956  0.00  0.00    +0.025 A 
ATOM     10  C   UNL     1      -2.110   1.579  -3.009  0.00  0.00    +0.034 A 
ATOM     11  C   UNL     1      -2.250   2.944  -3.178  0.00  0.00    +0.126 A 
ATOM     12  C   UNL     1      -1.651   3.819  -2.290  0.00  0.00    +0.034 A 
ATOM     13  C   UNL     1      -0.910   3.332  -1.232  0.00  0.00    +0.025 A 
ATOM     14  C   UNL     1      -0.767   1.961  -1.059  0.00  0.00    +0.030 A 
BRANCH  11  15
ATOM     15  N   UNL     1      -3.044   3.470  -4.311  0.00  0.00    +0.056 N 
ATOM     16  O   UNL     1      -3.169   4.673  -4.461  0.00  0.00    -0.126 OA
ATOM     17  O   UNL     1      -3.572   2.701  -5.094  0.00  0.00    -0.126 OA
ENDBRANCH  11  15
ENDBRANCH   1  14
BRANCH   7  18
ATOM     18  C   UNL     1       4.445   0.069   1.730  0.00  0.00    +0.103 C 
BRANCH  18  19
ATOM     19  C   UNL     1       5.528  -0.985   1.966  0.00  0.00    +0.083 C 
BRANCH  19  20
ATOM     20  C   UNL     1       6.870  -0.310   2.084  0.00  0.00    +0.111 A 
ATOM     21  N   UNL     1       7.980  -1.063   2.297  0.00  0.00    -0.310 N 
ATOM     22  H   UNL     1       7.893  -2.026   2.371  0.00  0.00    +0.170 HD
ATOM     23  C   UNL     1       9.197  -0.500   2.408  0.00  0.00    +0.260 A 
ATOM     24  O   UNL     1      10.184  -1.190   2.600  0.00  0.00    -0.267 OA
ATOM     25  C   UNL     1       9.315   0.924   2.297  0.00  0.00    +0.075 A 
ATOM     26  C   UNL     1      10.522   1.745   2.385  0.00  0.00    -0.023 A 
ATOM     27  C   UNL     1      10.366   3.079   2.246  0.00  0.00    -0.004 A 
ATOM     28  S   UNL     1       8.627   3.314   1.994  0.00  0.00    -0.073 S 
ATOM     29  C   UNL     1       8.114   1.617   2.077  0.00  0.00    +0.116 A 
ATOM     30  N   UNL     1       6.946   0.990   1.973  0.00  0.00    -0.227 NA
ATOM     31  C   UNL     1      11.435   4.127   2.295  0.00  0.00    +0.043 C 
ATOM     32  C   UNL     1      12.701   3.501   2.898  0.00  0.00    +0.005 C 
ATOM     33  C   UNL     1      12.964   2.161   2.204  0.00  0.00    +0.005 C 
ATOM     34  C   UNL     1      11.904   1.142   2.621  0.00  0.00    +0.037 C 
ENDBRANCH  19  20
ENDBRANCH  18  19
ENDBRANCH   7  18
TORSDOF 5
