REMARK  Name = ZINC39888365
REMARK  8 active torsions:
REMARK  status: ('A' for Active; 'I' for Inactive)
REMARK    1  A    between atoms: C_1  and  C_2
REMARK    2  A    between atoms: C_2  and  O_3
REMARK    3  A    between atoms: O_3  and  C_4
REMARK    4  A    between atoms: C_7  and  C_10
REMARK    5  A    between atoms: C_10  and  C_11
REMARK    6  A    between atoms: N_17  and  N_18
REMARK    7  A    between atoms: C_19  and  C_20
REMARK    8  A    between atoms: C_23  and  C_25
REMARK                            x       y       z     vdW  Elec       q    Type
REMARK                         _______ _______ _______ _____ _____    ______ ____
ROOT
ATOM      1  C   UNL     1      -2.054  -6.605   1.429  0.00  0.00    +0.144 C 
ATOM      2  C   UNL     1      -2.203  -8.118   1.470  0.00  0.00    +0.232 C 
ATOM      3  O   UNL     1      -1.362  -8.861   1.011  0.00  0.00    -0.274 OA
ATOM      4  N   UNL     1      -3.307  -8.572   2.038  0.00  0.00    -0.263 N 
ATOM      5  C   UNL     1      -4.269  -7.734   2.562  0.00  0.00    +0.183 C 
ATOM      6  N   UNL     1      -5.402  -8.062   3.148  0.00  0.00    -0.127 NA
ATOM      7  S   UNL     1      -3.615  -6.097   2.262  0.00  0.00    -0.075 S 
ATOM      8  H   UNL     1      -3.447  -9.531   2.087  0.00  0.00    +0.157 HD
ENDROOT
BRANCH   6   9
ATOM      9  N   UNL     1      -5.721  -9.304   3.285  0.00  0.00    -0.152 NA
ATOM     10  C   UNL     1      -6.848  -9.630   3.867  0.00  0.00    +0.181 C 
BRANCH  10  11
ATOM     11  C   UNL     1      -7.199 -10.995   4.017  0.00  0.00    +0.148 A 
ATOM     12  C   UNL     1      -8.352 -11.476   4.603  0.00  0.00    +0.051 A 
ATOM     13  C   UNL     1      -8.288 -12.873   4.536  0.00  0.00    +0.050 A 
ATOM     14  C   UNL     1      -7.113 -13.191   3.919  0.00  0.00    +0.137 A 
ATOM     15  O   UNL     1      -6.467 -12.051   3.606  0.00  0.00    -0.454 OA
BRANCH  14  16
ATOM     16  C   UNL     1      -6.633 -14.557   3.638  0.00  0.00    +0.036 A 
ATOM     17  C   UNL     1      -6.624 -15.521   4.649  0.00  0.00    +0.013 A 
ATOM     18  C   UNL     1      -6.174 -16.796   4.379  0.00  0.00    +0.001 A 
ATOM     19  C   UNL     1      -5.730 -17.123   3.109  0.00  0.00    +0.001 A 
ATOM     20  C   UNL     1      -5.735 -16.174   2.102  0.00  0.00    +0.021 A 
ATOM     21  C   UNL     1      -6.188 -14.895   2.356  0.00  0.00    +0.052 A 
ATOM     22 CL   UNL     1      -6.201 -13.709   1.089  0.00  0.00    -0.083 Cl
ENDBRANCH  14  16
ENDBRANCH  10  11
ENDBRANCH   6   9
BRANCH   1  23
ATOM     23  C   UNL     1      -2.001  -6.092  -0.011  0.00  0.00    +0.059 C 
BRANCH  23  27
ATOM     24  C   UNL     1      -1.498  -1.848   0.006  0.00  0.00    +0.121 A 
ATOM     25  C   UNL     1      -0.388  -2.679  -0.003  0.00  0.00    +0.046 A 
ATOM     26  C   UNL     1      -0.553  -4.051  -0.008  0.00  0.00    +0.007 A 
ATOM     27  C   UNL     1      -1.823  -4.596  -0.005  0.00  0.00    -0.046 A 
ATOM     28  C   UNL     1      -2.932  -3.769   0.004  0.00  0.00    +0.007 A 
ATOM     29  C   UNL     1      -2.772  -2.397   0.016  0.00  0.00    +0.046 A 
BRANCH  24  30
ATOM     30  O   UNL     1      -1.339  -0.499   0.012  0.00  0.00    -0.492 OA
BRANCH  30  32
ATOM     31  C   UNL     1      -0.019   1.526   0.010  0.00  0.00    +0.048 C 
ATOM     32  C   UNL     1       0.002  -0.004   0.002  0.00  0.00    +0.225 C 
ENDBRANCH  30  32
ENDBRANCH  24  30
ENDBRANCH  23  27
ENDBRANCH   1  23
TORSDOF 7
