REMARK  Name = ZINC41427877
REMARK  5 active torsions:
REMARK  status: ('A' for Active; 'I' for Inactive)
REMARK    1  A    between atoms: C_6  and  N_7
REMARK    2  A    between atoms: C_8  and  C_10
REMARK    3  A    between atoms: C_10  and  N_11
REMARK    4  A    between atoms: N_11  and  S_12
REMARK    5  A    between atoms: S_12  and  C_15
REMARK                            x       y       z     vdW  Elec       q    Type
REMARK                         _______ _______ _______ _____ _____    ______ ____
ROOT
ATOM      1  N   UNL     1      -1.202  -0.721   0.010  0.00  0.00    -0.284 N 
ATOM      2  C   UNL     1      -2.374  -0.068   0.127  0.00  0.00    +0.233 C 
ATOM      3  O   UNL     1      -2.395   1.145   0.134  0.00  0.00    -0.274 OA
ATOM      4  H   UNL     1      -1.190  -1.688  -0.063  0.00  0.00    +0.155 HD
ENDROOT
BRANCH   1  10
ATOM      5  C   UNL     1       1.138  -0.541   0.582  0.00  0.00    +0.027 A 
ATOM      6  C   UNL     1       2.326   0.166   0.566  0.00  0.00    +0.051 A 
ATOM      7  C   UNL     1       2.386   1.412  -0.036  0.00  0.00    +0.166 A 
ATOM      8  C   UNL     1       1.246   1.954  -0.627  0.00  0.00    +0.168 A 
ATOM      9  C   UNL     1       0.057   1.245  -0.611  0.00  0.00    +0.072 A 
ATOM     10  C   UNL     1       0.002  -0.003  -0.006  0.00  0.00    +0.037 A 
ATOM     11  O   UNL     1       1.563   3.177  -1.144  0.00  0.00    -0.453 OA
ATOM     12  C   UNL     1       2.798   3.555  -0.508  0.00  0.00    +0.466 C 
ATOM     13  O   UNL     1       3.416   2.296  -0.183  0.00  0.00    -0.453 OA
ENDBRANCH   1  10
BRANCH   2  14
ATOM     14  C   UNL     1      -3.660  -0.844   0.249  0.00  0.00    +0.201 C 
BRANCH  14  15
ATOM     15  N   UNL     1      -4.785   0.089   0.363  0.00  0.00    -0.181 NA
ATOM     16  H   UNL     1      -4.621   1.023   0.569  0.00  0.00    +0.149 HD
BRANCH  15  17
ATOM     17  S   UNL     1      -6.334  -0.451   0.139  0.00  0.00    +0.065 S 
ATOM     18  O   UNL     1      -7.187   0.668   0.338  0.00  0.00    -0.153 OA
ATOM     19  O   UNL     1      -6.332  -1.202  -1.068  0.00  0.00    -0.153 OA
BRANCH  17  20
ATOM     20  C   UNL     1      -6.683  -1.588   1.439  0.00  0.00    +0.144 A 
ATOM     21  C   UNL     1      -7.218  -1.349   2.660  0.00  0.00    +0.038 A 
ATOM     22  C   UNL     1      -7.404  -2.408   3.530  0.00  0.00    +0.030 A 
ATOM     23  C   UNL     1      -7.045  -3.654   3.134  0.00  0.00    +0.080 A 
ATOM     24  S   UNL     1      -6.430  -3.354   1.485  0.00  0.00    -0.057 S 
ATOM     25 CL   UNL     1      -7.160  -5.153   4.002  0.00  0.00    -0.076 Cl
ENDBRANCH  17  20
ENDBRANCH  15  17
ENDBRANCH  14  15
ENDBRANCH   2  14
TORSDOF 5
