REMARK  Name = ZINC54156024
REMARK  7 active torsions:
REMARK  status: ('A' for Active; 'I' for Inactive)
REMARK    1  A    between atoms: C_1  and  C_2
REMARK    2  A    between atoms: C_2  and  C_4
REMARK    3  A    between atoms: C_2  and  C_15
REMARK    4  A    between atoms: C_4  and  N_5
REMARK    5  A    between atoms: N_5  and  S_6
REMARK    6  A    between atoms: S_6  and  C_9
REMARK    7  A    between atoms: N_16  and  O_17
REMARK                            x       y       z     vdW  Elec       q    Type
REMARK                         _______ _______ _______ _____ _____    ______ ____
ROOT
ATOM      1  N   UNL     1      -2.105  -0.148  -1.230  0.00  0.00    -0.189 NA
ATOM      2  H   UNL     1      -1.719   0.537  -1.798  0.00  0.00    +0.148 HD
ENDROOT
BRANCH   1   3
ATOM      3  S   UNL     1      -3.524  -0.883  -1.667  0.00  0.00    +0.065 S 
ATOM      4  O   UNL     1      -3.934  -0.282  -2.888  0.00  0.00    -0.153 OA
ATOM      5  O   UNL     1      -3.313  -2.282  -1.540  0.00  0.00    -0.153 OA
BRANCH   3   6
ATOM      6  C   UNL     1      -4.731  -0.444  -0.460  0.00  0.00    +0.143 A 
ATOM      7  C   UNL     1      -5.581   0.611  -0.448  0.00  0.00    +0.037 A 
ATOM      8  C   UNL     1      -6.452   0.758   0.616  0.00  0.00    +0.025 A 
ATOM      9  C   UNL     1      -6.430  -0.159   1.615  0.00  0.00    +0.057 A 
ATOM     10  S   UNL     1      -5.155  -1.278   1.060  0.00  0.00    -0.062 S 
ATOM     11 BR   UNL     1      -7.482  -0.235   3.185  0.00  0.00    -0.043 Br
ENDBRANCH   3   6
ENDBRANCH   1   3
BRANCH   1  12
ATOM     12  C   UNL     1      -1.433  -0.534   0.013  0.00  0.00    +0.116 C 
BRANCH  12  14
ATOM     13  C   UNL     1      -0.019   1.526   0.010  0.00  0.00    +0.017 C 
ATOM     14  C   UNL     1       0.002  -0.004   0.002  0.00  0.00    +0.068 C 
BRANCH  14  15
ATOM     15  C   UNL     1       0.731  -0.503   1.223  0.00  0.00    +0.136 C 
ATOM     16  N   UNL     1       0.795   0.233   2.283  0.00  0.00    -0.076 NA
ATOM     17  N   UNL     1       1.329  -1.744   1.209  0.00  0.00    -0.344 N 
ATOM     18  H   UNL     1       1.281  -2.296   0.413  0.00  0.00    +0.144 HD
ATOM     19  H   UNL     1       1.798  -2.065   1.995  0.00  0.00    +0.144 HD
BRANCH  16  20
ATOM     20  O   UNL     1       1.480  -0.237   3.430  0.00  0.00    -0.408 OA
ATOM     21  H   UNL     1       1.474   0.383   4.172  0.00  0.00    +0.328 HD
ENDBRANCH  16  20
ENDBRANCH  14  15
ENDBRANCH  12  14
ENDBRANCH   1  12
TORSDOF 6
