REMARK  Name = ZINC38975319
REMARK  8 active torsions:
REMARK  status: ('A' for Active; 'I' for Inactive)
REMARK    1  A    between atoms: C_1  and  O_2
REMARK    2  A    between atoms: O_2  and  C_3
REMARK    3  A    between atoms: C_6  and  N_9
REMARK    4  A    between atoms: N_9  and  C_10
REMARK    5  A    between atoms: N_13  and  S_14
REMARK    6  A    between atoms: S_14  and  C_17
REMARK    7  A    between atoms: C_20  and  O_23
REMARK    8  A    between atoms: O_23  and  C_24
REMARK                            x       y       z     vdW  Elec       q    Type
REMARK                         _______ _______ _______ _____ _____    ______ ____
ROOT
ATOM      1  C   UNL     1      -4.949  -4.040  -0.076  0.00  0.00    +0.237 C 
ATOM      2  C   UNL     1      -5.952  -4.540   0.938  0.00  0.00    +0.192 C 
ATOM      3  N   UNL     1      -5.800  -4.275   2.202  0.00  0.00    -0.110 NA
ATOM      4  N   UNL     1      -7.003  -5.261   0.515  0.00  0.00    -0.226 NA
ATOM      5  C   UNL     1      -7.179  -5.541  -0.759  0.00  0.00    +0.089 A 
ATOM      6  C   UNL     1      -8.301  -6.305  -1.171  0.00  0.00    +0.030 A 
ATOM      7  C   UNL     1      -8.487  -6.596  -2.477  0.00  0.00    +0.002 A 
ATOM      8  C   UNL     1      -7.604  -6.172  -3.483  0.00  0.00    +0.002 A 
ATOM      9  C   UNL     1      -6.504  -5.439  -3.200  0.00  0.00    +0.027 A 
ATOM     10  C   UNL     1      -6.230  -5.080  -1.801  0.00  0.00    +0.063 A 
ATOM     11  N   UNL     1      -5.179  -4.373  -1.491  0.00  0.00    -0.359 N 
ATOM     12  H   UNL     1      -4.563  -4.074  -2.178  0.00  0.00    +0.162 HD
ENDROOT
BRANCH   3  13
ATOM     13  S   UNL     1      -6.906  -4.829   3.303  0.00  0.00    +0.100 S 
ATOM     14  O   UNL     1      -8.126  -4.154   3.027  0.00  0.00    -0.146 OA
ATOM     15  O   UNL     1      -6.803  -6.246   3.306  0.00  0.00    -0.146 OA
BRANCH  13  16
ATOM     16  C   UNL     1      -6.377  -4.283   4.893  0.00  0.00    +0.113 A 
ATOM     17  C   UNL     1      -5.529  -5.072   5.647  0.00  0.00    +0.032 A 
ATOM     18  C   UNL     1      -5.113  -4.647   6.894  0.00  0.00    +0.047 A 
ATOM     19  C   UNL     1      -5.547  -3.425   7.389  0.00  0.00    +0.120 A 
ATOM     20  C   UNL     1      -6.398  -2.635   6.630  0.00  0.00    +0.047 A 
ATOM     21  C   UNL     1      -6.806  -3.063   5.382  0.00  0.00    +0.032 A 
BRANCH  19  22
ATOM     22  O   UNL     1      -5.140  -3.005   8.615  0.00  0.00    -0.495 OA
ATOM     23  C   UNL     1      -5.626  -1.737   9.061  0.00  0.00    +0.277 C 
ENDBRANCH  19  22
ENDBRANCH  13  16
ENDBRANCH   3  13
BRANCH   1  24
ATOM     24  N   UNL     1      -4.889  -2.581   0.035  0.00  0.00    -0.318 N 
ATOM     25  H   UNL     1      -5.706  -2.058   0.011  0.00  0.00    +0.148 HD
BRANCH  24  29
ATOM     26  C   UNL     1      -1.208  -0.672   0.458  0.00  0.00    +0.120 A 
ATOM     27  C   UNL     1      -1.256  -2.030   0.180  0.00  0.00    +0.047 A 
ATOM     28  C   UNL     1      -2.476  -2.663   0.040  0.00  0.00    +0.026 A 
ATOM     29  C   UNL     1      -3.653  -1.940   0.177  0.00  0.00    +0.029 A 
ATOM     30  C   UNL     1      -3.603  -0.580   0.456  0.00  0.00    +0.026 A 
ATOM     31  C   UNL     1      -2.383   0.050   0.601  0.00  0.00    +0.047 A 
BRANCH  26  33
ATOM     32  C   UNL     1       1.164  -0.854   0.435  0.00  0.00    +0.277 C 
ATOM     33  O   UNL     1      -0.006  -0.049   0.596  0.00  0.00    -0.495 OA
ENDBRANCH  26  33
ENDBRANCH  24  29
ENDBRANCH   1  24
TORSDOF 6
