REMARK  Name = ZINC15290981
REMARK  6 active torsions:
REMARK  status: ('A' for Active; 'I' for Inactive)
REMARK    1  A    between atoms: C_1  and  C_2
REMARK    2  A    between atoms: C_10  and  C_12
REMARK    3  A    between atoms: C_12  and  N_13
REMARK    4  A    between atoms: N_13  and  C_14
REMARK    5  A    between atoms: C_18  and  S_20
REMARK    6  A    between atoms: S_20  and  N_23
REMARK                            x       y       z     vdW  Elec       q    Type
REMARK                         _______ _______ _______ _____ _____    ______ ____
ROOT
ATOM      1  C   UNL     1       3.954  -2.653  -2.040  0.00  0.00    +0.029 A 
ATOM      2  C   UNL     1       4.857  -1.811  -2.678  0.00  0.00    +0.023 A 
ATOM      3  C   UNL     1       5.309  -0.674  -2.038  0.00  0.00    +0.004 A 
ATOM      4  C   UNL     1       4.864  -0.373  -0.764  0.00  0.00    +0.028 A 
ATOM      5  C   UNL     1       3.966  -1.208  -0.126  0.00  0.00    +0.107 A 
ATOM      6  C   UNL     1       3.514  -2.350  -0.758  0.00  0.00    +0.051 A 
ENDROOT
BRANCH   5   7
ATOM      7  S   UNL     1       3.402  -0.819   1.497  0.00  0.00    +0.061 S 
ATOM      8  O   UNL     1       4.396   0.011   2.084  0.00  0.00    -0.153 OA
ATOM      9  O   UNL     1       2.987  -2.043   2.087  0.00  0.00    -0.153 OA
BRANCH   7  10
ATOM     10  N   UNL     1       2.043   0.113   1.334  0.00  0.00    -0.177 NA
ATOM     11  C   UNL     1       0.714  -0.508   1.262  0.00  0.00    +0.109 C 
ATOM     12  C   UNL     1       0.002  -0.004   0.002  0.00  0.00    +0.017 C 
ATOM     13  C   UNL     1      -0.019   1.526   0.010  0.00  0.00    +0.003 C 
ATOM     14  C   UNL     1       1.417   2.058  -0.000  0.00  0.00    +0.017 C 
ATOM     15  C   UNL     1       2.144   1.577   1.259  0.00  0.00    +0.109 C 
ENDBRANCH   7  10
ENDBRANCH   5   7
BRANCH   1  16
ATOM     16  N   UNL     1       3.494  -3.804  -2.684  0.00  0.00    -0.338 N 
ATOM     17  H   UNL     1       2.864  -4.390  -2.238  0.00  0.00    +0.146 HD
BRANCH  16  18
ATOM     18  C   UNL     1       3.965  -4.125  -4.034  0.00  0.00    +0.157 C 
BRANCH  18  28
ATOM     19  C   UNL     1       0.704  -9.192  -6.761  0.00  0.00    +0.064 C 
ATOM     20  C   UNL     1       1.669  -9.020  -5.617  0.00  0.00    +0.033 A 
ATOM     21  C   UNL     1       2.031 -10.084  -4.900  0.00  0.00    +0.070 A 
ATOM     22  S   UNL     1       3.148  -9.360  -3.709  0.00  0.00    -0.057 S 
ATOM     23  C   UNL     1       3.034  -7.677  -4.278  0.00  0.00    +0.180 A 
ATOM     24  N   UNL     1       2.161  -7.770  -5.329  0.00  0.00    -0.259 N 
ATOM     25  C   UNL     1       1.869  -6.606  -5.983  0.00  0.00    +0.259 A 
ATOM     26  O   UNL     1       1.099  -6.614  -6.930  0.00  0.00    -0.267 OA
ATOM     27  C   UNL     1       2.453  -5.409  -5.568  0.00  0.00    +0.095 A 
ATOM     28  C   UNL     1       3.323  -5.407  -4.498  0.00  0.00    +0.066 A 
ATOM     29  N   UNL     1       3.590  -6.558  -3.886  0.00  0.00    -0.226 NA
ENDBRANCH  18  28
ENDBRANCH  16  18
ENDBRANCH   1  16
TORSDOF 5
