REMARK  Name = ZINC40726558
REMARK  6 active torsions:
REMARK  status: ('A' for Active; 'I' for Inactive)
REMARK    1  A    between atoms: C_1  and  C_2
REMARK    2  A    between atoms: C_2  and  N_3
REMARK    3  A    between atoms: C_10  and  N_27
REMARK    4  A    between atoms: C_11  and  O_15
REMARK    5  A    between atoms: O_15  and  C_16
REMARK    6  A    between atoms: C_23  and  C_26
REMARK                            x       y       z     vdW  Elec       q    Type
REMARK                         _______ _______ _______ _____ _____    ______ ____
ROOT
ATOM      1  N   UNL     1      -2.400   0.352   0.151  0.00  0.00    +0.382 N 
ATOM      2  C   UNL     1      -3.839   0.137   0.352  0.00  0.00    -0.060 C 
ATOM      3  C   UNL     1      -4.128  -1.367   0.398  0.00  0.00    +0.088 C 
ATOM      4  N   UNL     1      -3.587  -1.984  -0.824  0.00  0.00    -0.317 N 
ATOM      5  C   UNL     1      -2.193  -1.688  -1.191  0.00  0.00    +0.088 C 
ATOM      6  C   UNL     1      -1.996  -0.169  -1.161  0.00  0.00    -0.060 C 
ATOM      7  C   UNL     1      -4.370  -2.821  -1.608  0.00  0.00    +0.149 A 
ATOM      8  C   UNL     1      -4.326  -4.207  -1.430  0.00  0.00    +0.128 A 
ATOM      9  C   UNL     1      -5.132  -5.001  -2.244  0.00  0.00    +0.246 A 
ATOM     10  N   UNL     1      -5.907  -4.415  -3.152  0.00  0.00    -0.199 NA
ATOM     11  C   UNL     1      -5.920  -3.105  -3.288  0.00  0.00    +0.227 A 
ATOM     12  N   UNL     1      -5.178  -2.317  -2.537  0.00  0.00    -0.219 NA
ATOM     13  H   UNL     1      -1.886  -0.128   0.874  0.00  0.00    -0.082 HD
ENDROOT
BRANCH   8  14
ATOM     14  N   UNL     1      -3.492  -4.783  -0.459  0.00  0.00    -0.351 N 
ATOM     15  H   UNL     1      -2.993  -4.216   0.149  0.00  0.00    +0.143 HD
ATOM     16  H   UNL     1      -3.415  -5.748  -0.397  0.00  0.00    +0.143 HD
ENDBRANCH   8  14
BRANCH   1  18
ATOM     17  C   UNL     1      -2.412   2.308   1.624  0.00  0.00    -0.017 C 
ATOM     18  C   UNL     1      -2.108   1.790   0.217  0.00  0.00    -0.082 C 
ENDBRANCH   1  18
BRANCH   9  19
ATOM     19  O   UNL     1      -5.126  -6.351  -2.112  0.00  0.00    -0.434 OA
BRANCH  19  20
ATOM     20  C   UNL     1      -5.843  -7.082  -3.004  0.00  0.00    +0.156 A 
ATOM     21  C   UNL     1      -7.100  -7.536  -2.677  0.00  0.00    +0.048 A 
ATOM     22  C   UNL     1      -7.846  -8.286  -3.582  0.00  0.00    +0.004 A 
ATOM     23  C   UNL     1      -7.352  -8.591  -4.814  0.00  0.00    +0.010 A 
ATOM     24  C   UNL     1      -6.073  -8.146  -5.184  0.00  0.00    +0.004 A 
ATOM     25  C   UNL     1      -5.306  -7.377  -4.275  0.00  0.00    +0.113 A 
ATOM     26  N   UNL     1      -4.091  -6.947  -4.626  0.00  0.00    -0.248 NA
ATOM     27  C   UNL     1      -3.587  -7.218  -5.806  0.00  0.00    +0.039 A 
ATOM     28  C   UNL     1      -4.290  -7.964  -6.749  0.00  0.00    +0.023 A 
ATOM     29  C   UNL     1      -5.533  -8.444  -6.450  0.00  0.00    +0.012 A 
ATOM     30  C   UNL     1      -2.211  -6.709  -6.150  0.00  0.00    +0.065 C 
ENDBRANCH  19  20
ENDBRANCH   9  19
TORSDOF 4
