REMARK  Name = ZINC14496718
REMARK  6 active torsions:
REMARK  status: ('A' for Active; 'I' for Inactive)
REMARK    1  A    between atoms: C_1  and  C_2
REMARK    2  A    between atoms: C_5  and  C_9
REMARK    3  A    between atoms: C_7  and  C_8
REMARK    4  A    between atoms: C_15  and  C_17
REMARK    5  A    between atoms: C_17  and  N_18
REMARK    6  A    between atoms: C_24  and  C_27
REMARK                            x       y       z     vdW  Elec       q    Type
REMARK                         _______ _______ _______ _____ _____    ______ ____
ROOT
ATOM      1  C   UNL     1      -0.016   1.320   0.009  0.00  0.00    +0.080 A 
ATOM      2  C   UNL     1       1.166   2.007   0.002  0.00  0.00    +0.076 A 
ATOM      3  S   UNL     1       2.335   0.654  -0.017  0.00  0.00    -0.060 S 
ATOM      4  C   UNL     1       1.139  -0.674  -0.012  0.00  0.00    +0.165 A 
ATOM      5  N   UNL     1       0.002  -0.004   0.002  0.00  0.00    -0.225 NA
ATOM      6  N   UNL     1       1.351  -2.047  -0.022  0.00  0.00    -0.263 N 
ATOM      7  C   UNL     1       2.607  -2.536  -0.037  0.00  0.00    +0.237 C 
ATOM      8  O   UNL     1       3.552  -1.777  -0.041  0.00  0.00    -0.274 OA
ATOM      9  H   UNL     1       0.594  -2.655  -0.019  0.00  0.00    +0.157 HD
ENDROOT
BRANCH   1  14
ATOM     10  C   UNL     1      -5.026   4.159   0.048  0.00  0.00    +0.044 C 
ATOM     11  C   UNL     1      -3.715   3.416   0.038  0.00  0.00    -0.047 A 
ATOM     12  C   UNL     1      -2.527   4.117  -0.069  0.00  0.00    +0.004 A 
ATOM     13  C   UNL     1      -1.323   3.442  -0.079  0.00  0.00    +0.010 A 
ATOM     14  C   UNL     1      -1.306   2.051   0.019  0.00  0.00    +0.001 A 
ATOM     15  C   UNL     1      -2.506   1.351   0.121  0.00  0.00    +0.013 A 
ATOM     16  C   UNL     1      -3.704   2.037   0.135  0.00  0.00    -0.047 A 
ATOM     17  C   UNL     1      -5.003   1.280   0.251  0.00  0.00    +0.044 C 
ENDBRANCH   1  14
BRANCH   7  18
ATOM     18  C   UNL     1       2.836  -4.025  -0.048  0.00  0.00    +0.214 C 
BRANCH  18  19
ATOM     19  N   UNL     1       4.275  -4.298  -0.063  0.00  0.00    -0.215 N 
ATOM     20  C   UNL     1       5.030  -4.446   1.045  0.00  0.00    +0.247 C 
ATOM     21  O   UNL     1       4.662  -4.381   2.199  0.00  0.00    -0.273 OA
ATOM     22  C   UNL     1       6.432  -4.710   0.546  0.00  0.00    +0.113 C 
ATOM     23  C   UNL     1       6.913  -6.080   1.012  0.00  0.00    +0.035 C 
ATOM     24  C   UNL     1       8.322  -6.340   0.473  0.00  0.00    +0.006 C 
ATOM     25  C   UNL     1       9.269  -5.250   0.978  0.00  0.00    -0.014 C 
ATOM     26  C   UNL     1       8.788  -3.884   0.483  0.00  0.00    +0.006 C 
ATOM     27  C   UNL     1       7.381  -3.614   1.021  0.00  0.00    +0.035 C 
ATOM     28  C   UNL     1      10.680  -5.515   0.450  0.00  0.00    +0.007 C 
ATOM     29  N   UNL     1       6.302  -4.679  -0.916  0.00  0.00    -0.285 N 
ATOM     30  C   UNL     1       5.003  -4.437  -1.178  0.00  0.00    +0.310 C 
ATOM     31  O   UNL     1       4.544  -4.351  -2.300  0.00  0.00    -0.252 OA
ATOM     32  H   UNL     1       7.010  -4.811  -1.565  0.00  0.00    +0.151 HD
ENDBRANCH  18  19
ENDBRANCH   7  18
TORSDOF 3
