REMARK  Name = ZINC38669053
REMARK  11 active torsions:
REMARK  status: ('A' for Active; 'I' for Inactive)
REMARK    1  A    between atoms: C_1  and  C_2
REMARK    2  A    between atoms: C_2  and  O_3
REMARK    3  A    between atoms: O_3  and  C_4
REMARK    4  A    between atoms: C_4  and  C_6
REMARK    5  A    between atoms: C_9  and  O_12
REMARK    6  A    between atoms: O_12  and  C_13
REMARK    7  A    between atoms: C_17  and  C_19
REMARK    8  A    between atoms: C_22  and  O_26
REMARK    9  A    between atoms: C_24  and  O_25
REMARK   10  A    between atoms: O_26  and  C_27
REMARK   11  A    between atoms: C_27  and  C_28
REMARK                            x       y       z     vdW  Elec       q    Type
REMARK                         _______ _______ _______ _____ _____    ______ ____
ROOT
ATOM      1  C   UNL     1       3.636  -5.272   5.910  0.00  0.00    +0.153 C 
ATOM      2  C   UNL     1       3.267  -6.267   5.078  0.00  0.00    +0.176 C 
ATOM      3  N   UNL     1       3.613  -7.458   5.580  0.00  0.00    -0.182 NA
ATOM      4  N   UNL     1       4.185  -7.415   6.672  0.00  0.00    -0.294 N 
ATOM      5  C   UNL     1       4.302  -6.000   7.066  0.00  0.00    +0.199 C 
ATOM      6  H   UNL     1       4.504  -8.177   7.180  0.00  0.00    +0.184 HD
ENDROOT
BRANCH   5   7
ATOM      7  C   UNL     1       5.749  -5.596   7.188  0.00  0.00    +0.025 A 
ATOM      8  C   UNL     1       6.732  -6.357   6.585  0.00  0.00    +0.013 A 
ATOM      9  C   UNL     1       8.059  -5.989   6.696  0.00  0.00    +0.046 A 
ATOM     10  C   UNL     1       8.408  -4.854   7.414  0.00  0.00    +0.124 A 
ATOM     11  C   UNL     1       7.424  -4.088   8.020  0.00  0.00    +0.091 A 
ATOM     12  C   UNL     1       6.092  -4.457   7.902  0.00  0.00    +0.126 A 
BRANCH  12  13
ATOM     13  O   UNL     1       5.124  -3.705   8.490  0.00  0.00    -0.506 OA
ATOM     14  H   UNL     1       4.916  -3.971   9.396  0.00  0.00    +0.292 HD
ENDBRANCH  12  13
BRANCH  10  15
ATOM     15  O   UNL     1       9.713  -4.492   7.522  0.00  0.00    -0.487 OA
BRANCH  15  16
ATOM     16  C   UNL     1      10.674  -5.327   6.873  0.00  0.00    +0.266 C 
BRANCH  16  17
ATOM     17  C   UNL     1      12.057  -4.774   7.102  0.00  0.00    +0.008 A 
ATOM     18  C   UNL     1      12.226  -3.626   7.853  0.00  0.00    +0.011 A 
ATOM     19  C   UNL     1      13.494  -3.117   8.063  0.00  0.00    +0.039 A 
ATOM     20  C   UNL     1      14.595  -3.758   7.521  0.00  0.00    +0.125 A 
ATOM     21  C   UNL     1      14.426  -4.908   6.770  0.00  0.00    +0.058 A 
ATOM     22  C   UNL     1      13.157  -5.418   6.564  0.00  0.00    +0.050 A 
ATOM     23 CL   UNL     1      12.944  -6.864   5.627  0.00  0.00    -0.083 Cl
ATOM     24  F   UNL     1      15.835  -3.261   7.726  0.00  0.00    -0.205 F 
ENDBRANCH  16  17
ENDBRANCH  15  16
ENDBRANCH  10  15
ENDBRANCH   5   7
BRANCH   1  25
ATOM     25  O   UNL     1       3.461  -3.943   5.751  0.00  0.00    -0.456 OA
BRANCH  25  29
ATOM     26  C   UNL     1       0.900  -2.002   8.342  0.00  0.00    +0.059 A 
ATOM     27  C   UNL     1       1.027  -3.394   8.393  0.00  0.00    +0.018 A 
ATOM     28  C   UNL     1       1.882  -4.037   7.527  0.00  0.00    +0.047 A 
ATOM     29  C   UNL     1       2.619  -3.305   6.603  0.00  0.00    +0.128 A 
ATOM     30  C   UNL     1       2.497  -1.921   6.550  0.00  0.00    +0.047 A 
ATOM     31  C   UNL     1       1.639  -1.270   7.408  0.00  0.00    +0.018 A 
BRANCH  26  32
ATOM     32  C   UNL     1      -0.015  -1.309   9.268  0.00  0.00    +0.339 C 
ATOM     33  O   UNL     1      -0.127  -0.100   9.220  0.00  0.00    -0.245 OA
BRANCH  32  34
ATOM     34  O   UNL     1      -0.726  -2.016  10.168  0.00  0.00    -0.461 OA
BRANCH  34  36
ATOM     35  C   UNL     1      -2.311  -2.245  11.978  0.00  0.00    +0.048 C 
ATOM     36  C   UNL     1      -1.593  -1.280  11.033  0.00  0.00    +0.229 C 
ENDBRANCH  34  36
ENDBRANCH  32  34
ENDBRANCH  26  32
ENDBRANCH  25  29
ENDBRANCH   1  25
TORSDOF 10
