REMARK  Name = ZINC34633543
REMARK  4 active torsions:
REMARK  status: ('A' for Active; 'I' for Inactive)
REMARK    1  A    between atoms: C_4  and  C_7
REMARK    2  A    between atoms: C_7  and  N_8
REMARK    3  A    between atoms: N_18  and  N_28
REMARK    4  A    between atoms: N_21  and  C_22
REMARK                            x       y       z     vdW  Elec       q    Type
REMARK                         _______ _______ _______ _____ _____    ______ ____
ROOT
ATOM      1  N   UNL     1       4.223  -0.987   1.313  0.00  0.00    -0.293 NA
ATOM      2  C   UNL     1       5.500  -1.715   1.299  0.00  0.00    +0.090 C 
ATOM      3  C   UNL     1       6.156  -1.650   2.680  0.00  0.00    +0.052 C 
ATOM      4  C   UNL     1       5.133  -2.103   3.719  0.00  0.00    -0.020 A 
ATOM      5  C   UNL     1       3.817  -2.120   3.399  0.00  0.00    +0.010 A 
ATOM      6  S   UNL     1       2.992  -2.699   4.859  0.00  0.00    -0.072 S 
ATOM      7  C   UNL     1       4.408  -2.915   5.892  0.00  0.00    +0.118 A 
ATOM      8  C   UNL     1       5.485  -2.527   5.061  0.00  0.00    +0.077 A 
ATOM      9  C   UNL     1       6.801  -2.593   5.624  0.00  0.00    +0.279 A 
ATOM     10  O   UNL     1       7.793  -2.280   4.988  0.00  0.00    -0.265 OA
ATOM     11  N   UNL     1       6.876  -3.024   6.905  0.00  0.00    -0.218 N 
ATOM     12  C   UNL     1       5.782  -3.379   7.632  0.00  0.00    +0.220 A 
ATOM     13  N   UNL     1       4.550  -3.330   7.144  0.00  0.00    -0.207 NA
ATOM     14  N   UNL     1       5.961  -3.804   8.927  0.00  0.00    -0.284 N 
ATOM     15  C   UNL     1       3.211  -1.728   2.088  0.00  0.00    +0.127 C 
ATOM     16  H   UNL     1       6.842  -3.769   9.331  0.00  0.00    +0.155 HD
ENDROOT
BRANCH  14  17
ATOM     17  C   UNL     1       4.873  -4.287   9.661  0.00  0.00    +0.034 A 
ATOM     18  C   UNL     1       3.860  -4.991   9.022  0.00  0.00    +0.023 A 
ATOM     19  C   UNL     1       2.787  -5.468   9.750  0.00  0.00    +0.002 A 
ATOM     20  C   UNL     1       2.721  -5.244  11.113  0.00  0.00    +0.000 A 
ATOM     21  C   UNL     1       3.728  -4.543  11.752  0.00  0.00    +0.002 A 
ATOM     22  C   UNL     1       4.806  -4.069  11.031  0.00  0.00    +0.023 A 
ENDBRANCH  14  17
BRANCH  11  23
ATOM     23  N   UNL     1       8.105  -3.108   7.494  0.00  0.00    -0.361 NA
ATOM     24  H   UNL     1       8.813  -2.816   6.837  0.00  0.00    +0.138 HD
ATOM     25  H   UNL     1       8.131  -2.509   8.305  0.00  0.00    +0.138 HD
ATOM     26  H   UNL     1       8.280  -4.062   7.774  0.00  0.00    +0.138 HD
ENDBRANCH  11  23
BRANCH   1  27
ATOM     27  C   UNL     1       3.752  -0.725  -0.054  0.00  0.00    +0.120 C 
BRANCH  27  31
ATOM     28  C   UNL     1       0.417   1.942   0.075  0.00  0.00    +0.000 A 
ATOM     29  C   UNL     1       1.701   2.445  -0.022  0.00  0.00    +0.000 A 
ATOM     30  C   UNL     1       2.780   1.582  -0.064  0.00  0.00    +0.005 A 
ATOM     31  C   UNL     1       2.576   0.216  -0.007  0.00  0.00    -0.033 A 
ATOM     32  C   UNL     1       1.292  -0.287   0.091  0.00  0.00    +0.005 A 
ATOM     33  C   UNL     1       0.213   0.576   0.131  0.00  0.00    +0.000 A 
ENDBRANCH  27  31
ENDBRANCH   1  27
TORSDOF 4
