REMARK  Name = ZINC02519999
REMARK  7 active torsions:
REMARK  status: ('A' for Active; 'I' for Inactive)
REMARK    1  A    between atoms: C_1  and  C_2
REMARK    2  A    between atoms: C_2  and  C_3
REMARK    3  A    between atoms: C_3  and  C_5
REMARK    4  A    between atoms: C_3  and  O_22
REMARK    5  A    between atoms: N_7  and  N_8
REMARK    6  A    between atoms: C_9  and  C_10
REMARK    7  A    between atoms: O_22  and  C_23
REMARK                            x       y       z     vdW  Elec       q    Type
REMARK                         _______ _______ _______ _____ _____    ______ ____
ROOT
ATOM      1  C   UNL     1      -0.900   1.373   1.233  0.00  0.00    +0.273 C 
ATOM      2  O   UNL     1      -1.899   2.051   1.116  0.00  0.00    -0.270 OA
ATOM      3  N   UNL     1      -0.542   0.903   2.444  0.00  0.00    -0.204 N 
ATOM      4  H   UNL     1       0.257   0.361   2.537  0.00  0.00    +0.177 HD
ENDROOT
BRANCH   3   5
ATOM      5  N   UNL     1      -1.322   1.200   3.569  0.00  0.00    -0.187 NA
ATOM      6  C   UNL     1      -0.976   0.748   4.737  0.00  0.00    +0.143 C 
BRANCH   6   7
ATOM      7  C   UNL     1      -1.795   1.059   5.919  0.00  0.00    +0.059 A 
ATOM      8  C   UNL     1      -1.435   0.583   7.164  0.00  0.00    +0.024 A 
ATOM      9  C   UNL     1      -2.244   0.899   8.283  0.00  0.00    -0.001 A 
ATOM     10  C   UNL     1      -1.901   0.428   9.560  0.00  0.00    +0.010 A 
ATOM     11  C   UNL     1      -2.685   0.738  10.632  0.00  0.00    +0.001 A 
ATOM     12  C   UNL     1      -3.823   1.517  10.473  0.00  0.00    +0.002 A 
ATOM     13  C   UNL     1      -4.181   1.991   9.229  0.00  0.00    +0.026 A 
ATOM     14  C   UNL     1      -3.397   1.689   8.119  0.00  0.00    +0.049 A 
ATOM     15  N   UNL     1      -3.752   2.162   6.872  0.00  0.00    -0.322 N 
ATOM     16  H   UNL     1      -4.577   2.718   6.772  0.00  0.00    +0.169 HD
ATOM     17  C   UNL     1      -3.002   1.885   5.789  0.00  0.00    +0.258 A 
ATOM     18  O   UNL     1      -3.329   2.316   4.698  0.00  0.00    -0.267 OA
ENDBRANCH   6   7
ENDBRANCH   3   5
BRANCH   1  19
ATOM     19  C   UNL     1      -0.061   1.054   0.022  0.00  0.00    +0.260 C 
BRANCH  19  21
ATOM     20  C   UNL     1       2.209   1.280  -0.997  0.00  0.00    +0.008 C 
ATOM     21  C   UNL     1       1.315   1.705   0.170  0.00  0.00    +0.051 C 
ENDBRANCH  19  21
BRANCH  19  22
ATOM     22  O   UNL     1      -0.704   1.559  -1.150  0.00  0.00    -0.478 OA
BRANCH  22  23
ATOM     23  C   UNL     1      -0.559   0.838  -2.293  0.00  0.00    +0.140 A 
ATOM     24  C   UNL     1       0.145  -0.357  -2.276  0.00  0.00    +0.048 A 
ATOM     25  C   UNL     1       0.287  -1.091  -3.437  0.00  0.00    +0.023 A 
ATOM     26  C   UNL     1      -0.265  -0.631  -4.620  0.00  0.00    +0.043 A 
ATOM     27  C   UNL     1      -0.963   0.563  -4.641  0.00  0.00    +0.043 A 
ATOM     28  C   UNL     1      -1.112   1.298  -3.480  0.00  0.00    +0.084 A 
ATOM     29 CL   UNL     1      -1.988   2.797  -3.507  0.00  0.00    -0.080 Cl
ATOM     30 CL   UNL     1      -0.079  -1.553  -6.079  0.00  0.00    -0.083 Cl
ENDBRANCH  22  23
ENDBRANCH  19  22
ENDBRANCH   1  19
TORSDOF 6
