REMARK  Name = ZINC39849755
REMARK  9 active torsions:
REMARK  status: ('A' for Active; 'I' for Inactive)
REMARK    1  A    between atoms: C_1  and  C_2
REMARK    2  A    between atoms: C_2  and  O_3
REMARK    3  A    between atoms: O_3  and  C_4
REMARK    4  A    between atoms: C_7  and  N_10
REMARK    5  A    between atoms: N_18  and  C_21
REMARK    6  A    between atoms: C_21  and  C_22
REMARK    7  A    between atoms: N_24  and  C_25
REMARK    8  A    between atoms: C_29  and  C_31
REMARK    9  A    between atoms: C_31  and  C_33
REMARK                            x       y       z     vdW  Elec       q    Type
REMARK                         _______ _______ _______ _____ _____    ______ ____
ROOT
ATOM      1  N   UNL     1      -1.959  -5.959  -0.022  0.00  0.00    -0.228 N 
ATOM      2  C   UNL     1      -3.199  -6.466   0.090  0.00  0.00    +0.270 A 
ATOM      3  O   UNL     1      -4.161  -5.725   0.185  0.00  0.00    -0.266 OA
ATOM      4  C   UNL     1      -3.382  -7.933   0.097  0.00  0.00    +0.074 A 
ATOM      5  C   UNL     1      -4.624  -8.697   0.209  0.00  0.00    -0.023 A 
ATOM      6  C   UNL     1      -4.470 -10.036   0.185  0.00  0.00    -0.004 A 
ATOM      7  S   UNL     1      -2.726 -10.284   0.018  0.00  0.00    -0.075 S 
ATOM      8  C   UNL     1      -2.219  -8.692  -0.018  0.00  0.00    +0.097 A 
ATOM      9  N   UNL     1      -0.990  -8.092  -0.129  0.00  0.00    -0.278 N 
ATOM     10  C   UNL     1      -0.880  -6.751  -0.135  0.00  0.00    +0.338 A 
ATOM     11  O   UNL     1       0.221  -6.245  -0.239  0.00  0.00    -0.246 OA
ATOM     12  C   UNL     1      -5.550 -11.070   0.282  0.00  0.00    +0.043 C 
ATOM     13  C   UNL     1      -6.826 -10.385   0.792  0.00  0.00    +0.005 C 
ATOM     14  C   UNL     1      -7.060  -9.106  -0.016  0.00  0.00    +0.005 C 
ATOM     15  C   UNL     1      -6.000  -8.061   0.344  0.00  0.00    +0.037 C 
ENDROOT
BRANCH   1  19
ATOM     16  C   UNL     1      -1.449  -1.819  -0.041  0.00  0.00    +0.121 A 
ATOM     17  C   UNL     1      -2.093  -2.433   1.023  0.00  0.00    +0.047 A 
ATOM     18  C   UNL     1      -2.262  -3.804   1.030  0.00  0.00    +0.030 A 
ATOM     19  C   UNL     1      -1.788  -4.566  -0.029  0.00  0.00    +0.055 A 
ATOM     20  C   UNL     1      -1.144  -3.951  -1.093  0.00  0.00    +0.030 A 
ATOM     21  C   UNL     1      -0.980  -2.580  -1.101  0.00  0.00    +0.047 A 
BRANCH  16  22
ATOM     22  O   UNL     1      -1.283  -0.469  -0.047  0.00  0.00    -0.492 OA
BRANCH  22  24
ATOM     23  C   UNL     1      -1.514   1.745   0.893  0.00  0.00    +0.048 C 
ATOM     24  C   UNL     1      -1.791   0.252   1.077  0.00  0.00    +0.225 C 
ENDBRANCH  22  24
ENDBRANCH  16  22
ENDBRANCH   1  19
BRANCH   9  25
ATOM     25  C   UNL     1       0.213  -8.920  -0.247  0.00  0.00    +0.223 C 
BRANCH  25  26
ATOM     26  C   UNL     1       0.493  -9.193  -1.703  0.00  0.00    +0.237 C 
ATOM     27  O   UNL     1      -0.240  -8.742  -2.557  0.00  0.00    -0.274 OA
ATOM     28  N   UNL     1       1.558  -9.940  -2.055  0.00  0.00    -0.284 N 
ATOM     29  H   UNL     1       2.096 -10.370  -1.372  0.00  0.00    +0.155 HD
BRANCH  28  30
ATOM     30  C   UNL     1       1.888 -10.095  -3.406  0.00  0.00    +0.034 A 
ATOM     31  C   UNL     1       2.418 -11.298  -3.859  0.00  0.00    +0.023 A 
ATOM     32  C   UNL     1       2.746 -11.457  -5.193  0.00  0.00    +0.002 A 
ATOM     33  C   UNL     1       2.550 -10.423  -6.085  0.00  0.00    +0.011 A 
ATOM     34  C   UNL     1       2.017  -9.209  -5.641  0.00  0.00    +0.019 A 
ATOM     35  C   UNL     1       1.681  -9.051  -4.293  0.00  0.00    +0.034 A 
BRANCH  34  36
ATOM     36  C   UNL     1       1.807  -8.103  -6.589  0.00  0.00    +0.160 C 
ATOM     37  O   UNL     1       1.346  -7.051  -6.202  0.00  0.00    -0.292 OA
ATOM     38  C   UNL     1       2.166  -8.278  -8.043  0.00  0.00    +0.091 C 
ENDBRANCH  34  36
ENDBRANCH  28  30
ENDBRANCH  25  26
ENDBRANCH   9  25
TORSDOF 7
