REMARK  Name = ZINC15280786
REMARK  11 active torsions:
REMARK  status: ('A' for Active; 'I' for Inactive)
REMARK    1  A    between atoms: C_1  and  C_2
REMARK    2  A    between atoms: C_2  and  C_3
REMARK    3  A    between atoms: C_2  and  C_4
REMARK    4  A    between atoms: C_2  and  C_5
REMARK    5  A    between atoms: C_9  and  S_11
REMARK    6  A    between atoms: S_11  and  C_12
REMARK    7  A    between atoms: C_12  and  C_13
REMARK    8  A    between atoms: N_15  and  C_16
REMARK    9  A    between atoms: C_19  and  N_22
REMARK   10  A    between atoms: N_30  and  C_35
REMARK   11  A    between atoms: N_33  and  C_34
REMARK                            x       y       z     vdW  Elec       q    Type
REMARK                         _______ _______ _______ _____ _____    ______ ____
ROOT
ATOM      1  C   UNL     1      -2.825   4.027   4.872  0.00  0.00    +0.138 A 
ATOM      2  N   UNL     1      -2.666   2.742   4.613  0.00  0.00    -0.213 NA
ATOM      3  C   UNL     1      -2.033   2.350   3.516  0.00  0.00    +0.154 A 
ATOM      4  C   UNL     1      -1.534   3.327   2.634  0.00  0.00    +0.114 A 
ATOM      5  C   UNL     1      -1.726   4.681   2.949  0.00  0.00    +0.115 A 
ATOM      6  N   UNL     1      -2.376   4.976   4.077  0.00  0.00    -0.224 NA
ATOM      7  C   UNL     1      -0.831   2.887   1.426  0.00  0.00    +0.268 A 
ATOM      8  O   UNL     1      -0.378   3.694   0.636  0.00  0.00    -0.267 OA
ATOM      9  N   UNL     1      -0.703   1.558   1.212  0.00  0.00    -0.263 N 
ATOM     10  C   UNL     1      -1.196   0.664   2.083  0.00  0.00    +0.333 A 
ATOM     11  O   UNL     1      -1.051  -0.519   1.847  0.00  0.00    -0.246 OA
ATOM     12  N   UNL     1      -1.845   1.020   3.206  0.00  0.00    -0.281 N 
ATOM     13  C   UNL     1      -2.355  -0.015   4.109  0.00  0.00    +0.155 C 
ATOM     14  C   UNL     1      -0.009   1.085   0.011  0.00  0.00    +0.157 C 
ENDROOT
BRANCH   1  16
ATOM     15  C   UNL     1      -3.616   5.950   6.222  0.00  0.00    +0.019 C 
ATOM     16  C   UNL     1      -3.552   4.424   6.131  0.00  0.00    +0.022 C 
ATOM     17  C   UNL     1      -4.971   3.855   6.102  0.00  0.00    +0.019 C 
ATOM     18  C   UNL     1      -2.805   3.872   7.347  0.00  0.00    +0.019 C 
ENDBRANCH   1  16
BRANCH   5  19
ATOM     19  S   UNL     1      -1.126   5.953   1.888  0.00  0.00    -0.096 S 
BRANCH  19  20
ATOM     20  C   UNL     1      -1.668   7.413   2.810  0.00  0.00    +0.171 C 
BRANCH  20  21
ATOM     21  C   UNL     1      -1.252   8.658   2.069  0.00  0.00    +0.227 C 
ATOM     22  O   UNL     1      -0.649   8.567   1.021  0.00  0.00    -0.275 OA
ATOM     23  N   UNL     1      -1.550   9.872   2.572  0.00  0.00    -0.285 N 
ATOM     24  H   UNL     1      -2.090   9.946   3.375  0.00  0.00    +0.155 HD
BRANCH  23  25
ATOM     25  C   UNL     1      -1.081  11.029   1.935  0.00  0.00    +0.034 A 
ATOM     26  C   UNL     1      -0.723  12.139   2.687  0.00  0.00    +0.025 A 
ATOM     27  C   UNL     1      -0.256  13.277   2.060  0.00  0.00    +0.025 A 
ATOM     28  C   UNL     1      -0.154  13.315   0.675  0.00  0.00    +0.030 A 
ATOM     29  C   UNL     1      -0.517  12.206  -0.078  0.00  0.00    +0.025 A 
ATOM     30  C   UNL     1      -0.980  11.066   0.550  0.00  0.00    +0.025 A 
BRANCH  28  31
ATOM     31  N   UNL     1       0.315  14.469   0.039  0.00  0.00    -0.330 N 
ATOM     32  C   UNL     1       1.469  14.166  -0.817  0.00  0.00    +0.105 C 
ATOM     33  C   UNL     1       1.863  15.417  -1.606  0.00  0.00    +0.019 C 
ATOM     34  C   UNL     1       2.211  16.542  -0.628  0.00  0.00    +0.003 C 
ATOM     35  C   UNL     1       1.010  16.805   0.284  0.00  0.00    +0.019 C 
ATOM     36  C   UNL     1       0.640  15.514   1.018  0.00  0.00    +0.105 C 
ENDBRANCH  28  31
ENDBRANCH  23  25
ENDBRANCH  20  21
ENDBRANCH  19  20
ENDBRANCH   5  19
TORSDOF 6
