REMARK  Name = ZINC04949864
REMARK  8 active torsions:
REMARK  status: ('A' for Active; 'I' for Inactive)
REMARK    1  A    between atoms: C_1  and  C_2
REMARK    2  A    between atoms: C_2  and  C_4
REMARK    3  A    between atoms: C_2  and  O_11
REMARK    4  A    between atoms: N_9  and  C_10
REMARK    5  A    between atoms: O_11  and  C_12
REMARK    6  A    between atoms: C_12  and  C_14
REMARK    7  A    between atoms: C_22  and  O_27
REMARK    8  A    between atoms: O_27  and  C_28
REMARK                            x       y       z     vdW  Elec       q    Type
REMARK                         _______ _______ _______ _____ _____    ______ ____
ROOT
ATOM      1  C   UNL     1      -1.290   1.926   0.019  0.00  0.00    +0.097 A 
ATOM      2  C   UNL     1      -2.579   1.409   0.022  0.00  0.00    +0.027 A 
ATOM      3  C   UNL     1      -3.652   2.264   0.029  0.00  0.00    -0.031 A 
ATOM      4  C   UNL     1      -3.355   3.631   0.046  0.00  0.00    +0.024 A 
ATOM      5  S   UNL     1      -1.592   3.689   0.038  0.00  0.00    -0.082 S 
ATOM      6  C   UNL     1      -4.368   4.680   0.078  0.00  0.00    -0.008 A 
ATOM      7  C   UNL     1      -4.086   6.015  -0.188  0.00  0.00    +0.013 A 
ATOM      8  C   UNL     1      -5.104   6.946  -0.172  0.00  0.00    +0.046 A 
ATOM      9  C   UNL     1      -6.405   6.547   0.108  0.00  0.00    +0.120 A 
ATOM     10  C   UNL     1      -6.688   5.216   0.387  0.00  0.00    +0.050 A 
ATOM     11  C   UNL     1      -5.678   4.279   0.390  0.00  0.00    -0.035 A 
ATOM     12  C   UNL     1      -5.960   2.853   0.771  0.00  0.00    +0.040 C 
ATOM     13  C   UNL     1      -5.117   1.846  -0.001  0.00  0.00    +0.041 C 
ENDROOT
BRANCH   1  14
ATOM     14  C   UNL     1      -0.014   1.212   0.009  0.00  0.00    +0.347 C 
ATOM     15  O   UNL     1       0.002  -0.004   0.002  0.00  0.00    -0.244 OA
BRANCH  14  16
ATOM     16  O   UNL     1       1.145   1.903   0.001  0.00  0.00    -0.448 OA
BRANCH  16  18
ATOM     17  C   UNL     1       2.771   0.877  -1.462  0.00  0.00    +0.062 C 
ATOM     18  C   UNL     1       2.354   1.141  -0.014  0.00  0.00    +0.259 C 
BRANCH  18  19
ATOM     19  C   UNL     1       3.442   1.910   0.690  0.00  0.00    +0.261 C 
ATOM     20  O   UNL     1       3.205   3.003   1.159  0.00  0.00    -0.271 OA
ATOM     21  N   UNL     1       4.677   1.384   0.798  0.00  0.00    -0.237 N 
ATOM     22  C   UNL     1       5.650   2.072   1.428  0.00  0.00    +0.306 C 
ATOM     23  O   UNL     1       5.413   3.167   1.898  0.00  0.00    -0.252 OA
ATOM     24  N   UNL     1       6.886   1.545   1.537  0.00  0.00    -0.302 N 
ATOM     25  C   UNL     1       7.944   2.293   2.221  0.00  0.00    +0.129 C 
ATOM     26  H   UNL     1       4.867   0.509   0.423  0.00  0.00    +0.159 HD
ATOM     27  H   UNL     1       7.075   0.671   1.162  0.00  0.00    +0.150 HD
ENDBRANCH  18  19
ENDBRANCH  16  18
ENDBRANCH  14  16
ENDBRANCH   1  14
BRANCH   9  28
ATOM     28  O   UNL     1      -7.407   7.464   0.108  0.00  0.00    -0.495 OA
ATOM     29  C   UNL     1      -7.049   8.816  -0.187  0.00  0.00    +0.277 C 
ENDBRANCH   9  28
TORSDOF 5
