REMARK  Name = ZINC32693130
REMARK  7 active torsions:
REMARK  status: ('A' for Active; 'I' for Inactive)
REMARK    1  A    between atoms: C_1  and  C_2
REMARK    2  A    between atoms: C_3  and  C_35
REMARK    3  A    between atoms: N_9  and  C_29
REMARK    4  A    between atoms: C_10  and  S_12
REMARK    5  A    between atoms: S_12  and  C_13
REMARK    6  A    between atoms: C_13  and  C_14
REMARK    7  A    between atoms: N_19  and  C_23
REMARK                            x       y       z     vdW  Elec       q    Type
REMARK                         _______ _______ _______ _____ _____    ______ ____
ROOT
ATOM      1  C   UNL     1      -9.411  -1.668   1.594  0.00  0.00    +0.045 C 
ATOM      2  C   UNL     1      -8.063  -1.970   0.992  0.00  0.00    -0.026 A 
ATOM      3  C   UNL     1      -7.638  -3.238   0.883  0.00  0.00    -0.008 A 
ATOM      4  S   UNL     1      -6.032  -3.073   0.128  0.00  0.00    -0.073 S 
ATOM      5  C   UNL     1      -5.977  -1.305  -0.020  0.00  0.00    +0.117 A 
ATOM      6  C   UNL     1      -7.209  -0.893   0.522  0.00  0.00    +0.076 A 
ATOM      7  C   UNL     1      -7.443   0.518   0.533  0.00  0.00    +0.268 A 
ATOM      8  O   UNL     1      -8.483   0.967   0.983  0.00  0.00    -0.267 OA
ATOM      9  N   UNL     1      -6.501   1.343   0.040  0.00  0.00    -0.255 N 
ATOM     10  C   UNL     1      -5.330   0.857  -0.469  0.00  0.00    +0.178 A 
ATOM     11  N   UNL     1      -5.091  -0.439  -0.496  0.00  0.00    -0.215 NA
ATOM     12  C   UNL     1      -8.348  -4.500   1.299  0.00  0.00    +0.052 C 
ENDROOT
BRANCH   9  13
ATOM     13  C   UNL     1      -6.726   2.726   0.049  0.00  0.00    +0.052 A 
ATOM     14  C   UNL     1      -6.336   3.487   1.143  0.00  0.00    +0.026 A 
ATOM     15  C   UNL     1      -6.553   4.851   1.147  0.00  0.00    +0.002 A 
ATOM     16  C   UNL     1      -7.168   5.457   0.067  0.00  0.00    +0.000 A 
ATOM     17  C   UNL     1      -7.563   4.701  -1.022  0.00  0.00    +0.002 A 
ATOM     18  C   UNL     1      -7.343   3.338  -1.033  0.00  0.00    +0.026 A 
ENDBRANCH   9  13
BRANCH  10  19
ATOM     19  S   UNL     1      -4.126   1.976  -1.103  0.00  0.00    -0.078 S 
BRANCH  19  20
ATOM     20  C   UNL     1      -2.845   0.804  -1.615  0.00  0.00    +0.173 C 
BRANCH  20  21
ATOM     21  C   UNL     1      -1.681   1.558  -2.205  0.00  0.00    +0.228 C 
ATOM     22  O   UNL     1      -1.715   2.769  -2.273  0.00  0.00    -0.275 OA
ATOM     23  N   UNL     1      -0.604   0.887  -2.658  0.00  0.00    -0.271 N 
ATOM     24  C   UNL     1       0.464   1.580  -3.206  0.00  0.00    +0.129 C 
ATOM     25  N   UNL     1       0.558   2.859  -3.345  0.00  0.00    -0.161 NA
ATOM     26  N   UNL     1       1.759   3.252  -3.929  0.00  0.00    -0.159 N 
ATOM     27  C   UNL     1       2.533   2.186  -4.218  0.00  0.00    +0.247 C 
ATOM     28  O   UNL     1       3.632   2.192  -4.733  0.00  0.00    -0.273 OA
ATOM     29  C   UNL     1       1.738   0.979  -3.761  0.00  0.00    +0.171 C 
ATOM     30  H   UNL     1      -0.572  -0.210  -2.592  0.00  0.00    +0.156 HD
BRANCH  26  31
ATOM     31  C   UNL     1       2.114   4.580  -4.188  0.00  0.00    +0.060 A 
ATOM     32  C   UNL     1       3.338   4.871  -4.777  0.00  0.00    +0.025 A 
ATOM     33  C   UNL     1       3.683   6.183  -5.036  0.00  0.00    +0.002 A 
ATOM     34  C   UNL     1       2.816   7.207  -4.701  0.00  0.00    +0.000 A 
ATOM     35  C   UNL     1       1.599   6.921  -4.110  0.00  0.00    +0.002 A 
ATOM     36  C   UNL     1       1.245   5.611  -3.853  0.00  0.00    +0.025 A 
ENDBRANCH  26  31
ENDBRANCH  20  21
ENDBRANCH  19  20
ENDBRANCH  10  19
TORSDOF 5
