REMARK  Name = ZINC03841072
REMARK  11 active torsions:
REMARK  status: ('A' for Active; 'I' for Inactive)
REMARK    1  A    between atoms: C_1  and  C_2
REMARK    2  A    between atoms: C_2  and  C_3
REMARK    3  A    between atoms: C_2  and  N_4
REMARK    4  A    between atoms: C_5  and  C_7
REMARK    5  A    between atoms: C_7  and  C_8
REMARK    6  A    between atoms: C_16  and  C_18
REMARK    7  A    between atoms: C_22  and  C_32
REMARK    8  A    between atoms: C_25  and  O_31
REMARK    9  A    between atoms: C_27  and  C_28
REMARK   10  A    between atoms: C_27  and  C_29
REMARK   11  A    between atoms: C_29  and  O_30
REMARK                            x       y       z     vdW  Elec       q    Type
REMARK                         _______ _______ _______ _____ _____    ______ ____
ROOT
ATOM      1  C   UNL     1       3.537   2.296  -0.483  0.00  0.00    +0.054 C 
ATOM      2  C   UNL     1       3.704   3.029  -1.804  0.00  0.00    +0.058 A 
ATOM      3  C   UNL     1       4.944   3.224  -2.323  0.00  0.00    +0.015 A 
ATOM      4  S   UNL     1       4.603   4.103  -3.825  0.00  0.00    -0.057 S 
ATOM      5  C   UNL     1       2.873   4.146  -3.658  0.00  0.00    +0.165 A 
ATOM      6  N   UNL     1       2.690   3.514  -2.517  0.00  0.00    -0.229 NA
ATOM      7  N   UNL     1       1.927   4.705  -4.509  0.00  0.00    -0.265 N 
ATOM      8  C   UNL     1       2.320   5.317  -5.644  0.00  0.00    +0.216 C 
ATOM      9  O   UNL     1       3.498   5.381  -5.922  0.00  0.00    -0.276 OA
ATOM     10  C   UNL     1       1.294   5.923  -6.567  0.00  0.00    +0.109 C 
ATOM     11  C   UNL     1       6.247   2.793  -1.751  0.00  0.00    +0.049 C 
ATOM     12  C   UNL     1       6.040   2.390  -0.278  0.00  0.00    +0.011 C 
ATOM     13  C   UNL     1       4.807   1.490  -0.177  0.00  0.00    -0.019 C 
ATOM     14  C   UNL     1       4.670   0.940   1.246  0.00  0.00    +0.010 C 
ATOM     15  C   UNL     1       5.926   0.165   1.640  0.00  0.00    +0.032 C 
ATOM     16  C   UNL     1       7.126   1.115   1.593  0.00  0.00    +0.123 C 
ATOM     17  C   UNL     1       7.292   1.625   0.163  0.00  0.00    +0.021 C 
ATOM     18  C   UNL     1       8.504   2.556   0.095  0.00  0.00    +0.016 C 
ATOM     19  C   UNL     1       4.933   0.335  -1.173  0.00  0.00    +0.012 C 
ATOM     20  H   UNL     1       0.984   4.654  -4.287  0.00  0.00    +0.157 HD
ENDROOT
BRANCH  16  21
ATOM     21  O   UNL     1       8.307   0.415   1.992  0.00  0.00    -0.391 OA
ATOM     22  H   UNL     1       8.266   0.053   2.887  0.00  0.00    +0.210 HD
ENDBRANCH  16  21
BRANCH   1  23
ATOM     23  C   UNL     1       2.341   1.346  -0.575  0.00  0.00    +0.106 C 
BRANCH  23  25
ATOM     24  N   UNL     1      -0.119   1.519  -0.774  0.00  0.00    -0.313 N 
ATOM     25  C   UNL     1       1.069   2.148  -0.681  0.00  0.00    +0.214 C 
ATOM     26  O   UNL     1       1.115   3.360  -0.682  0.00  0.00    -0.276 OA
ATOM     27  H   UNL     1      -0.155   0.549  -0.773  0.00  0.00    +0.149 HD
BRANCH  24  29
ATOM     28  C   UNL     1      -2.426   1.460  -1.583  0.00  0.00    +0.027 C 
ATOM     29  C   UNL     1      -1.354   2.298  -0.883  0.00  0.00    +0.067 C 
ATOM     30  C   UNL     1      -1.840   2.683   0.516  0.00  0.00    +0.027 C 
ENDBRANCH  24  29
ENDBRANCH  23  25
ENDBRANCH   1  23
BRANCH  17  31
ATOM     31  C   UNL     1       7.516   0.438  -0.776  0.00  0.00    +0.165 C 
BRANCH  31  32
ATOM     32  O   UNL     1       8.767  -0.181  -0.469  0.00  0.00    -0.394 OA
ATOM     33  H   UNL     1       8.976  -0.943  -1.027  0.00  0.00    +0.209 HD
ENDBRANCH  31  32
ENDBRANCH  17  31
TORSDOF 6
