REMARK  Name = ZINC41394244
REMARK  6 active torsions:
REMARK  status: ('A' for Active; 'I' for Inactive)
REMARK    1  A    between atoms: C_1  and  C_2
REMARK    2  A    between atoms: C_2  and  C_3
REMARK    3  A    between atoms: C_2  and  N_4
REMARK    4  A    between atoms: N_14  and  C_15
REMARK    5  A    between atoms: C_19  and  C_21
REMARK    6  A    between atoms: C_21  and  N_22
REMARK                            x       y       z     vdW  Elec       q    Type
REMARK                         _______ _______ _______ _____ _____    ______ ____
ROOT
ATOM      1  N   UNL     1      -1.154  -1.005   0.184  0.00  0.00    -0.278 N 
ATOM      2  C   UNL     1      -1.666  -1.256   1.403  0.00  0.00    +0.264 A 
ATOM      3  O   UNL     1      -1.304  -0.610   2.371  0.00  0.00    -0.267 OA
ATOM      4  C   UNL     1      -2.643  -2.292   1.546  0.00  0.00    +0.076 A 
ATOM      5  C   UNL     1      -3.326  -2.734   2.763  0.00  0.00    -0.023 A 
ATOM      6  C   UNL     1      -4.213  -3.741   2.636  0.00  0.00    -0.004 A 
ATOM      7  S   UNL     1      -4.194  -4.157   0.913  0.00  0.00    -0.073 S 
ATOM      8  C   UNL     1      -2.989  -2.974   0.367  0.00  0.00    +0.117 A 
ATOM      9  N   UNL     1      -2.444  -2.676  -0.807  0.00  0.00    -0.208 NA
ATOM     10  C   UNL     1      -1.551  -1.714  -0.911  0.00  0.00    +0.204 A 
ATOM     11  N   UNL     1      -1.009  -1.423  -2.140  0.00  0.00    -0.285 N 
ATOM     12  C   UNL     1      -5.035  -4.369   3.720  0.00  0.00    +0.043 C 
ATOM     13  C   UNL     1      -4.450  -3.950   5.077  0.00  0.00    +0.005 C 
ATOM     14  C   UNL     1      -4.218  -2.436   5.063  0.00  0.00    +0.005 C 
ATOM     15  C   UNL     1      -3.060  -2.096   4.124  0.00  0.00    +0.037 C 
ATOM     16  H   UNL     1      -0.283  -0.784  -2.211  0.00  0.00    +0.155 HD
ENDROOT
BRANCH  11  17
ATOM     17  C   UNL     1      -1.503  -2.050  -3.288  0.00  0.00    +0.034 A 
ATOM     18  C   UNL     1      -2.854  -2.356  -3.387  0.00  0.00    +0.023 A 
ATOM     19  C   UNL     1      -3.340  -2.974  -4.523  0.00  0.00    +0.002 A 
ATOM     20  C   UNL     1      -2.482  -3.288  -5.561  0.00  0.00    +0.005 A 
ATOM     21  C   UNL     1      -1.136  -2.985  -5.466  0.00  0.00    -0.024 A 
ATOM     22  C   UNL     1      -0.645  -2.361  -4.335  0.00  0.00    +0.028 A 
BRANCH  21  23
ATOM     23  C   UNL     1      -0.205  -3.329  -6.600  0.00  0.00    +0.178 C 
BRANCH  23  24
ATOM     24  N   UNL     1      -0.141  -2.206  -7.538  0.00  0.00    -0.267 N 
ATOM     25  C   UNL     1       0.980  -1.578  -7.950  0.00  0.00    +0.108 A 
ATOM     26  C   UNL     1       0.612  -0.601  -8.811  0.00  0.00    +0.041 A 
ATOM     27  C   UNL     1      -0.781  -0.633  -8.929  0.00  0.00    +0.134 A 
ATOM     28  N   UNL     1      -1.233  -1.599  -8.171  0.00  0.00    -0.179 NA
ENDBRANCH  23  24
ENDBRANCH  21  23
ENDBRANCH  11  17
BRANCH   1  30
ATOM     29  C   UNL     1      -0.747   1.387   0.491  0.00  0.00    +0.031 C 
ATOM     30  C   UNL     1      -0.153   0.055   0.030  0.00  0.00    +0.087 C 
ATOM     31  C   UNL     1       1.076  -0.277   0.878  0.00  0.00    +0.031 C 
ENDBRANCH   1  30
TORSDOF 4
