REMARK  Name = ZINC45229695
REMARK  4 active torsions:
REMARK  status: ('A' for Active; 'I' for Inactive)
REMARK    1  A    between atoms: C_1  and  C_2
REMARK    2  A    between atoms: C_4  and  N_19
REMARK    3  A    between atoms: C_6  and  N_8
REMARK    4  A    between atoms: N_11  and  C_12
REMARK                            x       y       z     vdW  Elec       q    Type
REMARK                         _______ _______ _______ _____ _____    ______ ____
ROOT
ATOM      1  C   UNL     1       0.592   1.633   0.279  0.00  0.00    +0.063 C 
ATOM      2  C   UNL     1       0.240   0.169   0.218  0.00  0.00    +0.019 A 
ATOM      3  C   UNL     1      -0.192  -0.396  -0.967  0.00  0.00    +0.064 A 
ATOM      4  C   UNL     1      -0.508  -1.756  -0.984  0.00  0.00    +0.127 A 
ATOM      5  N   UNL     1      -0.384  -2.462   0.135  0.00  0.00    -0.197 NA
ATOM      6  C   UNL     1       0.036  -1.883   1.257  0.00  0.00    +0.233 A 
ATOM      7  N   UNL     1       0.347  -0.590   1.297  0.00  0.00    -0.328 N 
ATOM      8  H   UNL     1       0.654  -0.198   2.130  0.00  0.00    +0.168 HD
ENDROOT
BRANCH   6   9
ATOM      9  N   UNL     1       0.153  -2.631   2.387  0.00  0.00    -0.179 NA
ATOM     10  C   UNL     1      -0.013  -3.936   2.334  0.00  0.00    +0.203 C 
ATOM     11  N   UNL     1      -0.157  -4.558   1.123  0.00  0.00    -0.369 N 
ATOM     12  N   UNL     1      -0.041  -4.671   3.490  0.00  0.00    -0.326 N 
ATOM     13  H   UNL     1      -0.131  -5.636   3.449  0.00  0.00    +0.169 HD
ATOM     14  H   UNL     1       0.370  -4.268   0.362  0.00  0.00    +0.159 HD
ATOM     15  H   UNL     1      -0.787  -5.290   1.025  0.00  0.00    +0.159 HD
BRANCH  12  16
ATOM     16  C   UNL     1       0.062  -4.030   4.729  0.00  0.00    +0.042 A 
ATOM     17  C   UNL     1      -0.528  -2.788   4.921  0.00  0.00    +0.027 A 
ATOM     18  C   UNL     1      -0.426  -2.158   6.145  0.00  0.00    +0.017 A 
ATOM     19  C   UNL     1       0.264  -2.763   7.181  0.00  0.00    +0.018 A 
ATOM     20  C   UNL     1       0.853  -4.001   6.993  0.00  0.00    +0.017 A 
ATOM     21  C   UNL     1       0.749  -4.638   5.772  0.00  0.00    +0.027 A 
ATOM     22 BR   UNL     1       0.402  -1.897   8.856  0.00  0.00    -0.050 Br
ENDBRANCH  12  16
ENDBRANCH   6   9
BRANCH   4  23
ATOM     23  N   UNL     1      -0.945  -2.362  -2.150  0.00  0.00    -0.311 N 
ATOM     24  C   UNL     1      -1.393  -3.766  -2.165  0.00  0.00    +0.111 C 
ATOM     25  C   UNL     1      -2.863  -3.786  -2.593  0.00  0.00    +0.046 C 
ATOM     26  C   UNL     1      -3.076  -2.889  -3.776  0.00  0.00    -0.028 C 
ATOM     27  C   UNL     1      -2.267  -1.946  -4.139  0.00  0.00    -0.012 C 
ATOM     28  C   UNL     1      -0.988  -1.629  -3.424  0.00  0.00    +0.133 C 
ENDBRANCH   4  23
TORSDOF 3
