REMARK  Name = ZINC20577119
REMARK  6 active torsions:
REMARK  status: ('A' for Active; 'I' for Inactive)
REMARK    1  A    between atoms: C_1  and  C_2
REMARK    2  A    between atoms: C_4  and  C_33
REMARK    3  A    between atoms: C_6  and  N_8
REMARK    4  A    between atoms: C_10  and  C_15
REMARK    5  A    between atoms: C_21  and  C_23
REMARK    6  A    between atoms: C_25  and  N_30
REMARK                            x       y       z     vdW  Elec       q    Type
REMARK                         _______ _______ _______ _____ _____    ______ ____
ROOT
ATOM      1  C   UNL     1      -1.492  -4.728  -0.006  0.00  0.00    +0.109 A 
ATOM      2  N   UNL     1      -0.299  -4.167  -0.000  0.00  0.00    -0.144 NA
ATOM      3  N   UNL     1      -0.146  -2.915   0.004  0.00  0.00    -0.126 NA
ATOM      4  C   UNL     1      -1.179  -2.084   0.015  0.00  0.00    +0.188 A 
ATOM      5  S   UNL     1      -2.525  -3.265   0.004  0.00  0.00    -0.035 S 
ATOM      6  N   UNL     1      -1.209  -0.694   0.026  0.00  0.00    -0.259 N 
ATOM      7  C   UNL     1      -0.057   0.005   0.033  0.00  0.00    +0.251 C 
ATOM      8  O   UNL     1       1.009  -0.580   0.030  0.00  0.00    -0.270 OA
ATOM      9  H   UNL     1      -2.173  -0.165   0.029  0.00  0.00    +0.157 HD
ENDROOT
BRANCH   7  10
ATOM     10  C   UNL     1      -0.089   1.482   0.045  0.00  0.00    +0.057 A 
ATOM     11  C   UNL     1      -1.311   2.157   0.043  0.00  0.00    +0.047 A 
ATOM     12  C   UNL     1      -1.334   3.535   0.060  0.00  0.00    +0.127 A 
ATOM     13  C   UNL     1      -0.149   4.251   0.067  0.00  0.00    +0.034 A 
ATOM     14  C   UNL     1       1.066   3.590   0.064  0.00  0.00    +0.023 A 
ATOM     15  C   UNL     1       1.104   2.209   0.052  0.00  0.00    +0.053 A 
ATOM     16 CL   UNL     1       2.629   1.381   0.048  0.00  0.00    -0.083 Cl
BRANCH  12  17
ATOM     17  N   UNL     1      -2.629   4.252   0.065  0.00  0.00    +0.056 N 
ATOM     18  O   UNL     1      -2.651   5.470   0.075  0.00  0.00    -0.126 OA
ATOM     19  O   UNL     1      -3.672   3.624   0.058  0.00  0.00    -0.126 OA
ENDBRANCH  12  17
ENDBRANCH   7  10
BRANCH   1  22
ATOM     20  N   UNL     1      -0.904  -8.262   0.682  0.00  0.00    -0.271 N 
ATOM     21  C   UNL     1      -1.257  -6.929   1.186  0.00  0.00    +0.124 C 
ATOM     22  C   UNL     1      -1.877  -6.185  -0.018  0.00  0.00    +0.073 C 
ATOM     23  C   UNL     1      -1.226  -6.919  -1.213  0.00  0.00    +0.108 C 
ATOM     24  C   UNL     1      -0.874  -8.284  -0.661  0.00  0.00    +0.220 C 
ATOM     25  O   UNL     1      -0.603  -9.256  -1.334  0.00  0.00    -0.275 OA
BRANCH  20  31
ATOM     26  C   UNL     1       0.065 -13.063   1.115  0.00  0.00    +0.044 C 
ATOM     27  C   UNL     1      -0.162 -11.707   1.733  0.00  0.00    -0.048 A 
ATOM     28  C   UNL     1      -0.102 -11.555   3.106  0.00  0.00    +0.006 A 
ATOM     29  C   UNL     1      -0.309 -10.312   3.676  0.00  0.00    -0.048 A 
ATOM     30  C   UNL     1      -0.575  -9.218   2.876  0.00  0.00    +0.027 A 
ATOM     31  C   UNL     1      -0.635  -9.368   1.496  0.00  0.00    +0.037 A 
ATOM     32  C   UNL     1      -0.434 -10.618   0.927  0.00  0.00    +0.027 A 
ATOM     33  C   UNL     1      -0.243 -10.150   5.173  0.00  0.00    +0.044 C 
ENDBRANCH  20  31
ENDBRANCH   1  22
TORSDOF 4
