REMARK  Name = ZINC05017693
REMARK  9 active torsions:
REMARK  status: ('A' for Active; 'I' for Inactive)
REMARK    1  A    between atoms: C_1  and  C_2
REMARK    2  A    between atoms: C_2  and  O_3
REMARK    3  A    between atoms: O_3  and  C_4
REMARK    4  A    between atoms: C_4  and  C_6
REMARK    5  A    between atoms: C_7  and  C_22
REMARK    6  A    between atoms: C_12  and  C_14
REMARK    7  A    between atoms: C_19  and  O_20
REMARK    8  A    between atoms: O_20  and  C_21
REMARK    9  A    between atoms: C_22  and  N_52
REMARK                            x       y       z     vdW  Elec       q    Type
REMARK                         _______ _______ _______ _____ _____    ______ ____
ROOT
ATOM      1  C   UNL     1      -0.163   2.659  -2.118  0.00  0.00    +0.076 C 
ATOM      2  C   UNL     1      -0.569   1.617  -1.361  0.00  0.00    +0.008 C 
ATOM      3  N   UNL     1      -1.781   1.024  -1.569  0.00  0.00    -0.274 N 
ATOM      4  C   UNL     1      -2.651   1.422  -2.506  0.00  0.00    +0.304 C 
ATOM      5  O   UNL     1      -3.710   0.834  -2.613  0.00  0.00    -0.252 OA
ATOM      6  N   UNL     1      -2.388   2.448  -3.339  0.00  0.00    -0.288 N 
ATOM      7  C   UNL     1      -1.102   3.152  -3.200  0.00  0.00    +0.147 C 
ATOM      8  H   UNL     1      -2.028   0.276  -1.003  0.00  0.00    +0.156 HD
ATOM      9  H   UNL     1      -3.031   2.717  -4.013  0.00  0.00    +0.151 HD
ENDROOT
BRANCH   7  10
ATOM     10  C   UNL     1      -1.394   4.606  -2.935  0.00  0.00    +0.019 A 
ATOM     11  C   UNL     1      -2.512   4.965  -2.207  0.00  0.00    +0.009 A 
ATOM     12  C   UNL     1      -2.781   6.299  -1.963  0.00  0.00    +0.001 A 
ATOM     13  C   UNL     1      -1.932   7.278  -2.448  0.00  0.00    +0.004 A 
ATOM     14  C   UNL     1      -0.812   6.924  -3.175  0.00  0.00    +0.046 A 
ATOM     15  C   UNL     1      -0.538   5.585  -3.418  0.00  0.00    +0.125 A 
BRANCH  15  16
ATOM     16  O   UNL     1       0.565   5.234  -4.130  0.00  0.00    -0.495 OA
ATOM     17  C   UNL     1       1.332   6.295  -4.702  0.00  0.00    +0.277 C 
ENDBRANCH  15  16
ENDBRANCH   7  10
BRANCH   1  18
ATOM     18  C   UNL     1       1.095   3.271  -1.907  0.00  0.00    +0.339 C 
ATOM     19  O   UNL     1       2.013   3.053  -2.674  0.00  0.00    -0.245 OA
BRANCH  18  20
ATOM     20  O   UNL     1       1.276   4.096  -0.854  0.00  0.00    -0.462 OA
BRANCH  20  22
ATOM     21  C   UNL     1       2.599   5.556   0.544  0.00  0.00    +0.048 C 
ATOM     22  C   UNL     1       2.535   4.766  -0.765  0.00  0.00    +0.229 C 
ENDBRANCH  20  22
ENDBRANCH  18  20
ENDBRANCH   1  18
BRANCH   2  23
ATOM     23  C   UNL     1       0.334   1.095  -0.273  0.00  0.00    -0.026 C 
BRANCH  23  29
ATOM     24  C   UNL     1      -0.489   2.714   1.322  0.00  0.00    -0.068 C 
ATOM     25  C   UNL     1      -1.541   2.892   2.423  0.00  0.00    +0.050 C 
ATOM     26  S   UNL     1      -0.941   2.063   3.928  0.00  0.00    -0.164 S 
ATOM     27  C   UNL     1      -0.476   0.413   3.318  0.00  0.00    +0.050 C 
ATOM     28  C   UNL     1       0.424   0.588   2.089  0.00  0.00    -0.068 C 
ATOM     29  N   UNL     1      -0.344   1.272   1.023  0.00  0.00    +0.384 N 
ATOM     30  H   UNL     1      -1.279   0.852   0.969  0.00  0.00    -0.081 HD
ENDBRANCH  23  29
ENDBRANCH   2  23
TORSDOF 7
