REMARK  Name = ZINC09721709
REMARK  5 active torsions:
REMARK  status: ('A' for Active; 'I' for Inactive)
REMARK    1  A    between atoms: C_4  and  C_7
REMARK    2  A    between atoms: C_9  and  C_18
REMARK    3  A    between atoms: N_11  and  C_12
REMARK    4  A    between atoms: N_20  and  N_21
REMARK    5  A    between atoms: C_22  and  C_24
REMARK                            x       y       z     vdW  Elec       q    Type
REMARK                         _______ _______ _______ _____ _____    ______ ____
ROOT
ATOM      1  C   UNL     1      -1.908   5.511   0.338  0.00  0.00    +0.164 A 
ATOM      2  N   UNL     1      -2.219   4.232   0.412  0.00  0.00    -0.202 NA
ATOM      3  C   UNL     1      -1.160   3.538  -0.037  0.00  0.00    +0.239 A 
ATOM      4  N   UNL     1      -0.218   4.393  -0.374  0.00  0.00    -0.139 NA
ATOM      5  N   UNL     1      -0.644   5.590  -0.163  0.00  0.00    -0.212 N 
ENDROOT
BRANCH   1   9
ATOM      6  C   UNL     1      -4.386   8.776   1.456  0.00  0.00    +0.000 A 
ATOM      7  C   UNL     1      -4.956   7.617   0.959  0.00  0.00    +0.001 A 
ATOM      8  C   UNL     1      -4.157   6.553   0.595  0.00  0.00    +0.011 A 
ATOM      9  C   UNL     1      -2.771   6.648   0.727  0.00  0.00    +0.019 A 
ATOM     10  C   UNL     1      -2.203   7.817   1.234  0.00  0.00    +0.011 A 
ATOM     11  C   UNL     1      -3.013   8.876   1.589  0.00  0.00    +0.001 A 
ENDBRANCH   1   9
BRANCH   5  12
ATOM     12  C   UNL     1       0.071   6.770  -0.403  0.00  0.00    +0.068 A 
ATOM     13  C   UNL     1      -0.550   7.847  -1.022  0.00  0.00    +0.028 A 
ATOM     14  C   UNL     1       0.156   9.011  -1.252  0.00  0.00    +0.002 A 
ATOM     15  C   UNL     1       1.485   9.101  -0.878  0.00  0.00    +0.000 A 
ATOM     16  C   UNL     1       2.108   8.028  -0.267  0.00  0.00    +0.002 A 
ATOM     17  C   UNL     1       1.406   6.864  -0.029  0.00  0.00    +0.028 A 
ENDBRANCH   5  12
BRANCH   3  18
ATOM     18  C   UNL     1      -1.067   2.065  -0.131  0.00  0.00    +0.299 C 
ATOM     19  O   UNL     1      -2.004   1.373   0.216  0.00  0.00    -0.265 OA
ATOM     20  N   UNL     1       0.057   1.490  -0.602  0.00  0.00    -0.227 N 
ATOM     21  H   UNL     1       0.804   2.042  -0.883  0.00  0.00    +0.173 HD
BRANCH  20  22
ATOM     22  N   UNL     1       0.146   0.094  -0.691  0.00  0.00    -0.230 N 
ATOM     23  C   UNL     1       1.268  -0.481  -1.167  0.00  0.00    +0.267 C 
ATOM     24  O   UNL     1       2.204   0.212  -1.520  0.00  0.00    -0.268 OA
ATOM     25  H   UNL     1      -0.601  -0.458  -0.410  0.00  0.00    +0.173 HD
BRANCH  23  26
ATOM     26  C   UNL     1       1.360  -1.941  -1.260  0.00  0.00    +0.075 A 
ATOM     27  C   UNL     1       2.408  -2.722  -1.720  0.00  0.00    +0.021 A 
ATOM     28  C   UNL     1       2.232  -4.083  -1.694  0.00  0.00    +0.008 A 
ATOM     29  C   UNL     1       1.056  -4.591  -1.238  0.00  0.00    +0.046 A 
ATOM     30  S   UNL     1       0.150  -3.175  -0.818  0.00  0.00    -0.092 S 
ENDBRANCH  23  26
ENDBRANCH  20  22
ENDBRANCH   3  18
TORSDOF 5
