REMARK  Name = ZINC13246641
REMARK  10 active torsions:
REMARK  status: ('A' for Active; 'I' for Inactive)
REMARK    1  A    between atoms: C_1  and  C_2
REMARK    2  A    between atoms: C_6  and  C_23
REMARK    3  A    between atoms: C_7  and  N_8
REMARK    4  A    between atoms: C_9  and  C_11
REMARK    5  A    between atoms: C_11  and  S_12
REMARK    6  A    between atoms: S_12  and  C_13
REMARK    7  A    between atoms: N_18  and  C_19
REMARK    8  A    between atoms: C_19  and  C_20
REMARK    9  A    between atoms: C_19  and  C_21
REMARK   10  A    between atoms: C_19  and  C_22
REMARK                            x       y       z     vdW  Elec       q    Type
REMARK                         _______ _______ _______ _____ _____    ______ ____
ROOT
ATOM      1  N   UNL     1      -1.612  -1.938   0.486  0.00  0.00    -0.284 N 
ATOM      2  C   UNL     1      -1.155  -0.948  -0.307  0.00  0.00    +0.227 C 
ATOM      3  O   UNL     1      -1.868  -0.489  -1.175  0.00  0.00    -0.275 OA
ATOM      4  H   UNL     1      -1.025  -2.342   1.144  0.00  0.00    +0.155 HD
ENDROOT
BRANCH   1  11
ATOM      5  C   UNL     1      -3.695  -0.013   0.676  0.00  0.00    +0.046 C 
ATOM      6  C   UNL     1      -3.977  -1.476   0.447  0.00  0.00    -0.028 A 
ATOM      7  C   UNL     1      -5.280  -1.915   0.318  0.00  0.00    +0.005 A 
ATOM      8  C   UNL     1      -5.550  -3.258   0.114  0.00  0.00    +0.001 A 
ATOM      9  C   UNL     1      -4.521  -4.170   0.031  0.00  0.00    +0.017 A 
ATOM     10  C   UNL     1      -3.197  -3.741   0.154  0.00  0.00    +0.085 A 
ATOM     11  C   UNL     1      -2.927  -2.379   0.361  0.00  0.00    +0.051 A 
BRANCH  10  12
ATOM     12  C   UNL     1      -2.091  -4.711   0.066  0.00  0.00    +0.388 C 
ATOM     13  O   UNL     1      -0.949  -4.351   0.269  0.00  0.00    -0.241 OA
ATOM     14  O   UNL     1      -2.347  -5.998  -0.241  0.00  0.00    -0.241 OA
ENDBRANCH  10  12
ENDBRANCH   1  11
BRANCH   2  15
ATOM     15  C   UNL     1       0.240  -0.413  -0.117  0.00  0.00    +0.172 C 
BRANCH  15  16
ATOM     16  S   UNL     1       0.555   0.900  -1.327  0.00  0.00    -0.088 S 
BRANCH  16  17
ATOM     17  C   UNL     1       2.204   1.415  -0.979  0.00  0.00    +0.160 A 
ATOM     18  N   UNL     1       3.042   0.972  -0.061  0.00  0.00    -0.133 NA
ATOM     19  N   UNL     1       4.299   1.521   0.039  0.00  0.00    -0.125 NA
ATOM     20  C   UNL     1       4.661   2.487  -0.782  0.00  0.00    +0.183 A 
ATOM     21  S   UNL     1       3.191   2.671  -1.778  0.00  0.00    -0.025 S 
ATOM     22  N   UNL     1       5.867   3.175  -0.855  0.00  0.00    -0.317 N 
ATOM     23  H   UNL     1       5.989   3.870  -1.520  0.00  0.00    +0.149 HD
BRANCH  22  24
ATOM     24  C   UNL     1       6.953   2.850   0.073  0.00  0.00    +0.026 C 
ATOM     25  C   UNL     1       7.353   1.384  -0.103  0.00  0.00    +0.031 C 
ATOM     26  C   UNL     1       8.159   3.746  -0.220  0.00  0.00    +0.031 C 
ATOM     27  C   UNL     1       6.483   3.082   1.510  0.00  0.00    +0.031 C 
ENDBRANCH  22  24
ENDBRANCH  16  17
ENDBRANCH  15  16
ENDBRANCH   2  15
TORSDOF 6
