REMARK  Name = ZINC62378345
REMARK  8 active torsions:
REMARK  status: ('A' for Active; 'I' for Inactive)
REMARK    1  A    between atoms: C_1  and  C_2
REMARK    2  A    between atoms: C_2  and  C_3
REMARK    3  A    between atoms: C_2  and  C_4
REMARK    4  A    between atoms: C_4  and  N_5
REMARK    5  A    between atoms: N_5  and  C_6
REMARK    6  A    between atoms: N_9  and  C_10
REMARK    7  A    between atoms: C_14  and  S_16
REMARK    8  A    between atoms: S_16  and  N_19
REMARK                            x       y       z     vdW  Elec       q    Type
REMARK                         _______ _______ _______ _____ _____    ______ ____
ROOT
ATOM      1  C   UNL     1      -1.391  -4.444  -2.745  0.00  0.00    +0.037 A 
ATOM      2  C   UNL     1      -1.344  -3.602  -3.849  0.00  0.00    +0.023 A 
ATOM      3  C   UNL     1      -1.296  -4.137  -5.122  0.00  0.00    +0.004 A 
ATOM      4  C   UNL     1      -1.294  -5.509  -5.297  0.00  0.00    +0.029 A 
ATOM      5  C   UNL     1      -1.341  -6.349  -4.200  0.00  0.00    +0.114 A 
ATOM      6  C   UNL     1      -1.383  -5.821  -2.925  0.00  0.00    +0.052 A 
ENDROOT
BRANCH   1  11
ATOM      7  N   UNL     1      -0.774  -3.961   0.782  0.00  0.00    -0.288 N 
ATOM      8  C   UNL     1      -1.429  -2.670   1.009  0.00  0.00    +0.133 C 
ATOM      9  C   UNL     1      -0.805  -4.527  -0.441  0.00  0.00    +0.306 C 
ATOM     10  O   UNL     1      -0.262  -5.598  -0.629  0.00  0.00    -0.252 OA
ATOM     11  N   UNL     1      -1.439  -3.905  -1.454  0.00  0.00    -0.269 N 
ATOM     12  H   UNL     1      -1.929  -3.084  -1.290  0.00  0.00    +0.156 HD
BRANCH   7  13
ATOM     13  C   UNL     1      -0.085  -4.636   1.885  0.00  0.00    +0.112 C 
BRANCH  13  15
ATOM     14  C   UNL     1      -0.321  -6.352   3.686  0.00  0.00    +0.009 C 
ATOM     15  C   UNL     1      -1.068  -5.553   2.615  0.00  0.00    +0.000 C 
ATOM     16  C   UNL     1      -2.158  -4.708   3.277  0.00  0.00    +0.009 C 
ENDBRANCH  13  15
ENDBRANCH   7  13
ENDBRANCH   1  11
BRANCH   5  17
ATOM     17  S   UNL     1      -1.339  -8.096  -4.429  0.00  0.00    +0.100 S 
ATOM     18  O   UNL     1      -1.938  -8.658  -3.270  0.00  0.00    -0.146 OA
ATOM     19  O   UNL     1      -1.840  -8.335  -5.737  0.00  0.00    -0.146 OA
BRANCH  17  20
ATOM     20  N   UNL     1       0.242  -8.588  -4.431  0.00  0.00    -0.118 NA
ATOM     21  C   UNL     1       0.530  -9.840  -4.584  0.00  0.00    +0.117 C 
ATOM     22  C   UNL     1       1.986 -10.297  -4.579  0.00  0.00    +0.073 C 
ATOM     23  C   UNL     1       2.206 -11.088  -3.307  0.00  0.00    +0.008 C 
ATOM     24  C   UNL     1       1.887 -12.577  -3.453  0.00  0.00    +0.002 C 
ATOM     25  C   UNL     1       0.600 -12.840  -4.237  0.00  0.00    +0.019 C 
ATOM     26  C   UNL     1      -0.531 -11.909  -3.858  0.00  0.00    +0.102 C 
ATOM     27  N   UNL     1      -0.435 -10.726  -4.738  0.00  0.00    -0.331 N 
ATOM     28  H   UNL     1      -1.092 -10.601  -5.440  0.00  0.00    +0.147 HD
ENDBRANCH  17  20
ENDBRANCH   5  17
TORSDOF 5
