REMARK  Name = ZINC26770577
REMARK  6 active torsions:
REMARK  status: ('A' for Active; 'I' for Inactive)
REMARK    1  A    between atoms: C_4  and  C_7
REMARK    2  A    between atoms: C_7  and  C_9
REMARK    3  A    between atoms: C_11  and  C_23
REMARK    4  A    between atoms: C_17  and  C_18
REMARK    5  A    between atoms: C_17  and  O_22
REMARK    6  A    between atoms: C_26  and  C_28
REMARK                            x       y       z     vdW  Elec       q    Type
REMARK                         _______ _______ _______ _____ _____    ______ ____
ROOT
ATOM      1  C   UNL     1       1.423   1.982  -0.001  0.00  0.00    +0.147 C 
ATOM      2  C   UNL     1      -0.018   1.460   0.010  0.00  0.00    +0.156 C 
ATOM      3  N   UNL     1       0.002  -0.004   0.002  0.00  0.00    -0.289 N 
ATOM      4  C   UNL     1       1.018  -0.691   0.545  0.00  0.00    +0.302 C 
ATOM      5  O   UNL     1       0.980  -1.906   0.522  0.00  0.00    -0.253 OA
ATOM      6  N   UNL     1       2.074  -0.091   1.115  0.00  0.00    -0.264 N 
ATOM      7  C   UNL     1       2.173   1.368   1.186  0.00  0.00    +0.243 C 
ATOM      8  H   UNL     1      -0.827  -0.563  -0.456  0.00  0.00    +0.151 HD
ATOM      9  H   UNL     1       2.875  -0.718   1.533  0.00  0.00    +0.153 HD
ENDROOT
BRANCH   2  10
ATOM     10  C   UNL     1      -0.721   1.947   1.251  0.00  0.00    +0.127 A 
ATOM     11  C   UNL     1      -1.574   2.988   1.313  0.00  0.00    +0.047 A 
ATOM     12  C   UNL     1      -1.997   3.096   2.653  0.00  0.00    +0.050 A 
ATOM     13  C   UNL     1      -1.372   2.105   3.342  0.00  0.00    +0.137 A 
ATOM     14  O   UNL     1      -0.606   1.412   2.477  0.00  0.00    -0.458 OA
BRANCH  13  15
ATOM     15  C   UNL     1      -1.514   1.830   4.787  0.00  0.00    +0.036 A 
ATOM     16  C   UNL     1      -1.363   2.862   5.715  0.00  0.00    +0.013 A 
ATOM     17  C   UNL     1      -1.501   2.600   7.062  0.00  0.00    +0.001 A 
ATOM     18  C   UNL     1      -1.779   1.316   7.496  0.00  0.00    +0.001 A 
ATOM     19  C   UNL     1      -1.925   0.287   6.583  0.00  0.00    +0.021 A 
ATOM     20  C   UNL     1      -1.794   0.536   5.231  0.00  0.00    +0.052 A 
ATOM     21 CL   UNL     1      -1.976  -0.756   4.087  0.00  0.00    -0.083 Cl
ENDBRANCH  13  15
ENDBRANCH   2  10
BRANCH   7  22
ATOM     22  C   UNL     1       3.645   1.784   1.131  0.00  0.00    +0.436 C 
ATOM     23  F   UNL     1       4.212   1.336  -0.067  0.00  0.00    -0.166 F 
ATOM     24  F   UNL     1       3.738   3.178   1.200  0.00  0.00    -0.166 F 
ATOM     25  F   UNL     1       4.330   1.217   2.212  0.00  0.00    -0.166 F 
ENDBRANCH   7  22
BRANCH   1  26
ATOM     26  C   UNL     1       2.097   1.581  -1.288  0.00  0.00    +0.173 C 
ATOM     27  O   UNL     1       2.694   0.529  -1.357  0.00  0.00    -0.292 OA
BRANCH  26  31
ATOM     28  C   UNL     1       1.902   4.136  -4.668  0.00  0.00    +0.000 A 
ATOM     29  C   UNL     1       2.585   2.936  -4.751  0.00  0.00    +0.001 A 
ATOM     30  C   UNL     1       2.653   2.100  -3.657  0.00  0.00    +0.011 A 
ATOM     31  C   UNL     1       2.029   2.468  -2.461  0.00  0.00    +0.018 A 
ATOM     32  C   UNL     1       1.336   3.680  -2.386  0.00  0.00    +0.011 A 
ATOM     33  C   UNL     1       1.281   4.508  -3.488  0.00  0.00    +0.001 A 
ENDBRANCH  26  31
ENDBRANCH   1  26
BRANCH   7  34
ATOM     34  O   UNL     1       1.592   1.827   2.408  0.00  0.00    -0.364 OA
ATOM     35  H   UNL     1       2.001   1.490   3.372  0.00  0.00    +0.212 HD
ENDBRANCH   7  34
TORSDOF 6
