REMARK  Name = ZINC63655279
REMARK  16 active torsions:
REMARK  status: ('A' for Active; 'I' for Inactive)
REMARK    1  A    between atoms: C_1  and  C_2
REMARK    2  A    between atoms: C_2  and  N_3
REMARK    3  A    between atoms: N_3  and  C_4
REMARK    4  A    between atoms: C_4  and  N_6
REMARK    5  A    between atoms: N_6  and  C_7
REMARK    6  A    between atoms: N_6  and  C_21
REMARK    7  A    between atoms: C_7  and  C_8
REMARK    8  A    between atoms: C_8  and  C_9
REMARK    9  A    between atoms: C_17  and  C_19
REMARK   10  A    between atoms: C_21  and  C_22
REMARK   11  A    between atoms: C_24  and  O_32
REMARK   12  A    between atoms: C_25  and  O_30
REMARK   13  A    between atoms: C_26  and  O_28
REMARK   14  A    between atoms: O_28  and  C_29
REMARK   15  A    between atoms: O_30  and  C_31
REMARK   16  A    between atoms: O_32  and  C_33
REMARK                            x       y       z     vdW  Elec       q    Type
REMARK                         _______ _______ _______ _____ _____    ______ ____
ROOT
ATOM      1  N   UNL     1      -2.865  -2.306   0.017  0.00  0.00    -0.308 N 
ENDROOT
BRANCH   1   2
ATOM      2  C   UNL     1      -1.601  -1.839   0.007  0.00  0.00    +0.133 C 
ATOM      3  S   UNL     1      -0.284  -2.934  -0.011  0.00  0.00    -0.019 S 
BRANCH   2   4
ATOM      4  N   UNL     1      -1.372  -0.511   0.012  0.00  0.00    -0.327 N 
ATOM      5  H   UNL     1      -2.118   0.109   0.023  0.00  0.00    +0.148 HD
BRANCH   4   7
ATOM      6  C   UNL     1      -0.019   1.526   0.010  0.00  0.00    +0.024 C 
ATOM      7  C   UNL     1       0.002  -0.004   0.002  0.00  0.00    +0.100 C 
ENDBRANCH   4   7
ENDBRANCH   2   4
ENDBRANCH   1   2
BRANCH   1   8
ATOM      8  C   UNL     1      -3.113  -3.750   0.012  0.00  0.00    +0.111 C 
BRANCH   8   9
ATOM      9  C   UNL     1      -3.186  -4.260   1.452  0.00  0.00    +0.052 C 
BRANCH   9  10
ATOM     10  C   UNL     1      -3.441  -5.745   1.447  0.00  0.00    -0.037 C 
ATOM     11  C   UNL     1      -3.583  -6.542   0.363  0.00  0.00    +0.001 A 
ATOM     12  C   UNL     1      -3.545  -6.274  -1.080  0.00  0.00    +0.030 A 
ATOM     13  C   UNL     1      -3.726  -7.300  -1.943  0.00  0.00    +0.042 A 
ATOM     14  C   UNL     1      -3.950  -8.611  -1.494  0.00  0.00    +0.022 A 
ATOM     15  C   UNL     1      -3.998  -8.934  -0.184  0.00  0.00    +0.027 A 
ATOM     16  C   UNL     1      -3.820  -7.933   0.810  0.00  0.00    +0.043 A 
ATOM     17  N   UNL     1      -3.824  -7.994   2.120  0.00  0.00    -0.378 N 
ATOM     18  C   UNL     1      -3.583  -6.648   2.652  0.00  0.00    +0.103 C 
ATOM     19  C   UNL     1      -2.298  -6.627   3.481  0.00  0.00    +0.035 C 
ATOM     20 CL   UNL     1      -3.682  -6.987  -3.650  0.00  0.00    -0.084 Cl
ATOM     21  H   UNL     1      -3.960  -8.796   2.649  0.00  0.00    +0.160 HD
ENDBRANCH   9  10
ENDBRANCH   8   9
ENDBRANCH   1   8
BRANCH   1  22
ATOM     22  C   UNL     1      -3.991  -1.369   0.033  0.00  0.00    +0.142 C 
BRANCH  22  23
ATOM     23  C   UNL     1      -4.391  -1.040  -1.383  0.00  0.00    -0.023 A 
ATOM     24  C   UNL     1      -3.804   0.028  -2.034  0.00  0.00    +0.054 A 
ATOM     25  C   UNL     1      -4.169   0.334  -3.336  0.00  0.00    +0.165 A 
ATOM     26  C   UNL     1      -5.127  -0.435  -3.986  0.00  0.00    +0.204 A 
ATOM     27  C   UNL     1      -5.715  -1.508  -3.328  0.00  0.00    +0.165 A 
ATOM     28  C   UNL     1      -5.340  -1.811  -2.027  0.00  0.00    +0.054 A 
BRANCH  27  29
ATOM     29  O   UNL     1      -6.653  -2.264  -3.960  0.00  0.00    -0.491 OA
ATOM     30  C   UNL     1      -7.214  -3.351  -3.222  0.00  0.00    +0.277 C 
ENDBRANCH  27  29
BRANCH  26  31
ATOM     31  O   UNL     1      -5.489  -0.138  -5.264  0.00  0.00    -0.488 OA
ATOM     32  C   UNL     1      -4.746  -0.765  -6.311  0.00  0.00    +0.277 C 
ENDBRANCH  26  31
BRANCH  25  33
ATOM     33  O   UNL     1      -3.591   1.386  -3.976  0.00  0.00    -0.491 OA
ATOM     34  C   UNL     1      -2.615   2.132  -3.247  0.00  0.00    +0.277 C 
ENDBRANCH  25  33
ENDBRANCH  22  23
ENDBRANCH   1  22
TORSDOF 11
