REMARK  Name = ZINC64369802
REMARK  3 active torsions:
REMARK  status: ('A' for Active; 'I' for Inactive)
REMARK    1  A    between atoms: C_6  and  C_7
REMARK    2  A    between atoms: C_7  and  C_8
REMARK    3  A    between atoms: C_14  and  C_17
REMARK                            x       y       z     vdW  Elec       q    Type
REMARK                         _______ _______ _______ _____ _____    ______ ____
ROOT
ATOM      1  C   UNL     1      -1.738  -1.024  -1.407  0.00  0.00    +0.156 A 
ATOM      2  N   UNL     1      -2.498  -0.244  -2.118  0.00  0.00    -0.132 NA
ATOM      3  N   UNL     1      -2.694  -0.759  -3.281  0.00  0.00    -0.121 NA
ATOM      4  C   UNL     1      -2.082  -1.899  -3.356  0.00  0.00    +0.210 A 
ATOM      5  N   UNL     1      -1.407  -2.120  -2.183  0.00  0.00    -0.224 N 
ATOM      6  N   UNL     1      -0.630  -3.235  -2.062  0.00  0.00    -0.265 N 
ATOM      7  C   UNL     1      -0.969  -4.340  -2.998  0.00  0.00    +0.182 C 
ATOM      8  S   UNL     1      -1.727  -3.336  -4.346  0.00  0.00    -0.058 S 
ATOM      9  H   UNL     1       0.349  -3.001  -2.118  0.00  0.00    +0.168 HD
ENDROOT
BRANCH   7  10
ATOM     10  C   UNL     1       0.284  -5.079  -3.473  0.00  0.00    +0.184 C 
ATOM     11  C   UNL     1      -0.078  -6.163  -4.472  0.00  0.00    +0.025 C 
ATOM     12  C   UNL     1       0.556  -5.798  -5.588  0.00  0.00    +0.132 C 
ATOM     13  N   UNL     1       1.244  -4.651  -5.395  0.00  0.00    -0.162 NA
ATOM     14  N   UNL     1       1.153  -4.182  -4.253  0.00  0.00    -0.177 NA
ENDBRANCH   7  10
BRANCH   1  15
ATOM     15  C   UNL     1      -1.293  -0.775   0.011  0.00  0.00    +0.113 C 
BRANCH  15  21
ATOM     16  C   UNL     1      -0.017   1.378   0.010  0.00  0.00    +0.005 A 
ATOM     17  C   UNL     1       1.171   2.086   0.002  0.00  0.00    +0.020 A 
ATOM     18  C   UNL     1       2.378   1.410  -0.013  0.00  0.00    +0.041 A 
ATOM     19  C   UNL     1       2.396   0.027  -0.021  0.00  0.00    +0.020 A 
ATOM     20  C   UNL     1       1.208  -0.679  -0.013  0.00  0.00    +0.005 A 
ATOM     21  C   UNL     1       0.002  -0.004   0.002  0.00  0.00    -0.040 A 
ATOM     22 CL   UNL     1       3.870   2.298  -0.023  0.00  0.00    -0.084 Cl
ENDBRANCH  15  21
ENDBRANCH   1  15
TORSDOF 3
