REMARK  Name = ZINC36354140
REMARK  5 active torsions:
REMARK  status: ('A' for Active; 'I' for Inactive)
REMARK    1  A    between atoms: C_1  and  O_2
REMARK    2  A    between atoms: O_2  and  C_3
REMARK    3  A    between atoms: C_5  and  C_10
REMARK    4  A    between atoms: C_8  and  O_9
REMARK    5  A    between atoms: C_13  and  O_26
REMARK                            x       y       z     vdW  Elec       q    Type
REMARK                         _______ _______ _______ _____ _____    ______ ____
ROOT
ATOM      1  C   UNL     1      -4.871   0.257   0.037  0.00  0.00    +0.068 C 
ATOM      2  C   UNL     1      -5.701  -0.096   1.283  0.00  0.00    +0.109 C 
ATOM      3  C   UNL     1      -6.440  -1.386   1.077  0.00  0.00    +0.190 C 
ATOM      4  N   UNL     1      -6.888  -1.802  -0.060  0.00  0.00    -0.197 NA
ATOM      5  C   UNL     1      -6.656  -1.062  -1.214  0.00  0.00    +0.169 A 
ATOM      6  C   UNL     1      -5.692  -0.081  -1.158  0.00  0.00    +0.045 A 
ATOM      7  S   UNL     1      -5.718   0.595  -2.792  0.00  0.00    -0.054 S 
ATOM      8  C   UNL     1      -6.988  -0.485  -3.446  0.00  0.00    +0.163 A 
ATOM      9  N   UNL     1      -7.272  -1.234  -2.389  0.00  0.00    -0.206 NA
ATOM     10  N   UNL     1      -7.530  -0.528  -4.720  0.00  0.00    -0.310 N 
ATOM     11  C   UNL     1      -7.065   0.397  -5.763  0.00  0.00    +0.107 C 
ATOM     12  C   UNL     1      -6.646  -0.416  -6.992  0.00  0.00    +0.019 C 
ATOM     13  C   UNL     1      -7.806  -1.317  -7.423  0.00  0.00    +0.003 C 
ATOM     14  C   UNL     1      -8.144  -2.291  -6.292  0.00  0.00    +0.019 C 
ATOM     15  C   UNL     1      -8.576  -1.504  -5.056  0.00  0.00    +0.107 C 
ENDROOT
BRANCH   1  18
ATOM     16  C   UNL     1      -1.201  -0.638   0.010  0.00  0.00    +0.162 A 
ATOM     17  C   UNL     1      -2.374   0.099   0.019  0.00  0.00    +0.053 A 
ATOM     18  C   UNL     1      -3.596  -0.546   0.027  0.00  0.00    -0.035 A 
ATOM     19  C   UNL     1      -3.652  -1.928   0.026  0.00  0.00    +0.008 A 
ATOM     20  C   UNL     1      -2.485  -2.669   0.017  0.00  0.00    +0.049 A 
ATOM     21  C   UNL     1      -1.257  -2.028   0.003  0.00  0.00    +0.158 A 
BRANCH  16  23
ATOM     22  C   UNL     1      -0.017   1.425   0.010  0.00  0.00    +0.277 C 
ATOM     23  O   UNL     1       0.002  -0.004   0.002  0.00  0.00    -0.491 OA
ENDBRANCH  16  23
BRANCH  21  24
ATOM     24  O   UNL     1      -0.108  -2.756  -0.012  0.00  0.00    -0.503 OA
ATOM     25  H   UNL     1       0.232  -2.972   0.867  0.00  0.00    +0.292 HD
ENDBRANCH  21  24
ENDBRANCH   1  18
BRANCH   3  26
ATOM     26  O   UNL     1      -6.651  -2.167   2.158  0.00  0.00    -0.495 OA
ATOM     27  H   UNL     1      -7.131  -2.984   1.965  0.00  0.00    +0.293 HD
ENDBRANCH   3  26
TORSDOF 4
