REMARK  Name = ZINC38189302
REMARK  5 active torsions:
REMARK  status: ('A' for Active; 'I' for Inactive)
REMARK    1  A    between atoms: C_10  and  C_12
REMARK    2  A    between atoms: C_12  and  C_28
REMARK    3  A    between atoms: C_13  and  C_14
REMARK    4  A    between atoms: C_13  and  O_27
REMARK    5  A    between atoms: C_17  and  C_19
REMARK                            x       y       z     vdW  Elec       q    Type
REMARK                         _______ _______ _______ _____ _____    ______ ____
ROOT
ATOM      1  C   UNL     1       4.921  -2.610  -0.058  0.00  0.00    +0.141 C 
ATOM      2  C   UNL     1       4.971  -4.000  -0.065  0.00  0.00    +0.180 C 
ENDROOT
BRANCH   1  12
ATOM      3  C   UNL     1      -0.016   1.360   0.009  0.00  0.00    +0.001 A 
ATOM      4  C   UNL     1       1.168   2.091   0.002  0.00  0.00    +0.002 A 
ATOM      5  C   UNL     1       2.379   1.467  -0.013  0.00  0.00    +0.028 A 
ATOM      6  C   UNL     1       2.436   0.066  -0.021  0.00  0.00    +0.079 A 
ATOM      7  C   UNL     1       1.229  -0.677  -0.013  0.00  0.00    +0.067 A 
ATOM      8  C   UNL     1       0.002  -0.004   0.002  0.00  0.00    +0.015 A 
ATOM      9  C   UNL     1       1.308  -2.091  -0.021  0.00  0.00    +0.281 A 
ATOM     10  O   UNL     1       0.186  -2.848  -0.015  0.00  0.00    -0.265 OA
ATOM     11  N   UNL     1       2.503  -2.654  -0.035  0.00  0.00    -0.188 NA
ATOM     12  C   UNL     1       3.618  -1.919  -0.042  0.00  0.00    +0.178 A 
ATOM     13  N   UNL     1       3.600  -0.595  -0.035  0.00  0.00    -0.226 NA
ENDBRANCH   1  12
BRANCH   2  14
ATOM     14  C   UNL     1       6.222  -4.663  -0.080  0.00  0.00    +0.171 A 
ATOM     15  C   UNL     1       6.415  -6.031  -0.094  0.00  0.00    +0.054 A 
ATOM     16  C   UNL     1       7.796  -6.242  -0.106  0.00  0.00    +0.050 A 
ATOM     17  C   UNL     1       8.392  -5.012  -0.099  0.00  0.00    +0.137 A 
ATOM     18  O   UNL     1       7.434  -4.069  -0.089  0.00  0.00    -0.452 OA
BRANCH  17  19
ATOM     19  C   UNL     1       9.846  -4.761  -0.106  0.00  0.00    +0.037 A 
ATOM     20  C   UNL     1      10.677  -5.420   0.804  0.00  0.00    +0.033 A 
ATOM     21  C   UNL     1      12.036  -5.180   0.791  0.00  0.00    +0.042 A 
ATOM     22  C   UNL     1      12.577  -4.289  -0.121  0.00  0.00    +0.021 A 
ATOM     23  C   UNL     1      11.761  -3.633  -1.025  0.00  0.00    +0.022 A 
ATOM     24  C   UNL     1      10.400  -3.868  -1.028  0.00  0.00    +0.052 A 
ATOM     25 CL   UNL     1       9.378  -3.050  -2.168  0.00  0.00    -0.083 Cl
ATOM     26 CL   UNL     1      13.070  -5.997   1.921  0.00  0.00    -0.084 Cl
ENDBRANCH  17  19
ENDBRANCH   2  14
BRANCH   2  27
ATOM     27  O   UNL     1       3.825  -4.718  -0.058  0.00  0.00    -0.502 OA
ATOM     28  H   UNL     1       3.961  -5.676  -0.064  0.00  0.00    +0.292 HD
ENDBRANCH   2  27
BRANCH   1  29
ATOM     29  C   UNL     1       6.134  -1.849  -0.065  0.00  0.00    +0.107 C 
ATOM     30  N   UNL     1       7.097  -1.246  -0.071  0.00  0.00    -0.191 NA
ENDBRANCH   1  29
TORSDOF 5
