REMARK  Name = ZINC19502547
REMARK  7 active torsions:
REMARK  status: ('A' for Active; 'I' for Inactive)
REMARK    1  A    between atoms: C_1  and  C_2
REMARK    2  A    between atoms: C_2  and  C_3
REMARK    3  A    between atoms: C_3  and  N_4
REMARK    4  A    between atoms: C_7  and  C_12
REMARK    5  A    between atoms: C_12  and  C_13
REMARK    6  A    between atoms: N_15  and  C_16
REMARK    7  A    between atoms: C_26  and  C_28
REMARK                            x       y       z     vdW  Elec       q    Type
REMARK                         _______ _______ _______ _____ _____    ______ ____
ROOT
ATOM      1  C   UNL     1       2.949   3.138  -1.195  0.00  0.00    +0.216 C 
ATOM      2  O   UNL     1       3.055   3.968  -0.316  0.00  0.00    -0.276 OA
ATOM      3  N   UNL     1       3.958   2.947  -2.067  0.00  0.00    -0.312 N 
ATOM      4  H   UNL     1       3.862   2.195  -2.864  0.00  0.00    +0.149 HD
ENDROOT
BRANCH   3   5
ATOM      5  C   UNL     1       5.185   3.740  -1.953  0.00  0.00    +0.084 C 
ATOM      6  C   UNL     1       6.368   3.145  -2.664  0.00  0.00    +0.014 C 
ATOM      7  C   UNL     1       6.538   1.655  -2.927  0.00  0.00    +0.005 C 
ATOM      8  C   UNL     1       7.571   1.562  -4.066  0.00  0.00    +0.000 C 
ATOM      9  C   UNL     1       7.147   2.340  -5.306  0.00  0.00    +0.000 C 
ATOM     10  C   UNL     1       6.792   3.807  -4.985  0.00  0.00    +0.004 C 
ATOM     11  C   UNL     1       5.695   3.742  -3.940  0.00  0.00    +0.003 C 
ATOM     12  C   UNL     1       5.313   4.867  -3.020  0.00  0.00    +0.043 C 
BRANCH  12  13
ATOM     13  C   UNL     1       6.425   5.847  -2.748  0.00  0.00    -0.042 A 
ATOM     14  C   UNL     1       6.893   6.021  -1.458  0.00  0.00    +0.004 A 
ATOM     15  C   UNL     1       7.916   6.917  -1.209  0.00  0.00    +0.000 A 
ATOM     16  C   UNL     1       8.465   7.646  -2.248  0.00  0.00    +0.000 A 
ATOM     17  C   UNL     1       7.993   7.476  -3.536  0.00  0.00    +0.000 A 
ATOM     18  C   UNL     1       6.974   6.577  -3.786  0.00  0.00    +0.004 A 
ENDBRANCH  12  13
ENDBRANCH   3   5
BRANCH   1  19
ATOM     19  C   UNL     1       1.687   2.322  -1.312  0.00  0.00    +0.127 C 
BRANCH  19  23
ATOM     20  N   UNL     1      -1.558   2.666  -0.478  0.00  0.00    -0.224 N 
ATOM     21  C   UNL     1      -0.519   1.845  -0.227  0.00  0.00    +0.244 C 
ATOM     22  O   UNL     1      -0.557   0.646  -0.055  0.00  0.00    -0.273 OA
ATOM     23  C   UNL     1       0.709   2.734  -0.209  0.00  0.00    +0.170 C 
ATOM     24  N   UNL     1       0.168   4.078  -0.472  0.00  0.00    -0.287 N 
ATOM     25  C   UNL     1      -1.163   3.937  -0.612  0.00  0.00    +0.309 C 
ATOM     26  O   UNL     1      -1.920   4.859  -0.839  0.00  0.00    -0.252 OA
ATOM     27  H   UNL     1       0.844   4.945  -0.518  0.00  0.00    +0.151 HD
BRANCH  20  28
ATOM     28  C   UNL     1      -2.950   2.220  -0.588  0.00  0.00    +0.118 C 
BRANCH  28  30
ATOM     29  C   UNL     1      -5.066   1.809   0.675  0.00  0.00    +0.005 C 
ATOM     30  C   UNL     1      -3.612   2.273   0.790  0.00  0.00    +0.016 C 
ENDBRANCH  28  30
ENDBRANCH  20  28
ENDBRANCH  19  23
ENDBRANCH   1  19
TORSDOF 6
