REMARK  Name = ZINC39553359
REMARK  9 active torsions:
REMARK  status: ('A' for Active; 'I' for Inactive)
REMARK    1  A    between atoms: C_1  and  C_2
REMARK    2  A    between atoms: C_5  and  C_8
REMARK    3  A    between atoms: N_10  and  C_11
REMARK    4  A    between atoms: C_11  and  C_13
REMARK    5  A    between atoms: C_11  and  C_16
REMARK    6  A    between atoms: C_13  and  C_14
REMARK    7  A    between atoms: C_13  and  C_15
REMARK    8  A    between atoms: N_18  and  C_19
REMARK    9  A    between atoms: C_23  and  C_25
REMARK                            x       y       z     vdW  Elec       q    Type
REMARK                         _______ _______ _______ _____ _____    ______ ____
ROOT
ATOM      1  C   UNL     1       0.167  -7.106   2.584  0.00  0.00    +0.238 C 
ATOM      2  O   UNL     1       0.073  -6.356   3.534  0.00  0.00    -0.273 OA
ATOM      3  N   UNL     1      -0.219  -8.391   2.700  0.00  0.00    -0.284 N 
ATOM      4  H   UNL     1      -0.223  -8.969   1.920  0.00  0.00    +0.155 HD
ENDROOT
BRANCH   3   5
ATOM      5  C   UNL     1      -0.616  -8.894   3.944  0.00  0.00    +0.034 A 
ATOM      6  C   UNL     1      -1.289  -8.073   4.842  0.00  0.00    +0.023 A 
ATOM      7  C   UNL     1      -1.683  -8.565   6.073  0.00  0.00    +0.002 A 
ATOM      8  C   UNL     1      -1.410  -9.873   6.417  0.00  0.00    +0.012 A 
ATOM      9  C   UNL     1      -0.735 -10.705   5.523  0.00  0.00    +0.021 A 
ATOM     10  C   UNL     1      -0.343 -10.210   4.279  0.00  0.00    +0.035 A 
BRANCH   9  11
ATOM     11  C   UNL     1      -0.441 -12.107   5.890  0.00  0.00    +0.164 A 
ATOM     12  N   UNL     1       0.410 -12.911   5.293  0.00  0.00    -0.129 NA
ATOM     13  N   UNL     1       0.409 -14.056   5.877  0.00  0.00    -0.134 NA
ATOM     14  C   UNL     1      -0.439 -14.049   6.873  0.00  0.00    +0.134 A 
ATOM     15  N   UNL     1      -1.001 -12.814   6.921  0.00  0.00    -0.311 N 
ATOM     16  C   UNL     1      -1.962 -12.714   8.025  0.00  0.00    +0.125 C 
ATOM     17  C   UNL     1      -2.280 -14.169   8.432  0.00  0.00    +0.029 C 
ATOM     18  C   UNL     1      -1.007 -14.915   7.977  0.00  0.00    +0.078 C 
ENDBRANCH   9  11
ENDBRANCH   3   5
BRANCH   1  19
ATOM     19  C   UNL     1       0.717  -6.598   1.276  0.00  0.00    +0.162 C 
BRANCH  19  22
ATOM     20  C   UNL     1       0.550  -4.500   0.049  0.00  0.00    +0.245 C 
ATOM     21  O   UNL     1       0.583  -5.136  -0.986  0.00  0.00    -0.270 OA
ATOM     22  N   UNL     1       0.611  -5.138   1.235  0.00  0.00    -0.300 N 
ATOM     23  H   UNL     1       0.584  -4.630   2.061  0.00  0.00    +0.150 HD
BRANCH  20  28
ATOM     24  C   UNL     1       0.132   1.237  -0.113  0.00  0.00    +0.044 C 
ATOM     25  C   UNL     1       0.241  -0.265  -0.070  0.00  0.00    -0.050 A 
ATOM     26  C   UNL     1       0.280  -0.986  -1.250  0.00  0.00    +0.004 A 
ATOM     27  C   UNL     1       0.380  -2.362  -1.218  0.00  0.00    +0.013 A 
ATOM     28  C   UNL     1       0.443  -3.026   0.008  0.00  0.00    +0.037 A 
ATOM     29  C   UNL     1       0.404  -2.292   1.194  0.00  0.00    +0.013 A 
ATOM     30  C   UNL     1       0.309  -0.917   1.149  0.00  0.00    +0.004 A 
ENDBRANCH  20  28
ENDBRANCH  19  22
BRANCH  19  31
ATOM     31  C   UNL     1       2.186  -7.007   1.147  0.00  0.00    +0.012 C 
ATOM     32  C   UNL     1       2.707  -6.608  -0.235  0.00  0.00    +0.009 C 
ATOM     33  C   UNL     1       3.008  -6.300   2.226  0.00  0.00    +0.009 C 
ENDBRANCH  19  31
ENDBRANCH   1  19
TORSDOF 6
