REMARK  Name = ZINC63386220
REMARK  8 active torsions:
REMARK  status: ('A' for Active; 'I' for Inactive)
REMARK    1  A    between atoms: C_1  and  C_2
REMARK    2  A    between atoms: C_8  and  N_10
REMARK    3  A    between atoms: C_11  and  C_13
REMARK    4  A    between atoms: C_13  and  C_14
REMARK    5  A    between atoms: C_14  and  C_15
REMARK    6  A    between atoms: N_19  and  C_23
REMARK    7  A    between atoms: C_23  and  C_24
REMARK    8  A    between atoms: C_24  and  C_25
REMARK                            x       y       z     vdW  Elec       q    Type
REMARK                         _______ _______ _______ _____ _____    ______ ____
ROOT
ATOM      1  C   UNL     1       0.310   1.131   7.263  0.00  0.00    +0.161 C 
ATOM      2  C   UNL     1       1.255   1.132   8.448  0.00  0.00    +0.243 C 
ATOM      3  O   UNL     1       1.822   0.177   8.933  0.00  0.00    -0.273 OA
ATOM      4  N   UNL     1       1.333   2.416   8.851  0.00  0.00    -0.224 N 
ATOM      5  C   UNL     1       0.577   3.218   8.092  0.00  0.00    +0.309 C 
ATOM      6  O   UNL     1       0.486   4.418   8.261  0.00  0.00    -0.252 OA
ATOM      7  N   UNL     1      -0.073   2.546   7.120  0.00  0.00    -0.288 N 
ATOM      8  H   UNL     1      -0.674   2.920   6.457  0.00  0.00    +0.151 HD
ENDROOT
BRANCH   1   9
ATOM      9  C   UNL     1       1.026   0.638   6.004  0.00  0.00    +0.041 C 
BRANCH   9  10
ATOM     10  C   UNL     1       0.033   0.579   4.842  0.00  0.00    +0.098 C 
BRANCH  10  12
ATOM     11  N   UNL     1       0.056  -0.038   2.447  0.00  0.00    -0.312 N 
ATOM     12  C   UNL     1       0.738   0.093   3.602  0.00  0.00    +0.213 C 
ATOM     13  O   UNL     1       1.919  -0.179   3.644  0.00  0.00    -0.276 OA
ATOM     14  H   UNL     1      -0.888   0.180   2.413  0.00  0.00    +0.149 HD
BRANCH  11  21
ATOM     15  C   UNL     1      -0.019   1.526   0.010  0.00  0.00    +0.009 C 
ATOM     16  C   UNL     1       0.002  -0.004   0.002  0.00  0.00    +0.006 C 
ATOM     17  C   UNL     1      -1.433  -0.534   0.013  0.00  0.00    +0.005 C 
ATOM     18  C   UNL     1      -1.413  -2.063   0.004  0.00  0.00    +0.000 C 
ATOM     19  C   UNL     1      -0.673  -2.570   1.244  0.00  0.00    +0.002 C 
ATOM     20  C   UNL     1       0.763  -2.041   1.233  0.00  0.00    +0.022 C 
ATOM     21  C   UNL     1       0.742  -0.511   1.242  0.00  0.00    +0.076 C 
ENDBRANCH  11  21
ENDBRANCH  10  12
ENDBRANCH   9  10
ENDBRANCH   1   9
BRANCH   4  22
ATOM     22  C   UNL     1       2.146   2.876   9.979  0.00  0.00    +0.122 C 
BRANCH  22  23
ATOM     23  C   UNL     1       3.545   3.247   9.484  0.00  0.00    +0.052 C 
BRANCH  23  24
ATOM     24  C   UNL     1       4.380   3.720  10.645  0.00  0.00    -0.040 C 
ATOM     25  C   UNL     1       5.237   2.981  11.385  0.00  0.00    -0.001 A 
ATOM     26  C   UNL     1       5.633   1.568  11.333  0.00  0.00    +0.010 A 
ATOM     27  C   UNL     1       6.534   1.106  12.229  0.00  0.00    +0.001 A 
ATOM     28  C   UNL     1       7.099   1.940  13.203  0.00  0.00    +0.002 A 
ATOM     29  C   UNL     1       6.786   3.248  13.314  0.00  0.00    +0.026 A 
ATOM     30  C   UNL     1       5.849   3.841  12.423  0.00  0.00    +0.043 A 
ATOM     31  N   UNL     1       5.388   5.064  12.329  0.00  0.00    -0.380 N 
ATOM     32  C   UNL     1       4.435   5.120  11.215  0.00  0.00    +0.144 C 
ATOM     33  H   UNL     1       5.638   5.809  12.898  0.00  0.00    +0.160 HD
ENDBRANCH  23  24
ENDBRANCH  22  23
ENDBRANCH   4  22
TORSDOF 7
