REMARK  Name = ZINC22897873
REMARK  8 active torsions:
REMARK  status: ('A' for Active; 'I' for Inactive)
REMARK    1  A    between atoms: C_3  and  C_15
REMARK    2  A    between atoms: C_6  and  C_7
REMARK    3  A    between atoms: C_7  and  N_8
REMARK    4  A    between atoms: N_17  and  N_18
REMARK    5  A    between atoms: N_18  and  C_19
REMARK    6  A    between atoms: C_19  and  N_21
REMARK    7  A    between atoms: N_21  and  C_22
REMARK    8  A    between atoms: C_22  and  C_23
REMARK                            x       y       z     vdW  Elec       q    Type
REMARK                         _______ _______ _______ _____ _____    ______ ____
ROOT
ATOM      1  C   UNL     1       8.641  -2.232  -1.692  0.00  0.00    +0.260 C 
ATOM      2  O   UNL     1       9.816  -2.379  -1.421  0.00  0.00    -0.269 OA
ATOM      3  N   UNL     1       7.772  -1.849  -0.736  0.00  0.00    -0.231 N 
ATOM      4  H   UNL     1       6.708  -1.716  -0.981  0.00  0.00    +0.173 HD
ENDROOT
BRANCH   1   7
ATOM      5  C   UNL     1       8.609  -3.097  -5.347  0.00  0.00    +0.006 A 
ATOM      6  C   UNL     1       9.061  -2.872  -4.063  0.00  0.00    +0.013 A 
ATOM      7  C   UNL     1       8.164  -2.475  -3.070  0.00  0.00    +0.038 A 
ATOM      8  C   UNL     1       6.813  -2.312  -3.383  0.00  0.00    +0.013 A 
ATOM      9  C   UNL     1       6.375  -2.535  -4.672  0.00  0.00    +0.006 A 
ATOM     10  C   UNL     1       7.270  -2.930  -5.652  0.00  0.00    -0.030 A 
BRANCH  10  11
ATOM     11  C   UNL     1       6.784  -3.178  -7.056  0.00  0.00    +0.151 C 
BRANCH  11  12
ATOM     12  N   UNL     1       6.389  -4.581  -7.196  0.00  0.00    -0.238 N 
ATOM     13  C   UNL     1       7.240  -5.538  -7.587  0.00  0.00    +0.223 C 
ATOM     14  O   UNL     1       8.408  -5.368  -7.865  0.00  0.00    -0.275 OA
ATOM     15  C   UNL     1       6.515  -6.866  -7.622  0.00  0.00    +0.105 C 
ATOM     16  C   UNL     1       5.080  -6.505  -7.188  0.00  0.00    +0.105 C 
ATOM     17  C   UNL     1       5.146  -5.012  -6.948  0.00  0.00    +0.223 C 
ATOM     18  O   UNL     1       4.220  -4.317  -6.590  0.00  0.00    -0.275 OA
ENDBRANCH  11  12
ENDBRANCH  10  11
ENDBRANCH   1   7
BRANCH   3  19
ATOM     19  N   UNL     1       8.224  -1.619   0.570  0.00  0.00    -0.246 N 
ATOM     20  H   UNL     1       9.288  -1.752   0.815  0.00  0.00    +0.172 HD
BRANCH  19  21
ATOM     21  C   UNL     1       7.355  -1.236   1.526  0.00  0.00    +0.147 C 
ATOM     22  S   UNL     1       7.907  -0.955   3.122  0.00  0.00    -0.017 S 
BRANCH  21  23
ATOM     23  N   UNL     1       6.051  -1.073   1.226  0.00  0.00    -0.321 N 
ATOM     24  H   UNL     1       5.696  -1.253   0.201  0.00  0.00    +0.148 HD
BRANCH  23  25
ATOM     25  C   UNL     1       5.107  -0.655   2.265  0.00  0.00    +0.138 C 
BRANCH  25  26
ATOM     26  C   UNL     1       3.725  -0.548   1.674  0.00  0.00    -0.027 A 
ATOM     27  C   UNL     1       2.885  -1.646   1.677  0.00  0.00    +0.009 A 
ATOM     28  C   UNL     1       1.617  -1.553   1.135  0.00  0.00    +0.050 A 
ATOM     29  C   UNL     1       1.183  -0.356   0.589  0.00  0.00    +0.166 A 
ATOM     30  C   UNL     1       2.028   0.751   0.586  0.00  0.00    +0.167 A 
ATOM     31  C   UNL     1       3.298   0.650   1.131  0.00  0.00    +0.054 A 
ATOM     32  O   UNL     1       1.376   1.797  -0.001  0.00  0.00    -0.453 OA
ATOM     33  C   UNL     1      -0.018   1.436   0.010  0.00  0.00    +0.466 C 
ATOM     34  O   UNL     1       0.002  -0.004   0.002  0.00  0.00    -0.453 OA
ENDBRANCH  25  26
ENDBRANCH  23  25
ENDBRANCH  21  23
ENDBRANCH  19  21
ENDBRANCH   3  19
TORSDOF 8
