REMARK  Name = ZINC12139920
REMARK  7 active torsions:
REMARK  status: ('A' for Active; 'I' for Inactive)
REMARK    1  A    between atoms: C_1  and  N_2
REMARK    2  A    between atoms: C_6  and  C_23
REMARK    3  A    between atoms: C_8  and  C_16
REMARK    4  A    between atoms: C_10  and  C_11
REMARK    5  A    between atoms: C_10  and  O_15
REMARK    6  A    between atoms: C_16  and  C_18
REMARK    7  A    between atoms: C_26  and  N_29
REMARK                            x       y       z     vdW  Elec       q    Type
REMARK                         _______ _______ _______ _____ _____    ______ ____
ROOT
ATOM      1  C   UNL     1       3.114   0.268   1.056  0.00  0.00    +0.137 C 
ATOM      2  N   UNL     1       2.130   1.352   1.116  0.00  0.00    -0.253 N 
ATOM      3  C   UNL     1       2.057   2.112   2.219  0.00  0.00    +0.305 C 
ATOM      4  O   UNL     1       2.806   1.871   3.145  0.00  0.00    -0.253 OA
ATOM      5  N   UNL     1       1.189   3.128   2.340  0.00  0.00    -0.292 N 
ATOM      6  C   UNL     1       0.252   3.462   1.265  0.00  0.00    +0.120 C 
ATOM      7  C   UNL     1       0.870   3.068  -0.080  0.00  0.00    +0.145 C 
ATOM      8  C   UNL     1       1.248   1.584  -0.029  0.00  0.00    +0.245 C 
ATOM      9  H   UNL     1       1.183   3.653   3.155  0.00  0.00    +0.151 HD
ENDROOT
BRANCH   6  10
ATOM     10  C   UNL     1      -0.023   4.943   1.279  0.00  0.00    -0.026 A 
ATOM     11  C   UNL     1       1.004   5.835   1.528  0.00  0.00    +0.008 A 
ATOM     12  C   UNL     1       0.753   7.194   1.535  0.00  0.00    +0.033 A 
ATOM     13  C   UNL     1      -0.527   7.661   1.304  0.00  0.00    +0.126 A 
ATOM     14  C   UNL     1      -1.555   6.770   1.060  0.00  0.00    +0.033 A 
ATOM     15  C   UNL     1      -1.303   5.411   1.048  0.00  0.00    +0.008 A 
BRANCH  13  16
ATOM     16  N   UNL     1      -0.798   9.117   1.318  0.00  0.00    +0.056 N 
ATOM     17  O   UNL     1      -1.926   9.528   1.115  0.00  0.00    -0.126 OA
ATOM     18  O   UNL     1       0.108   9.902   1.533  0.00  0.00    -0.126 OA
ENDBRANCH  13  16
ENDBRANCH   6  10
BRANCH   8  19
ATOM     19  C   UNL     1       1.971   1.193  -1.319  0.00  0.00    +0.436 C 
ATOM     20  F   UNL     1       1.175   1.528  -2.420  0.00  0.00    -0.166 F 
ATOM     21  F   UNL     1       3.188   1.880  -1.397  0.00  0.00    -0.166 F 
ATOM     22  F   UNL     1       2.212  -0.185  -1.320  0.00  0.00    -0.166 F 
ENDBRANCH   8  19
BRANCH   8  23
ATOM     23  O   UNL     1       0.065   0.795   0.113  0.00  0.00    -0.364 OA
ATOM     24  H   UNL     1       0.230  -0.157   0.158  0.00  0.00    +0.212 HD
ENDBRANCH   8  23
BRANCH   7  25
ATOM     25  C   UNL     1      -0.131   3.298  -1.183  0.00  0.00    +0.180 C 
ATOM     26  O   UNL     1      -0.904   2.415  -1.495  0.00  0.00    -0.291 OA
BRANCH  25  27
ATOM     27  C   UNL     1      -0.169   4.539  -1.855  0.00  0.00    +0.055 A 
ATOM     28  C   UNL     1      -1.000   4.950  -2.892  0.00  0.00    +0.019 A 
ATOM     29  C   UNL     1      -0.825   6.226  -3.362  0.00  0.00    +0.008 A 
ATOM     30  C   UNL     1       0.141   7.010  -2.812  0.00  0.00    +0.046 A 
ATOM     31  S   UNL     1       0.842   5.988  -1.600  0.00  0.00    -0.094 S 
ENDBRANCH  25  27
ENDBRANCH   7  25
TORSDOF 6
