REMARK  Name = ZINC21726321
REMARK  6 active torsions:
REMARK  status: ('A' for Active; 'I' for Inactive)
REMARK    1  A    between atoms: C_1  and  C_2
REMARK    2  A    between atoms: C_13  and  C_16
REMARK    3  A    between atoms: C_21  and  C_23
REMARK    4  A    between atoms: C_28  and  O_29
REMARK    5  A    between atoms: O_29  and  C_30
REMARK    6  A    between atoms: C_30  and  C_31
REMARK                            x       y       z     vdW  Elec       q    Type
REMARK                         _______ _______ _______ _____ _____    ______ ____
ROOT
ATOM      1  C   UNL     1       6.002   2.950  -3.094  0.00  0.00    +0.068 C 
ATOM      2  C   UNL     1       5.502   3.181  -4.497  0.00  0.00    +0.066 A 
ATOM      3  C   UNL     1       4.491   4.056  -4.864  0.00  0.00    +0.023 A 
ATOM      4  C   UNL     1       4.345   3.986  -6.225  0.00  0.00    +0.134 A 
ATOM      5  N   UNL     1       5.226   3.072  -6.682  0.00  0.00    -0.198 N 
ATOM      6  N   UNL     1       5.948   2.587  -5.579  0.00  0.00    -0.168 NA
ATOM      7  C   UNL     1       5.390   2.678  -8.014  0.00  0.00    +0.176 A 
ATOM      8  C   UNL     1       6.628   2.157  -8.436  0.00  0.00    +0.054 A 
ATOM      9  C   UNL     1       6.798   1.765  -9.727  0.00  0.00    +0.054 A 
ATOM     10  C   UNL     1       5.728   1.899 -10.630  0.00  0.00    +0.178 A 
ATOM     11  N   UNL     1       5.574   1.625 -11.916  0.00  0.00    -0.128 NA
ATOM     12  N   UNL     1       4.378   1.939 -12.276  0.00  0.00    -0.132 NA
ATOM     13  C   UNL     1       3.711   2.423 -11.258  0.00  0.00    +0.152 A 
ATOM     14  N   UNL     1       4.534   2.416 -10.188  0.00  0.00    -0.195 N 
ATOM     15  N   UNL     1       4.391   2.803  -8.854  0.00  0.00    -0.144 NA
ATOM     16  C   UNL     1       2.282   2.902 -11.278  0.00  0.00    +0.090 C 
ATOM     17  N   UNL     1       3.404   4.758  -6.905  0.00  0.00    -0.270 N 
ATOM     18  C   UNL     1       2.789   5.752  -6.229  0.00  0.00    +0.219 C 
ATOM     19  O   UNL     1       1.851   6.321  -6.745  0.00  0.00    -0.275 OA
ATOM     20  C   UNL     1       3.232   6.175  -4.856  0.00  0.00    +0.109 C 
ATOM     21  C   UNL     1       3.646   4.966  -4.010  0.00  0.00    +0.066 C 
ATOM     22  H   UNL     1       3.182   4.550  -7.962  0.00  0.00    +0.156 HD
ENDROOT
BRANCH  21  23
ATOM     23  C   UNL     1       4.444   5.430  -2.818  0.00  0.00    +0.002 A 
ATOM     24  C   UNL     1       5.619   6.133  -3.004  0.00  0.00    +0.008 A 
ATOM     25  C   UNL     1       6.351   6.558  -1.912  0.00  0.00    +0.001 A 
ATOM     26  C   UNL     1       5.910   6.282  -0.631  0.00  0.00    +0.004 A 
ATOM     27  C   UNL     1       4.733   5.585  -0.439  0.00  0.00    +0.046 A 
ATOM     28  C   UNL     1       3.999   5.152  -1.534  0.00  0.00    +0.125 A 
BRANCH  28  29
ATOM     29  O   UNL     1       2.844   4.460  -1.349  0.00  0.00    -0.487 OA
BRANCH  29  30
ATOM     30  C   UNL     1       2.447   4.210   0.001  0.00  0.00    +0.264 C 
BRANCH  30  31
ATOM     31  C   UNL     1       1.153   3.438   0.009  0.00  0.00    -0.008 A 
ATOM     32  C   UNL     1      -0.054   4.112   0.024  0.00  0.00    +0.007 A 
ATOM     33  C   UNL     1      -1.242   3.405   0.032  0.00  0.00    +0.003 A 
ATOM     34  C   UNL     1      -1.224   2.023   0.019  0.00  0.00    +0.038 A 
ATOM     35  C   UNL     1      -0.016   1.347   0.009  0.00  0.00    +0.124 A 
ATOM     36  C   UNL     1       1.173   2.056   0.002  0.00  0.00    +0.045 A 
ATOM     37  F   UNL     1       0.002  -0.004   0.002  0.00  0.00    -0.205 F 
ENDBRANCH  30  31
ENDBRANCH  29  30
ENDBRANCH  28  29
ENDBRANCH  21  23
TORSDOF 4
