REMARK  Name = ZINC01013611
REMARK  8 active torsions:
REMARK  status: ('A' for Active; 'I' for Inactive)
REMARK    1  A    between atoms: C_1  and  C_2
REMARK    2  A    between atoms: N_5  and  C_7
REMARK    3  A    between atoms: C_14  and  N_29
REMARK    4  A    between atoms: C_15  and  C_27
REMARK    5  A    between atoms: C_16  and  C_18
REMARK    6  A    between atoms: C_21  and  C_24
REMARK    7  A    between atoms: C_24  and  C_25
REMARK    8  A    between atoms: C_24  and  C_26
REMARK                            x       y       z     vdW  Elec       q    Type
REMARK                         _______ _______ _______ _____ _____    ______ ____
ROOT
ATOM      1  C   UNL     1      -1.692   4.665   0.040  0.00  0.00    +0.068 C 
ATOM      2  C   UNL     1      -0.780   3.466   0.026  0.00  0.00    +0.068 A 
ATOM      3  C   UNL     1       0.608   3.498   0.013  0.00  0.00    +0.050 A 
ATOM      4  C   UNL     1       1.063   2.209   0.004  0.00  0.00    +0.230 A 
ATOM      5  N   UNL     1      -0.017   1.397   0.010  0.00  0.00    -0.200 N 
ATOM      6  N   UNL     1      -1.162   2.210   0.019  0.00  0.00    -0.168 NA
ATOM      7  O   UNL     1       2.382   1.897  -0.007  0.00  0.00    -0.423 OA
ATOM      8  C   UNL     1       3.259   2.885   0.267  0.00  0.00    +0.200 C 
ATOM      9  C   UNL     1       2.932   4.196   0.293  0.00  0.00    +0.098 C 
ATOM     10  C   UNL     1       1.535   4.687   0.007  0.00  0.00    +0.101 C 
ENDROOT
BRANCH   5  11
ATOM     11  C   UNL     1       0.002  -0.004   0.002  0.00  0.00    +0.069 A 
ATOM     12  C   UNL     1       0.986  -0.682  -0.705  0.00  0.00    +0.028 A 
ATOM     13  C   UNL     1       1.006  -2.064  -0.705  0.00  0.00    +0.002 A 
ATOM     14  C   UNL     1       0.040  -2.771  -0.013  0.00  0.00    +0.000 A 
ATOM     15  C   UNL     1      -0.945  -2.098   0.687  0.00  0.00    +0.002 A 
ATOM     16  C   UNL     1      -0.966  -0.717   0.697  0.00  0.00    +0.028 A 
ENDBRANCH   5  11
BRANCH  10  17
ATOM     17  C   UNL     1       1.496   5.356  -1.342  0.00  0.00    -0.035 A 
ATOM     18  C   UNL     1       1.863   4.652  -2.474  0.00  0.00    +0.005 A 
ATOM     19  C   UNL     1       1.822   5.264  -3.712  0.00  0.00    +0.004 A 
ATOM     20  C   UNL     1       1.425   6.583  -3.818  0.00  0.00    -0.045 A 
ATOM     21  C   UNL     1       1.062   7.289  -2.686  0.00  0.00    +0.004 A 
ATOM     22  C   UNL     1       1.098   6.676  -1.448  0.00  0.00    +0.005 A 
BRANCH  20  23
ATOM     23  C   UNL     1       1.386   7.253  -5.168  0.00  0.00    +0.013 C 
ATOM     24  C   UNL     1       2.786   7.238  -5.785  0.00  0.00    +0.012 C 
ATOM     25  C   UNL     1       0.418   6.500  -6.083  0.00  0.00    +0.012 C 
ENDBRANCH  20  23
ENDBRANCH  10  17
BRANCH   8  26
ATOM     26  N   UNL     1       4.560   2.538   0.537  0.00  0.00    -0.328 N 
ATOM     27  H   UNL     1       5.214   3.226   0.738  0.00  0.00    +0.145 HD
ATOM     28  H   UNL     1       4.825   1.605   0.526  0.00  0.00    +0.145 HD
ENDBRANCH   8  26
BRANCH   9  29
ATOM     29  C   UNL     1       3.950   5.154   0.603  0.00  0.00    +0.101 C 
ATOM     30  N   UNL     1       4.757   5.915   0.849  0.00  0.00    -0.191 NA
ENDBRANCH   9  29
TORSDOF 5
