REMARK  Name = ZINC40741702
REMARK  13 active torsions:
REMARK  status: ('A' for Active; 'I' for Inactive)
REMARK    1  A    between atoms: C_1  and  C_2
REMARK    2  A    between atoms: C_2  and  O_3
REMARK    3  A    between atoms: O_3  and  C_4
REMARK    4  A    between atoms: C_6  and  C_20
REMARK    5  A    between atoms: C_9  and  O_10
REMARK    6  A    between atoms: O_10  and  C_11
REMARK    7  A    between atoms: C_11  and  C_12
REMARK    8  A    between atoms: C_20  and  N_21
REMARK    9  A    between atoms: N_21  and  C_22
REMARK   10  A    between atoms: C_22  and  C_23
REMARK   11  A    between atoms: C_22  and  C_24
REMARK   12  A    between atoms: C_22  and  C_25
REMARK   13  A    between atoms: C_25  and  O_26
REMARK                            x       y       z     vdW  Elec       q    Type
REMARK                         _______ _______ _______ _____ _____    ______ ____
ROOT
ATOM      1  C   UNL     1       0.802  -1.825   1.306  0.00  0.00    +0.163 A 
ATOM      2  C   UNL     1       0.260  -2.673   0.352  0.00  0.00    +0.051 A 
ATOM      3  C   UNL     1       0.371  -4.043   0.502  0.00  0.00    -0.060 A 
ATOM      4  C   UNL     1       1.022  -4.571   1.602  0.00  0.00    +0.021 A 
ATOM      5  C   UNL     1       1.565  -3.730   2.557  0.00  0.00    +0.063 A 
ATOM      6  C   UNL     1       1.462  -2.356   2.409  0.00  0.00    +0.176 A 
ATOM      7 BR   UNL     1       2.453  -4.456   4.061  0.00  0.00    -0.046 Br
ENDROOT
BRANCH   1   8
ATOM      8  O   UNL     1       0.693  -0.477   1.160  0.00  0.00    -0.489 OA
BRANCH   8  10
ATOM      9  C   UNL     1      -0.019   1.526   0.010  0.00  0.00    +0.048 C 
ATOM     10  C   UNL     1       0.002  -0.004   0.002  0.00  0.00    +0.226 C 
ENDBRANCH   8  10
ENDBRANCH   1   8
BRANCH   6  11
ATOM     11  O   UNL     1       2.000  -1.528   3.345  0.00  0.00    -0.483 OA
BRANCH  11  12
ATOM     12  C   UNL     1       1.161  -1.151   4.438  0.00  0.00    +0.264 C 
BRANCH  12  13
ATOM     13  C   UNL     1       1.922  -0.238   5.365  0.00  0.00    -0.009 A 
ATOM     14  C   UNL     1       2.658  -0.770   6.408  0.00  0.00    +0.007 A 
ATOM     15  C   UNL     1       3.356   0.066   7.258  0.00  0.00    +0.002 A 
ATOM     16  C   UNL     1       3.318   1.435   7.067  0.00  0.00    +0.020 A 
ATOM     17  C   UNL     1       2.582   1.967   6.024  0.00  0.00    +0.041 A 
ATOM     18  C   UNL     1       1.888   1.129   5.169  0.00  0.00    +0.027 A 
ATOM     19 CL   UNL     1       2.535   3.686   5.784  0.00  0.00    -0.084 Cl
ENDBRANCH  12  13
ENDBRANCH  11  12
ENDBRANCH   6  11
BRANCH   3  20
ATOM     20  C   UNL     1      -0.219  -4.963  -0.535  0.00  0.00    -0.046 C 
BRANCH  20  21
ATOM     21  N   UNL     1       0.785  -5.241  -1.571  0.00  0.00    +0.387 N 
ATOM     22  H   UNL     1       1.066  -4.376  -2.008  0.00  0.00    -0.085 HD
ATOM     23  H   UNL     1       1.589  -5.681  -1.149  0.00  0.00    -0.085 HD
BRANCH  21  24
ATOM     24  C   UNL     1       0.210  -6.138  -2.582  0.00  0.00    -0.050 C 
ATOM     25  C   UNL     1      -0.215  -7.449  -1.918  0.00  0.00    -0.008 C 
ATOM     26  C   UNL     1      -1.010  -5.470  -3.221  0.00  0.00    -0.008 C 
BRANCH  24  27
ATOM     27  C   UNL     1       1.256  -6.428  -3.660  0.00  0.00    +0.143 C 
BRANCH  27  28
ATOM     28  O   UNL     1       0.696  -7.300  -4.644  0.00  0.00    -0.396 OA
ATOM     29  H   UNL     1       1.305  -7.527  -5.361  0.00  0.00    +0.209 HD
ENDBRANCH  27  28
ENDBRANCH  24  27
ENDBRANCH  21  24
ENDBRANCH  20  21
ENDBRANCH   3  20
TORSDOF 10
