REMARK  Name = ZINC06499038
REMARK  5 active torsions:
REMARK  status: ('A' for Active; 'I' for Inactive)
REMARK    1  A    between atoms: C_1  and  C_2
REMARK    2  A    between atoms: C_2  and  C_3
REMARK    3  A    between atoms: C_3  and  C_17
REMARK    4  A    between atoms: C_9  and  N_10
REMARK    5  A    between atoms: C_11  and  C_12
REMARK                            x       y       z     vdW  Elec       q    Type
REMARK                         _______ _______ _______ _____ _____    ______ ____
ROOT
ATOM      1  C   UNL     1       0.718  -0.497  -1.257  0.00  0.00    +0.071 C 
ATOM      2  C   UNL     1       0.710  -2.021  -1.291  0.00  0.00    +0.071 C 
ATOM      3  C   UNL     1       1.216  -2.530  -2.635  0.00  0.00    -0.018 A 
ATOM      4  C   UNL     1       1.221  -1.702  -3.704  0.00  0.00    +0.004 A 
ATOM      5  C   UNL     1       1.656  -2.106  -4.994  0.00  0.00    +0.063 A 
ATOM      6  S   UNL     1       2.216  -3.788  -5.129  0.00  0.00    -0.065 S 
ATOM      7  C   UNL     1       2.136  -4.617  -3.669  0.00  0.00    +0.082 A 
ATOM      8  C   UNL     1       1.641  -3.870  -2.602  0.00  0.00    +0.083 A 
ATOM      9  S   UNL     1       1.641  -1.042  -6.335  0.00  0.00    -0.044 S 
ATOM     10  C   UNL     1       0.771  -0.261  -3.614  0.00  0.00    +0.197 C 
ATOM     11  O   UNL     1       0.030  -0.026  -2.422  0.00  0.00    -0.369 OA
ATOM     12  C   UNL     1       2.160   0.013  -1.265  0.00  0.00    +0.042 C 
ENDROOT
BRANCH   7  13
ATOM     13  N   UNL     1       2.527  -5.924  -3.538  0.00  0.00    -0.352 N 
ATOM     14  H   UNL     1       2.867  -6.408  -4.306  0.00  0.00    +0.143 HD
ATOM     15  H   UNL     1       2.465  -6.365  -2.676  0.00  0.00    +0.143 HD
ENDBRANCH   7  13
BRANCH   1  17
ATOM     16  C   UNL     1      -0.019   1.526   0.010  0.00  0.00    +0.007 C 
ATOM     17  C   UNL     1       0.002  -0.004   0.002  0.00  0.00    +0.032 C 
ENDBRANCH   1  17
BRANCH   8  18
ATOM     18  C   UNL     1       1.556  -4.538  -1.338  0.00  0.00    +0.102 C 
ATOM     19  N   UNL     1       1.489  -5.067  -0.335  0.00  0.00    -0.191 NA
ENDBRANCH   8  18
TORSDOF 3
