REMARK  Name = ZINC56053181
REMARK  7 active torsions:
REMARK  status: ('A' for Active; 'I' for Inactive)
REMARK    1  A    between atoms: C_1  and  C_2
REMARK    2  A    between atoms: C_2  and  O_3
REMARK    3  A    between atoms: O_3  and  C_4
REMARK    4  A    between atoms: C_4  and  C_6
REMARK    5  A    between atoms: C_8  and  C_14
REMARK    6  A    between atoms: C_18  and  C_20
REMARK    7  A    between atoms: C_22  and  C_24
REMARK                            x       y       z     vdW  Elec       q    Type
REMARK                         _______ _______ _______ _____ _____    ______ ____
ROOT
ATOM      1  C   UNL     1       1.905  -2.220   2.803  0.00  0.00    +0.148 C 
ATOM      2  C   UNL     1       1.446  -3.538   2.995  0.00  0.00    +0.054 C 
ATOM      3  C   UNL     1       1.762  -4.189   4.329  0.00  0.00    +0.139 C 
ATOM      4  N   UNL     1       2.523  -3.372   5.292  0.00  0.00    -0.314 N 
ATOM      5  C   UNL     1       2.880  -2.125   4.933  0.00  0.00    +0.155 C 
ATOM      6  S   UNL     1       3.763  -1.175   6.050  0.00  0.00    -0.017 S 
ATOM      7  N   UNL     1       2.583  -1.599   3.748  0.00  0.00    -0.186 NA
ATOM      8  C   UNL     1       0.740  -4.205   2.017  0.00  0.00    +0.195 C 
ATOM      9  O   UNL     1       0.342  -3.549   0.905  0.00  0.00    -0.287 OA
ATOM     10  H   UNL     1       2.760  -3.725   6.163  0.00  0.00    +0.149 HD
ENDROOT
BRANCH   3  11
ATOM     11  C   UNL     1       0.461  -4.582   4.979  0.00  0.00    -0.021 A 
ATOM     12  C   UNL     1      -0.446  -3.606   5.354  0.00  0.00    +0.006 A 
ATOM     13  C   UNL     1      -1.643  -3.957   5.952  0.00  0.00    +0.002 A 
ATOM     14  C   UNL     1      -1.941  -5.285   6.177  0.00  0.00    +0.019 A 
ATOM     15  C   UNL     1      -1.031  -6.275   5.801  0.00  0.00    +0.052 A 
ATOM     16  C   UNL     1       0.173  -5.914   5.194  0.00  0.00    +0.024 A 
BRANCH  15  17
ATOM     17  C   UNL     1      -1.334  -7.656   6.033  0.00  0.00    +0.099 C 
ATOM     18  N   UNL     1      -1.574  -8.751   6.216  0.00  0.00    -0.191 NA
ENDBRANCH  15  17
ENDBRANCH   3  11
BRANCH   8  19
ATOM     19  C   UNL     1       0.420  -5.633   2.184  0.00  0.00    +0.040 A 
ATOM     20  C   UNL     1      -0.899  -6.090   2.047  0.00  0.00    +0.015 A 
ATOM     21  C   UNL     1      -1.145  -7.441   2.213  0.00  0.00    +0.020 A 
ATOM     22  C   UNL     1      -0.093  -8.291   2.506  0.00  0.00    +0.111 A 
ATOM     23  N   UNL     1       1.139  -7.834   2.629  0.00  0.00    -0.263 NA
ATOM     24  C   UNL     1       1.427  -6.559   2.476  0.00  0.00    +0.122 A 
ENDBRANCH   8  19
BRANCH   1  25
ATOM     25  C   UNL     1       1.629  -1.525   1.518  0.00  0.00    +0.356 C 
ATOM     26  O   UNL     1       0.587  -0.923   1.367  0.00  0.00    -0.243 OA
BRANCH  25  27
ATOM     27  O   UNL     1       2.535  -1.564   0.523  0.00  0.00    -0.461 OA
BRANCH  27  29
ATOM     28  C   UNL     1       3.345  -1.029  -1.690  0.00  0.00    +0.048 C 
ATOM     29  C   UNL     1       2.203  -0.874  -0.683  0.00  0.00    +0.229 C 
ENDBRANCH  27  29
ENDBRANCH  25  27
ENDBRANCH   1  25
TORSDOF 6
