REMARK  Name = ZINC48310153
REMARK  8 active torsions:
REMARK  status: ('A' for Active; 'I' for Inactive)
REMARK    1  A    between atoms: C_1  and  C_2
REMARK    2  A    between atoms: C_2  and  C_3
REMARK    3  A    between atoms: C_3  and  C_28
REMARK    4  A    between atoms: N_6  and  N_10
REMARK    5  A    between atoms: C_11  and  C_13
REMARK    6  A    between atoms: C_13  and  N_14
REMARK    7  A    between atoms: N_14  and  C_15
REMARK    8  A    between atoms: N_14  and  C_25
REMARK                            x       y       z     vdW  Elec       q    Type
REMARK                         _______ _______ _______ _____ _____    ______ ____
ROOT
ATOM      1  N   UNL     1       0.628  -6.541   1.945  0.00  0.00    -0.225 N 
ATOM      2  C   UNL     1       1.007  -6.612   3.236  0.00  0.00    +0.213 C 
ATOM      3  O   UNL     1       1.822  -7.441   3.585  0.00  0.00    -0.276 OA
ATOM      4  H   UNL     1      -0.023  -5.879   1.666  0.00  0.00    +0.173 HD
ENDROOT
BRANCH   1   8
ATOM      5  C   UNL     1       1.492  -9.133  -0.477  0.00  0.00    +0.111 C 
ATOM      6  C   UNL     1       0.519  -8.477   0.483  0.00  0.00    +0.263 C 
ATOM      7  O   UNL     1      -0.614  -8.829   0.730  0.00  0.00    -0.271 OA
ATOM      8  N   UNL     1       1.177  -7.423   1.004  0.00  0.00    -0.137 N 
ATOM      9  C   UNL     1       2.417  -7.322   0.513  0.00  0.00    +0.326 C 
ATOM     10  O   UNL     1       3.201  -6.451   0.833  0.00  0.00    -0.251 OA
ATOM     11  N   UNL     1       2.698  -8.293  -0.375  0.00  0.00    -0.284 N 
ATOM     12  C   UNL     1       1.798 -10.568  -0.043  0.00  0.00    +0.041 C 
ATOM     13  H   UNL     1       3.532  -8.415  -0.855  0.00  0.00    +0.151 HD
BRANCH   5  15
ATOM     14  C   UNL     1       1.986  -9.678  -2.865  0.00  0.00    +0.006 C 
ATOM     15  C   UNL     1       0.940  -9.110  -1.903  0.00  0.00    +0.032 C 
ENDBRANCH   5  15
ENDBRANCH   1   8
BRANCH   2  16
ATOM     16  C   UNL     1       0.417  -5.664   4.248  0.00  0.00    +0.021 C 
BRANCH  16  17
ATOM     17  N   UNL     1       1.012  -5.922   5.566  0.00  0.00    +0.392 N 
ATOM     18  H   UNL     1       0.684  -5.231   6.224  0.00  0.00    -0.080 HD
BRANCH  17  19
ATOM     19  C   UNL     1       0.620  -7.261   6.026  0.00  0.00    -0.036 C 
ATOM     20  C   UNL     1      -0.889  -7.297   6.347  0.00  0.00    -0.006 C 
ATOM     21  C   UNL     1      -0.916  -6.967   7.854  0.00  0.00    +0.034 C 
ATOM     22  C   UNL     1       0.428  -7.422   8.383  0.00  0.00    -0.046 A 
ATOM     23  C   UNL     1       1.312  -7.592   7.331  0.00  0.00    -0.058 A 
ATOM     24  C   UNL     1       2.610  -8.008   7.578  0.00  0.00    +0.002 A 
ATOM     25  C   UNL     1       3.026  -8.254   8.872  0.00  0.00    +0.000 A 
ATOM     26  C   UNL     1       2.146  -8.085   9.924  0.00  0.00    +0.000 A 
ATOM     27  C   UNL     1       0.845  -7.669   9.680  0.00  0.00    +0.004 A 
ENDBRANCH  17  19
BRANCH  17  28
ATOM     28  C   UNL     1       2.475  -5.848   5.467  0.00  0.00    -0.067 C 
ATOM     29  C   UNL     1       3.198  -4.873   6.399  0.00  0.00    -0.017 C 
ATOM     30  C   UNL     1       3.080  -4.559   4.907  0.00  0.00    -0.017 C 
ENDBRANCH  17  28
ENDBRANCH  16  17
ENDBRANCH   2  16
TORSDOF 6
