REMARK  Name = ZINC66438111
REMARK  8 active torsions:
REMARK  status: ('A' for Active; 'I' for Inactive)
REMARK    1  A    between atoms: C_1  and  C_2
REMARK    2  A    between atoms: C_2  and  C_3
REMARK    3  A    between atoms: C_3  and  C_4
REMARK    4  A    between atoms: C_4  and  N_5
REMARK    5  A    between atoms: C_9  and  C_11
REMARK    6  A    between atoms: C_11  and  C_13
REMARK    7  A    between atoms: C_11  and  N_14
REMARK    8  A    between atoms: C_23  and  C_26
REMARK                            x       y       z     vdW  Elec       q    Type
REMARK                         _______ _______ _______ _____ _____    ______ ____
ROOT
ATOM      1  C   UNL     1      -5.922  -6.215   0.025  0.00  0.00    +0.017 C 
ATOM      2  C   UNL     1      -6.770  -5.786  -1.173  0.00  0.00    -0.004 C 
ENDROOT
BRANCH   1   3
ATOM      3  N   UNL     1      -5.772  -7.677   0.021  0.00  0.00    +0.388 N 
ATOM      4  C   UNL     1      -4.862  -8.043  -1.063  0.00  0.00    -0.076 C 
ATOM      5  C   UNL     1      -4.133  -9.316  -0.693  0.00  0.00    +0.000 C 
ATOM      6  C   UNL     1      -4.895 -10.527  -1.262  0.00  0.00    +0.105 C 
ATOM      7  N   UNL     1      -6.354 -10.348  -1.127  0.00  0.00    -0.311 N 
ATOM      8  C   UNL     1      -6.960  -9.794   0.066  0.00  0.00    +0.088 C 
ATOM      9  C   UNL     1      -7.058  -8.256  -0.060  0.00  0.00    -0.059 C 
ATOM     10  C   UNL     1      -7.174 -10.722  -2.180  0.00  0.00    +0.161 A 
ATOM     11  N   UNL     1      -6.830 -11.245  -3.338  0.00  0.00    -0.230 NA
ATOM     12  C   UNL     1      -7.741 -11.550  -4.246  0.00  0.00    +0.047 A 
ATOM     13  C   UNL     1      -9.034 -11.301  -3.929  0.00  0.00    +0.071 A 
ATOM     14  S   UNL     1      -8.851 -10.627  -2.286  0.00  0.00    -0.060 S 
ATOM     15  C   UNL     1      -7.358 -12.148  -5.575  0.00  0.00    +0.066 C 
ATOM     16  H   UNL     1      -5.352  -7.955   0.894  0.00  0.00    -0.081 HD
ENDBRANCH   1   3
BRANCH   1  21
ATOM     17  N   UNL     1      -7.551  -2.776   2.963  0.00  0.00    -0.299 N 
ATOM     18  C   UNL     1      -7.377  -4.087   2.702  0.00  0.00    +0.306 C 
ATOM     19  O   UNL     1      -7.767  -4.921   3.495  0.00  0.00    -0.252 OA
ATOM     20  N   UNL     1      -6.772  -4.473   1.561  0.00  0.00    -0.242 N 
ATOM     21  C   UNL     1      -6.599  -5.784   1.301  0.00  0.00    +0.207 C 
ATOM     22  O   UNL     1      -6.987  -6.616   2.092  0.00  0.00    -0.277 OA
ATOM     23  H   UNL     1      -7.240  -2.110   2.330  0.00  0.00    +0.150 HD
ATOM     24  H   UNL     1      -6.461  -3.807   0.928  0.00  0.00    +0.159 HD
BRANCH  17  25
ATOM     25  C   UNL     1      -8.209  -2.357   4.203  0.00  0.00    +0.106 C 
BRANCH  25  26
ATOM     26  C   UNL     1      -8.278  -0.829   4.252  0.00  0.00    +0.018 C 
BRANCH  26  28
ATOM     27  C   UNL     1      -9.034   1.137   5.596  0.00  0.00    +0.004 C 
ATOM     28  C   UNL     1      -8.965  -0.391   5.547  0.00  0.00    -0.002 C 
ENDBRANCH  26  28
ENDBRANCH  25  26
ENDBRANCH  17  25
ENDBRANCH   1  21
TORSDOF 5
