REMARK  Name = ZINC20133663
REMARK  1 active torsions:
REMARK  status: ('A' for Active; 'I' for Inactive)
REMARK    1  A    between atoms: C_1  and  C_2
REMARK                            x       y       z     vdW  Elec       q    Type
REMARK                         _______ _______ _______ _____ _____    ______ ____
ROOT
ATOM      1  C   UNL     1       2.495   1.065  -0.016  0.00  0.00    +0.045 C 
ATOM      2  C   UNL     1       1.173   1.788   0.001  0.00  0.00    -0.035 A 
ATOM      3  C   UNL     1      -0.013   1.076   0.008  0.00  0.00    +0.021 A 
ATOM      4  C   UNL     1      -1.208   1.750   0.017  0.00  0.00    +0.041 A 
ATOM      5  C   UNL     1      -1.288   3.161   0.031  0.00  0.00    +0.081 A 
ATOM      6  C   UNL     1      -0.057   3.857   0.023  0.00  0.00    +0.044 A 
ATOM      7  C   UNL     1       1.133   3.175   0.008  0.00  0.00    +0.023 A 
ATOM      8 BR   UNL     1       2.755   4.147  -0.003  0.00  0.00    -0.050 Br
ATOM      9  N   UNL     1      -2.537   3.676   0.046  0.00  0.00    -0.225 NA
ATOM     10  C   UNL     1      -3.611   2.920   0.053  0.00  0.00    +0.157 A 
ATOM     11  S   UNL     1      -2.919   1.273   0.037  0.00  0.00    -0.053 S 
ATOM     12  N   UNL     1      -4.938   3.301   0.068  0.00  0.00    -0.337 N 
ATOM     13  H   UNL     1      -5.729   2.538   0.071  0.00  0.00    +0.144 HD
ATOM     14  H   UNL     1      -5.203   4.369   0.075  0.00  0.00    +0.144 HD
ENDROOT
TORSDOF 0
