REMARK  Name = ZINC63349260
REMARK  7 active torsions:
REMARK  status: ('A' for Active; 'I' for Inactive)
REMARK    1  A    between atoms: C_1  and  C_2
REMARK    2  A    between atoms: C_5  and  N_8
REMARK    3  A    between atoms: C_9  and  C_11
REMARK    4  A    between atoms: C_11  and  N_12
REMARK    5  A    between atoms: C_25  and  C_27
REMARK    6  A    between atoms: C_30  and  O_33
REMARK    7  A    between atoms: O_33  and  C_34
REMARK                            x       y       z     vdW  Elec       q    Type
REMARK                         _______ _______ _______ _____ _____    ______ ____
ROOT
ATOM      1  N   UNL     1       0.420  -6.846   2.499  0.00  0.00    -0.284 NA
ATOM      2  C   UNL     1      -0.795  -6.550   3.264  0.00  0.00    +0.090 C 
ATOM      3  C   UNL     1      -0.565  -6.836   4.760  0.00  0.00    +0.049 C 
ATOM      4  C   UNL     1       0.021  -8.224   4.837  0.00  0.00    -0.035 C 
ATOM      5  C   UNL     1      -0.291  -9.285   5.566  0.00  0.00    -0.001 A 
ATOM      6  C   UNL     1      -1.241  -9.471   6.675  0.00  0.00    +0.010 A 
ATOM      7  C   UNL     1      -1.328 -10.727   7.187  0.00  0.00    +0.001 A 
ATOM      8  C   UNL     1      -0.574 -11.805   6.713  0.00  0.00    +0.002 A 
ATOM      9  C   UNL     1       0.331 -11.723   5.705  0.00  0.00    +0.026 A 
ATOM     10  C   UNL     1       0.519 -10.450   5.093  0.00  0.00    +0.043 A 
ATOM     11  N   UNL     1       1.328 -10.085   4.141  0.00  0.00    -0.376 N 
ATOM     12  C   UNL     1       1.188  -8.644   3.947  0.00  0.00    +0.128 C 
ATOM     13  C   UNL     1       0.788  -8.271   2.518  0.00  0.00    +0.114 C 
ATOM     14  H   UNL     1       1.923 -10.670   3.646  0.00  0.00    +0.160 HD
ENDROOT
BRANCH  13  15
ATOM     15  C   UNL     1       1.949  -8.508   1.588  0.00  0.00    -0.028 A 
ATOM     16  C   UNL     1       2.984  -7.593   1.528  0.00  0.00    +0.009 A 
ATOM     17  C   UNL     1       4.050  -7.808   0.675  0.00  0.00    +0.046 A 
ATOM     18  C   UNL     1       4.081  -8.944  -0.121  0.00  0.00    +0.120 A 
ATOM     19  C   UNL     1       3.042  -9.861  -0.059  0.00  0.00    +0.046 A 
ATOM     20  C   UNL     1       1.981  -9.643   0.799  0.00  0.00    +0.009 A 
BRANCH  18  21
ATOM     21  O   UNL     1       5.128  -9.157  -0.961  0.00  0.00    -0.495 OA
ATOM     22  C   UNL     1       5.093 -10.347  -1.751  0.00  0.00    +0.277 C 
ENDBRANCH  18  21
ENDBRANCH  13  15
BRANCH   1  23
ATOM     23  C   UNL     1       0.309  -6.349   1.121  0.00  0.00    +0.181 C 
BRANCH  23  25
ATOM     24  N   UNL     1       0.059  -4.170  -0.021  0.00  0.00    -0.284 N 
ATOM     25  C   UNL     1       0.175  -4.848   1.138  0.00  0.00    +0.231 C 
ATOM     26  O   UNL     1       0.173  -4.251   2.193  0.00  0.00    -0.274 OA
ATOM     27  H   UNL     1      -0.017  -4.651  -0.860  0.00  0.00    +0.155 HD
BRANCH  24  32
ATOM     28  C   UNL     1       0.008   1.503   0.007  0.00  0.00    +0.044 C 
ATOM     29  C   UNL     1       0.022  -0.004  -0.001  0.00  0.00    -0.050 A 
ATOM     30  C   UNL     1       0.777  -0.692   0.931  0.00  0.00    +0.005 A 
ATOM     31  C   UNL     1       0.791  -2.073   0.927  0.00  0.00    +0.023 A 
ATOM     32  C   UNL     1       0.046  -2.771  -0.014  0.00  0.00    +0.033 A 
ATOM     33  C   UNL     1      -0.712  -2.077  -0.948  0.00  0.00    +0.023 A 
ATOM     34  C   UNL     1      -0.726  -0.696  -0.936  0.00  0.00    +0.005 A 
ENDBRANCH  24  32
ENDBRANCH  23  25
ENDBRANCH   1  23
TORSDOF 5
