REMARK  Name = ZINC37553903
REMARK  5 active torsions:
REMARK  status: ('A' for Active; 'I' for Inactive)
REMARK    1  A    between atoms: C_1  and  C_2
REMARK    2  A    between atoms: C_4  and  C_25
REMARK    3  A    between atoms: C_6  and  C_8
REMARK    4  A    between atoms: C_10  and  C_14
REMARK    5  A    between atoms: C_14  and  N_15
REMARK                            x       y       z     vdW  Elec       q    Type
REMARK                         _______ _______ _______ _____ _____    ______ ____
ROOT
ATOM      1  C   UNL     1       0.052  -2.845   2.464  0.00  0.00    +0.000 A 
ATOM      2  C   UNL     1       0.043  -2.169   3.686  0.00  0.00    +0.013 A 
ATOM      3  C   UNL     1       0.059  -2.917   4.851  0.00  0.00    -0.045 A 
ATOM      4  C   UNL     1       0.083  -4.297   4.768  0.00  0.00    +0.112 A 
ATOM      5  N   UNL     1       0.092  -4.908   3.599  0.00  0.00    -0.262 NA
ATOM      6  C   UNL     1       0.071  -4.238   2.465  0.00  0.00    +0.119 A 
ENDROOT
BRANCH   1  12
ATOM      7  C   UNL     1      -0.018   1.503   0.010  0.00  0.00    +0.044 C 
ATOM      8  C   UNL     1       0.002  -0.004   0.002  0.00  0.00    -0.050 A 
ATOM      9  C   UNL     1       0.006  -0.688  -1.200  0.00  0.00    +0.006 A 
ATOM     10  C   UNL     1       0.024  -2.071  -1.215  0.00  0.00    -0.050 A 
ATOM     11  C   UNL     1       0.040  -2.776  -0.029  0.00  0.00    +0.012 A 
ATOM     12  C   UNL     1       0.036  -2.092   1.185  0.00  0.00    -0.016 A 
ATOM     13  C   UNL     1       0.023  -0.699   1.194  0.00  0.00    +0.012 A 
ATOM     14  C   UNL     1       0.028  -2.809  -2.529  0.00  0.00    +0.044 C 
ENDBRANCH   1  12
BRANCH   3  15
ATOM     15  C   UNL     1       0.051  -2.235   6.195  0.00  0.00    -0.041 C 
BRANCH  15  16
ATOM     16  N   UNL     1      -1.337  -2.037   6.635  0.00  0.00    +0.383 N 
ATOM     17  C   UNL     1      -1.972  -3.343   6.848  0.00  0.00    -0.073 C 
ATOM     18  C   UNL     1      -3.442  -3.145   7.223  0.00  0.00    +0.046 C 
ATOM     19  C   UNL     1      -3.527  -2.313   8.505  0.00  0.00    +0.167 C 
ATOM     20  C   UNL     1      -2.792  -0.985   8.302  0.00  0.00    +0.046 C 
ATOM     21  C   UNL     1      -1.347  -1.267   7.884  0.00  0.00    -0.073 C 
ATOM     22  O   UNL     1      -4.904  -2.056   8.820  0.00  0.00    -0.346 OA
ATOM     23  C   UNL     1      -5.264  -3.087   9.771  0.00  0.00    +0.191 C 
ATOM     24  C   UNL     1      -3.953  -3.238  10.583  0.00  0.00    +0.191 C 
ATOM     25  O   UNL     1      -2.928  -3.034   9.589  0.00  0.00    -0.346 OA
ATOM     26  H   UNL     1      -1.845  -1.531   5.925  0.00  0.00    -0.081 HD
ENDBRANCH  15  16
ENDBRANCH   3  15
TORSDOF 3
