REMARK  Name = ZINC15282166
REMARK  4 active torsions:
REMARK  status: ('A' for Active; 'I' for Inactive)
REMARK    1  A    between atoms: C_5  and  C_7
REMARK    2  A    between atoms: C_7  and  N_8
REMARK    3  A    between atoms: C_12  and  C_13
REMARK    4  A    between atoms: C_17  and  N_19
REMARK                            x       y       z     vdW  Elec       q    Type
REMARK                         _______ _______ _______ _____ _____    ______ ____
ROOT
ATOM      1  N   UNL     1       1.033   4.731   1.232  0.00  0.00    -0.242 N 
ATOM      2  C   UNL     1       2.074   4.876   2.077  0.00  0.00    +0.269 C 
ATOM      3  O   UNL     1       3.256   4.882   1.788  0.00  0.00    -0.268 OA
ATOM      4  C   UNL     1       1.491   5.026   3.421  0.00  0.00    +0.105 C 
ATOM      5  C   UNL     1       2.153   5.199   4.591  0.00  0.00    +0.039 C 
ATOM      6  N   UNL     1       0.106   4.951   3.231  0.00  0.00    -0.333 N 
ATOM      7  C   UNL     1      -0.119   4.781   1.916  0.00  0.00    +0.153 C 
ATOM      8  S   UNL     1      -1.673   4.643   1.210  0.00  0.00    -0.015 SA
ATOM      9  H   UNL     1      -0.740   5.006   3.932  0.00  0.00    +0.168 HD
ENDROOT
BRANCH   5  10
ATOM     10  C   UNL     1       1.406   5.496   5.822  0.00  0.00    -0.021 A 
ATOM     11  C   UNL     1       1.961   5.197   7.071  0.00  0.00    +0.009 A 
ATOM     12  C   UNL     1       1.255   5.478   8.220  0.00  0.00    +0.023 A 
ATOM     13  C   UNL     1      -0.002   6.057   8.141  0.00  0.00    +0.071 A 
ATOM     14  C   UNL     1      -0.558   6.356   6.908  0.00  0.00    +0.145 A 
ATOM     15  C   UNL     1       0.139   6.085   5.750  0.00  0.00    +0.042 A 
ATOM     16 CL   UNL     1      -0.884   6.408   9.594  0.00  0.00    -0.081 Cl
BRANCH  14  17
ATOM     17  N   UNL     1      -1.900   6.975   6.834  0.00  0.00    +0.058 N 
ATOM     18  O   UNL     1      -2.390   7.239   5.751  0.00  0.00    -0.126 OA
ATOM     19  O   UNL     1      -2.515   7.219   7.857  0.00  0.00    -0.126 OA
ENDBRANCH  14  17
ENDBRANCH   5  10
BRANCH   1  20
ATOM     20  C   UNL     1       1.145   4.551  -0.218  0.00  0.00    +0.152 C 
BRANCH  20  25
ATOM     21  C   UNL     1      -0.437   7.456  -2.038  0.00  0.00    +0.000 A 
ATOM     22  C   UNL     1       0.635   8.320  -2.165  0.00  0.00    +0.001 A 
ATOM     23  C   UNL     1       1.872   7.965  -1.661  0.00  0.00    +0.020 A 
ATOM     24  C   UNL     1       2.038   6.745  -1.030  0.00  0.00    +0.046 A 
ATOM     25  C   UNL     1       0.965   5.880  -0.904  0.00  0.00    -0.011 A 
ATOM     26  C   UNL     1      -0.272   6.237  -1.409  0.00  0.00    +0.006 A 
ATOM     27 CL   UNL     1       3.593   6.296  -0.403  0.00  0.00    -0.083 Cl
ENDBRANCH  20  25
ENDBRANCH   1  20
TORSDOF 4
