REMARK  Name = ZINC09237245
REMARK  6 active torsions:
REMARK  status: ('A' for Active; 'I' for Inactive)
REMARK    1  A    between atoms: C_1  and  C_2
REMARK    2  A    between atoms: C_5  and  C_8
REMARK    3  A    between atoms: C_10  and  C_20
REMARK    4  A    between atoms: C_16  and  C_19
REMARK    5  A    between atoms: N_22  and  C_23
REMARK    6  A    between atoms: C_28  and  C_29
REMARK                            x       y       z     vdW  Elec       q    Type
REMARK                         _______ _______ _______ _____ _____    ______ ____
ROOT
ATOM      1  C   UNL     1      -0.094   5.764   0.061  0.00  0.00    +0.140 C 
ATOM      2  C   UNL     1      -0.351   6.277  -1.361  0.00  0.00    +0.166 C 
ATOM      3  S   UNL     1       0.011   8.059  -1.384  0.00  0.00    -0.069 S 
ATOM      4  C   UNL     1      -0.804   8.491   0.121  0.00  0.00    +0.209 A 
ATOM      5  N   UNL     1      -1.102   9.681   0.563  0.00  0.00    -0.121 NA
ATOM      6  N   UNL     1      -1.687   9.580   1.707  0.00  0.00    -0.132 NA
ATOM      7  C   UNL     1      -1.792   8.325   2.048  0.00  0.00    +0.148 A 
ATOM      8  N   UNL     1      -1.238   7.583   1.045  0.00  0.00    -0.225 N 
ATOM      9  N   UNL     1      -1.141   6.231   0.971  0.00  0.00    -0.272 N 
ATOM     10  C   UNL     1      -2.411   7.794   3.315  0.00  0.00    +0.090 C 
ATOM     11  H   UNL     1      -2.032   5.817   0.739  0.00  0.00    +0.167 HD
ENDROOT
BRANCH   1  16
ATOM     12  C   UNL     1      -0.033  -0.015   0.028  0.00  0.00    +0.044 C 
ATOM     13  C   UNL     1      -0.049   1.492   0.036  0.00  0.00    -0.050 A 
ATOM     14  C   UNL     1      -1.253   2.171   0.035  0.00  0.00    +0.004 A 
ATOM     15  C   UNL     1      -1.268   3.553   0.048  0.00  0.00    +0.006 A 
ATOM     16  C   UNL     1      -0.078   4.257   0.052  0.00  0.00    -0.024 A 
ATOM     17  C   UNL     1       1.126   3.579   0.047  0.00  0.00    +0.006 A 
ATOM     18  C   UNL     1       1.141   2.196   0.039  0.00  0.00    +0.004 A 
ENDBRANCH   1  16
BRANCH   2  19
ATOM     19  C   UNL     1      -1.792   6.045  -1.735  0.00  0.00    +0.233 C 
ATOM     20  O   UNL     1      -2.120   5.006  -2.268  0.00  0.00    -0.274 OA
ATOM     21  N   UNL     1      -2.717   6.991  -1.478  0.00  0.00    -0.284 N 
ATOM     22  H   UNL     1      -2.443   7.853  -1.127  0.00  0.00    +0.155 HD
BRANCH  21  23
ATOM     23  C   UNL     1      -4.071   6.730  -1.717  0.00  0.00    +0.036 A 
ATOM     24  C   UNL     1      -4.578   5.452  -1.520  0.00  0.00    +0.024 A 
ATOM     25  C   UNL     1      -5.914   5.197  -1.756  0.00  0.00    +0.017 A 
ATOM     26  C   UNL     1      -6.748   6.213  -2.189  0.00  0.00    +0.018 A 
ATOM     27  C   UNL     1      -6.245   7.487  -2.385  0.00  0.00    +0.020 A 
ATOM     28  C   UNL     1      -4.910   7.749  -2.145  0.00  0.00    -0.028 A 
ATOM     29  C   UNL     1      -4.365   9.138  -2.353  0.00  0.00    +0.046 C 
ATOM     30 BR   UNL     1      -8.578   5.861  -2.511  0.00  0.00    -0.050 Br
ENDBRANCH  21  23
ENDBRANCH   2  19
TORSDOF 3
