REMARK  Name = ZINC12713442
REMARK  4 active torsions:
REMARK  status: ('A' for Active; 'I' for Inactive)
REMARK    1  A    between atoms: C_3  and  C_6
REMARK    2  A    between atoms: C_7  and  C_8
REMARK    3  A    between atoms: C_19  and  C_20
REMARK    4  A    between atoms: C_19  and  N_58
REMARK                            x       y       z     vdW  Elec       q    Type
REMARK                         _______ _______ _______ _____ _____    ______ ____
ROOT
ATOM      1  C   UNL     1      -1.711   3.886   1.417  0.00  0.00    +0.239 C 
ATOM      2  O   UNL     1      -2.313   4.813   0.906  0.00  0.00    -0.271 OA
ATOM      3  N   UNL     1      -1.535   2.738   0.734  0.00  0.00    -0.298 N 
ATOM      4  C   UNL     1      -0.835   1.510   1.186  0.00  0.00    +0.108 C 
ATOM      5  C   UNL     1      -0.071   1.017  -0.064  0.00  0.00    +0.025 C 
ATOM      6  C   UNL     1      -0.839   1.613  -1.256  0.00  0.00    -0.027 C 
ATOM      7  C   UNL     1      -1.997   2.417  -0.638  0.00  0.00    +0.113 C 
ATOM      8  C   UNL     1      -1.387   0.496  -2.139  0.00  0.00    +0.005 C 
ATOM      9  C   UNL     1      -0.218  -0.264  -2.774  0.00  0.00    -0.018 C 
ATOM     10  C   UNL     1       0.657   0.719  -3.555  0.00  0.00    -0.079 C 
ATOM     11  C   UNL     1       0.071   2.534  -2.061  0.00  0.00    -0.070 C 
ATOM     12  N   UNL     1       1.184   1.740  -2.625  0.00  0.00    +0.380 N 
ATOM     13  H   UNL     1       1.679   1.268  -1.859  0.00  0.00    -0.082 HD
ENDROOT
BRANCH   1  15
ATOM     14  C   UNL     1      -1.374   5.170   3.417  0.00  0.00    +0.020 C 
ATOM     15  C   UNL     1      -1.197   4.014   2.729  0.00  0.00    +0.068 C 
BRANCH  14  18
ATOM     16  C   UNL     1      -0.339   6.237   6.826  0.00  0.00    +0.008 A 
ATOM     17  C   UNL     1      -0.930   6.383   5.596  0.00  0.00    +0.015 A 
ATOM     18  C   UNL     1      -0.859   5.299   4.730  0.00  0.00    +0.012 A 
ATOM     19  S   UNL     1       0.042   4.108   5.706  0.00  0.00    -0.097 S 
ATOM     20  C   UNL     1       0.274   5.064   7.133  0.00  0.00    +0.046 A 
ENDBRANCH  14  18
ENDBRANCH   1  15
BRANCH  12  21
ATOM     21  C   UNL     1       2.130   2.627  -3.333  0.00  0.00    -0.075 C 
BRANCH  21  22
ATOM     22  C   UNL     1       3.205   1.773  -4.009  0.00  0.00    -0.028 C 
ATOM     23  C   UNL     1       3.967   0.978  -2.946  0.00  0.00    +0.002 C 
ATOM     24  C   UNL     1       5.042   0.124  -3.622  0.00  0.00    +0.000 C 
ATOM     25  C   UNL     1       6.015   1.032  -4.376  0.00  0.00    +0.000 C 
ATOM     26  C   UNL     1       5.253   1.827  -5.438  0.00  0.00    +0.000 C 
ATOM     27  C   UNL     1       4.178   2.681  -4.763  0.00  0.00    +0.002 C 
ENDBRANCH  21  22
ENDBRANCH  12  21
TORSDOF 4
