REMARK  Name = ZINC66802964
REMARK  8 active torsions:
REMARK  status: ('A' for Active; 'I' for Inactive)
REMARK    1  A    between atoms: C_1  and  C_2
REMARK    2  A    between atoms: C_2  and  C_3
REMARK    3  A    between atoms: C_4  and  C_28
REMARK    4  A    between atoms: C_5  and  C_27
REMARK    5  A    between atoms: C_8  and  C_9
REMARK    6  A    between atoms: N_11  and  C_12
REMARK    7  A    between atoms: C_15  and  C_18
REMARK    8  A    between atoms: C_28  and  C_30
REMARK                            x       y       z     vdW  Elec       q    Type
REMARK                         _______ _______ _______ _____ _____    ______ ____
ROOT
ATOM      1  C   UNL     1      -2.207  -0.095  -2.560  0.00  0.00    +0.265 C 
ATOM      2  O   UNL     1      -1.481   0.819  -2.904  0.00  0.00    -0.268 OA
ATOM      3  N   UNL     1      -2.656  -0.979  -3.473  0.00  0.00    -0.280 N 
ATOM      4  H   UNL     1      -3.293  -1.663  -3.213  0.00  0.00    +0.155 HD
ENDROOT
BRANCH   1  10
ATOM      5  C   UNL     1      -2.211   0.588  -0.134  0.00  0.00    -0.007 A 
ATOM      6  C   UNL     1      -2.815   0.093   1.047  0.00  0.00    +0.041 A 
ATOM      7  C   UNL     1      -3.545  -1.029   0.689  0.00  0.00    +0.024 A 
ATOM      8  N   UNL     1      -3.404  -1.221  -0.631  0.00  0.00    -0.354 N 
ATOM      9  H   UNL     1      -3.812  -1.939  -1.140  0.00  0.00    +0.166 HD
ATOM     10  C   UNL     1      -2.594  -0.234  -1.151  0.00  0.00    +0.106 A 
ATOM     11  C   UNL     1      -4.358  -1.888   1.623  0.00  0.00    +0.064 C 
BRANCH   6  12
ATOM     12  C   UNL     1      -2.692   0.661   2.393  0.00  0.00    +0.162 C 
ATOM     13  O   UNL     1      -3.429   1.560   2.742  0.00  0.00    -0.292 OA
ATOM     14  C   UNL     1      -1.651   0.128   3.344  0.00  0.00    +0.091 C 
ENDBRANCH   6  12
BRANCH   5  16
ATOM     15  C   UNL     1      -2.174   3.037  -0.521  0.00  0.00    +0.009 C 
ATOM     16  C   UNL     1      -1.320   1.798  -0.246  0.00  0.00    +0.035 C 
ENDBRANCH   5  16
ENDBRANCH   1  10
BRANCH   3  17
ATOM     17  C   UNL     1      -2.203  -0.912  -4.792  0.00  0.00    +0.034 A 
ATOM     18  C   UNL     1      -0.900  -0.505  -5.058  0.00  0.00    +0.024 A 
ATOM     19  C   UNL     1      -0.450  -0.438  -6.359  0.00  0.00    +0.013 A 
ATOM     20  C   UNL     1      -1.303  -0.778  -7.410  0.00  0.00    +0.019 A 
ATOM     21  C   UNL     1      -2.611  -1.186  -7.139  0.00  0.00    +0.013 A 
ATOM     22  C   UNL     1      -3.053  -1.256  -5.837  0.00  0.00    +0.024 A 
BRANCH  20  23
ATOM     23  C   UNL     1      -0.824  -0.706  -8.807  0.00  0.00    +0.164 A 
ATOM     24  N   UNL     1      -1.569  -0.683  -9.894  0.00  0.00    -0.129 NA
ATOM     25  N   UNL     1      -0.816  -0.617 -10.938  0.00  0.00    -0.134 NA
ATOM     26  C   UNL     1       0.433  -0.593 -10.581  0.00  0.00    +0.134 A 
ATOM     27  N   UNL     1       0.471  -0.644  -9.218  0.00  0.00    -0.311 N 
ATOM     28  C   UNL     1       1.693  -0.637  -8.416  0.00  0.00    +0.125 C 
ATOM     29  C   UNL     1       2.879  -0.985  -9.323  0.00  0.00    +0.022 C 
ATOM     30  C   UNL     1       2.848  -0.100 -10.572  0.00  0.00    +0.009 C 
ATOM     31  C   UNL     1       1.660  -0.516 -11.455  0.00  0.00    +0.076 C 
ENDBRANCH  20  23
ENDBRANCH   3  17
TORSDOF 5
