REMARK  Name = ZINC66957081
REMARK  6 active torsions:
REMARK  status: ('A' for Active; 'I' for Inactive)
REMARK    1  A    between atoms: C_1  and  C_2
REMARK    2  A    between atoms: C_5  and  C_7
REMARK    3  A    between atoms: C_10  and  C_12
REMARK    4  A    between atoms: C_12  and  N_13
REMARK    5  A    between atoms: N_16  and  C_17
REMARK    6  A    between atoms: C_20  and  C_23
REMARK                            x       y       z     vdW  Elec       q    Type
REMARK                         _______ _______ _______ _____ _____    ______ ____
ROOT
ATOM      1  N   UNL     1       0.756  -6.260   0.831  0.00  0.00    -0.292 N 
ATOM      2  C   UNL     1       0.518  -7.565   0.592  0.00  0.00    +0.304 C 
ATOM      3  O   UNL     1       0.092  -7.917  -0.491  0.00  0.00    -0.252 OA
ATOM      4  N   UNL     1       0.752  -8.480   1.554  0.00  0.00    -0.269 N 
ATOM      5  H   UNL     1       1.095  -5.979   1.695  0.00  0.00    +0.151 HD
ATOM      6  H   UNL     1       1.153  -8.208   2.394  0.00  0.00    +0.156 HD
ENDROOT
BRANCH   4   7
ATOM      7  C   UNL     1       0.416  -9.820   1.340  0.00  0.00    +0.035 A 
ATOM      8  C   UNL     1       0.556 -10.376   0.074  0.00  0.00    +0.024 A 
ATOM      9  C   UNL     1       0.225 -11.697  -0.140  0.00  0.00    +0.013 A 
ATOM     10  C   UNL     1      -0.250 -12.476   0.917  0.00  0.00    +0.019 A 
ATOM     11  C   UNL     1      -0.389 -11.914   2.187  0.00  0.00    +0.013 A 
ATOM     12  C   UNL     1      -0.051 -10.594   2.396  0.00  0.00    +0.024 A 
BRANCH  10  13
ATOM     13  C   UNL     1      -0.606 -13.893   0.691  0.00  0.00    +0.164 A 
ATOM     14  N   UNL     1      -1.347 -14.652   1.473  0.00  0.00    -0.129 NA
ATOM     15  N   UNL     1      -1.450 -15.832   0.965  0.00  0.00    -0.134 NA
ATOM     16  C   UNL     1      -0.791 -15.891  -0.153  0.00  0.00    +0.134 A 
ATOM     17  N   UNL     1      -0.237 -14.664  -0.368  0.00  0.00    -0.311 N 
ATOM     18  C   UNL     1       0.586 -14.309  -1.523  0.00  0.00    +0.125 C 
ATOM     19  C   UNL     1       1.063 -15.599  -2.202  0.00  0.00    +0.022 C 
ATOM     20  C   UNL     1      -0.132 -16.526  -2.441  0.00  0.00    +0.009 C 
ATOM     21  C   UNL     1      -0.633 -17.062  -1.091  0.00  0.00    +0.076 C 
ENDBRANCH  10  13
ENDBRANCH   4   7
BRANCH   1  22
ATOM     22  C   UNL     1       0.501  -5.265  -0.214  0.00  0.00    +0.180 C 
BRANCH  22  26
ATOM     23  C   UNL     1       0.653  -1.925   1.253  0.00  0.00    +0.109 A 
ATOM     24  C   UNL     1       1.923  -2.027   0.823  0.00  0.00    +0.045 A 
ATOM     25  C   UNL     1       2.048  -3.296   0.211  0.00  0.00    +0.046 A 
ATOM     26  C   UNL     1       0.846  -3.893   0.304  0.00  0.00    +0.122 A 
ATOM     27  O   UNL     1       0.006  -3.060   0.941  0.00  0.00    -0.463 OA
BRANCH  23  31
ATOM     28  C   UNL     1      -1.242   1.475   1.472  0.00  0.00    +0.008 C 
ATOM     29  C   UNL     1      -1.134  -0.042   1.310  0.00  0.00    -0.003 C 
ATOM     30  C   UNL     1      -1.346  -0.902   2.558  0.00  0.00    +0.015 C 
ATOM     31  C   UNL     1       0.058  -0.740   1.969  0.00  0.00    +0.058 C 
ENDBRANCH  23  31
ENDBRANCH  22  26
ENDBRANCH   1  22
TORSDOF 5
