REMARK  Name = ZINC59384960
REMARK  8 active torsions:
REMARK  status: ('A' for Active; 'I' for Inactive)
REMARK    1  A    between atoms: C_1  and  C_2
REMARK    2  A    between atoms: C_3  and  C_18
REMARK    3  A    between atoms: C_4  and  C_10
REMARK    4  A    between atoms: N_20  and  N_21
REMARK    5  A    between atoms: C_22  and  C_23
REMARK    6  A    between atoms: C_26  and  N_29
REMARK    7  A    between atoms: N_29  and  C_30
REMARK    8  A    between atoms: N_29  and  C_31
REMARK                            x       y       z     vdW  Elec       q    Type
REMARK                         _______ _______ _______ _____ _____    ______ ____
ROOT
ATOM      1  C   UNL     1      -0.785  -1.616  -2.434  0.00  0.00    +0.061 C 
ATOM      2  C   UNL     1      -0.188  -1.545  -1.052  0.00  0.00    +0.017 C 
ATOM      3  C   UNL     1      -0.916  -1.029  -0.040  0.00  0.00    +0.057 C 
ATOM      4  C   UNL     1      -0.277  -0.977   1.333  0.00  0.00    +0.141 C 
ATOM      5  N   UNL     1       1.095  -1.498   1.451  0.00  0.00    -0.315 N 
ATOM      6  C   UNL     1       1.694  -1.983   0.346  0.00  0.00    +0.135 C 
ATOM      7  S   UNL     1       3.289  -2.592   0.468  0.00  0.00    -0.019 S 
ATOM      8  N   UNL     1       1.080  -2.010  -0.844  0.00  0.00    -0.300 N 
ATOM      9  H   UNL     1       1.557  -1.491   2.304  0.00  0.00    +0.149 HD
ATOM     10  H   UNL     1       1.563  -2.376  -1.601  0.00  0.00    +0.154 HD
ENDROOT
BRANCH   4  11
ATOM     11  C   UNL     1      -1.152  -1.755   2.282  0.00  0.00    -0.004 A 
ATOM     12  C   UNL     1      -0.912  -3.099   2.499  0.00  0.00    +0.008 A 
ATOM     13  C   UNL     1      -1.713  -3.814   3.369  0.00  0.00    +0.020 A 
ATOM     14  C   UNL     1      -2.757  -3.184   4.024  0.00  0.00    +0.042 A 
ATOM     15  C   UNL     1      -2.997  -1.839   3.808  0.00  0.00    +0.040 A 
ATOM     16  C   UNL     1      -2.191  -1.123   2.941  0.00  0.00    +0.048 A 
ATOM     17 CL   UNL     1      -2.489   0.566   2.674  0.00  0.00    -0.083 Cl
ATOM     18 CL   UNL     1      -3.764  -4.082   5.116  0.00  0.00    -0.083 Cl
ENDBRANCH   4  11
BRANCH   3  19
ATOM     19  C   UNL     1      -2.232  -0.551  -0.254  0.00  0.00    +0.263 C 
ATOM     20  O   UNL     1      -2.441   0.646  -0.330  0.00  0.00    -0.269 OA
ATOM     21  N   UNL     1      -3.254  -1.422  -0.373  0.00  0.00    -0.203 N 
ATOM     22  H   UNL     1      -3.100  -2.371  -0.240  0.00  0.00    +0.178 HD
BRANCH  21  23
ATOM     23  N   UNL     1      -4.537  -0.957  -0.689  0.00  0.00    -0.187 NA
ATOM     24  C   UNL     1      -5.500  -1.802  -0.899  0.00  0.00    +0.138 C 
BRANCH  24  25
ATOM     25  C   UNL     1      -6.821  -1.319  -1.338  0.00  0.00    -0.005 A 
ATOM     26  C   UNL     1      -7.038   0.048  -1.534  0.00  0.00    +0.011 A 
ATOM     27  C   UNL     1      -8.274   0.495  -1.946  0.00  0.00    +0.024 A 
ATOM     28  C   UNL     1      -9.306  -0.411  -2.165  0.00  0.00    +0.029 A 
ATOM     29  C   UNL     1      -9.094  -1.772  -1.971  0.00  0.00    +0.024 A 
ATOM     30  C   UNL     1      -7.859  -2.228  -1.566  0.00  0.00    +0.011 A 
BRANCH  28  31
ATOM     31  N   UNL     1     -10.557   0.046  -2.581  0.00  0.00    -0.336 N 
ATOM     32  C   UNL     1     -10.749   1.462  -2.904  0.00  0.00    +0.129 C 
ATOM     33  C   UNL     1     -11.678  -0.890  -2.693  0.00  0.00    +0.129 C 
ENDBRANCH  28  31
ENDBRANCH  24  25
ENDBRANCH  21  23
ENDBRANCH   3  19
TORSDOF 5
