REMARK  Name = ZINC27550451
REMARK  7 active torsions:
REMARK  status: ('A' for Active; 'I' for Inactive)
REMARK    1  A    between atoms: C_1  and  C_2
REMARK    2  A    between atoms: C_4  and  C_8
REMARK    3  A    between atoms: C_5  and  C_7
REMARK    4  A    between atoms: C_10  and  C_31
REMARK    5  A    between atoms: C_11  and  N_30
REMARK    6  A    between atoms: N_12  and  C_20
REMARK    7  A    between atoms: C_24  and  N_26
REMARK                            x       y       z     vdW  Elec       q    Type
REMARK                         _______ _______ _______ _____ _____    ______ ____
ROOT
ATOM      1  C   UNL     1      -3.230   2.248  -2.655  0.00  0.00    +0.098 C 
ATOM      2  C   UNL     1      -4.412   1.386  -2.324  0.00  0.00    +0.077 C 
ATOM      3  C   UNL     1      -4.846   1.251  -1.044  0.00  0.00    +0.107 C 
ATOM      4  N   UNL     1      -4.195   1.905  -0.022  0.00  0.00    -0.260 N 
ATOM      5  C   UNL     1      -2.911   2.353  -0.190  0.00  0.00    +0.024 C 
ATOM      6  C   UNL     1      -2.402   2.532  -1.427  0.00  0.00    +0.025 C 
ATOM      7  C   UNL     1      -1.085   2.991  -1.610  0.00  0.00    +0.162 C 
ATOM      8  O   UNL     1      -0.652   3.127  -2.737  0.00  0.00    -0.292 OA
ATOM      9  C   UNL     1      -0.203   3.316  -0.435  0.00  0.00    +0.080 C 
ATOM     10  C   UNL     1      -1.080   3.753   0.743  0.00  0.00    +0.014 C 
ATOM     11  C   UNL     1      -2.083   2.633   1.040  0.00  0.00    +0.052 C 
ENDROOT
BRANCH   1  15
ATOM     12  C   UNL     1      -5.796   6.642  -2.433  0.00  0.00    +0.051 C 
ATOM     13  C   UNL     1      -4.933   5.564  -3.037  0.00  0.00    -0.013 A 
ATOM     14  C   UNL     1      -4.512   4.399  -2.485  0.00  0.00    +0.015 A 
ATOM     15  C   UNL     1      -3.717   3.551  -3.235  0.00  0.00    -0.025 A 
ATOM     16  C   UNL     1      -3.378   3.913  -4.496  0.00  0.00    -0.009 A 
ATOM     17  S   UNL     1      -4.201   5.488  -4.663  0.00  0.00    -0.098 S 
ATOM     18  C   UNL     1      -2.529   3.175  -5.499  0.00  0.00    +0.052 C 
ENDBRANCH   1  15
BRANCH   4  19
ATOM     19  C   UNL     1      -4.849   2.112   1.198  0.00  0.00    +0.042 A 
ATOM     20  C   UNL     1      -5.592   3.268   1.402  0.00  0.00    +0.025 A 
ATOM     21  C   UNL     1      -6.236   3.470   2.606  0.00  0.00    +0.024 A 
ATOM     22  C   UNL     1      -6.143   2.521   3.610  0.00  0.00    +0.071 A 
ATOM     23  C   UNL     1      -5.404   1.369   3.409  0.00  0.00    +0.146 A 
ATOM     24  C   UNL     1      -4.762   1.159   2.205  0.00  0.00    +0.058 A 
ATOM     25 CL   UNL     1      -6.954   2.779   5.123  0.00  0.00    -0.081 Cl
BRANCH  23  26
ATOM     26  N   UNL     1      -5.307   0.357   4.485  0.00  0.00    +0.058 N 
ATOM     27  O   UNL     1      -4.657  -0.658   4.309  0.00  0.00    -0.126 OA
ATOM     28  O   UNL     1      -5.876   0.539   5.546  0.00  0.00    -0.126 OA
ENDBRANCH  23  26
ENDBRANCH   4  19
BRANCH   3  29
ATOM     29  N   UNL     1      -5.937   0.462  -0.769  0.00  0.00    -0.345 N 
ATOM     30  H   UNL     1      -6.289   0.352   0.268  0.00  0.00    +0.144 HD
ATOM     31  H   UNL     1      -6.458  -0.060  -1.585  0.00  0.00    +0.144 HD
ENDBRANCH   3  29
BRANCH   2  32
ATOM     32  C   UNL     1      -5.095   0.694  -3.376  0.00  0.00    +0.099 C 
ATOM     33  N   UNL     1      -5.636   0.144  -4.210  0.00  0.00    -0.191 NA
ENDBRANCH   2  32
TORSDOF 5
