REMARK  Name = ZINC50971692
REMARK  3 active torsions:
REMARK  status: ('A' for Active; 'I' for Inactive)
REMARK    1  A    between atoms: C_3  and  C_6
REMARK    2  A    between atoms: C_6  and  C_8
REMARK    3  A    between atoms: C_6  and  O_15
REMARK                            x       y       z     vdW  Elec       q    Type
REMARK                         _______ _______ _______ _____ _____    ______ ____
ROOT
ATOM      1  C   UNL     1       3.761   1.845  -0.024  0.00  0.00    +0.180 C 
ENDROOT
BRANCH   1   2
ATOM      2  C   UNL     1       4.339   1.775   1.390  0.00  0.00    +0.152 C 
ATOM      3  C   UNL     1       5.817   2.174   1.358  0.00  0.00    +0.034 C 
ATOM      4  C   UNL     1       6.404   2.043   2.767  0.00  0.00    +0.005 C 
ATOM      5  C   UNL     1       6.200   0.608   3.262  0.00  0.00    +0.028 C 
ATOM      6  C   UNL     1       4.707   0.269   3.221  0.00  0.00    +0.160 C 
ATOM      7  O   UNL     1       4.218   0.441   1.889  0.00  0.00    -0.374 OA
ENDBRANCH   1   2
BRANCH   1  10
ATOM      8  C   UNL     1      -0.016   1.351   0.009  0.00  0.00    +0.008 A 
ATOM      9  C   UNL     1       1.183   2.038   0.002  0.00  0.00    +0.014 A 
ATOM     10  C   UNL     1       2.343   1.336  -0.013  0.00  0.00    +0.021 A 
ATOM     11  S   UNL     1       1.754  -0.349  -0.017  0.00  0.00    -0.099 S 
ATOM     12  C   UNL     1       0.002  -0.004   0.002  0.00  0.00    +0.045 A 
ENDBRANCH   1  10
BRANCH   1  13
ATOM     13  O   UNL     1       4.550   1.040  -0.902  0.00  0.00    -0.384 OA
ATOM     14  H   UNL     1       4.584   0.106  -0.654  0.00  0.00    +0.210 HD
ENDBRANCH   1  13
TORSDOF 3
