REMARK  Name = ZINC54526651
REMARK  2 active torsions:
REMARK  status: ('A' for Active; 'I' for Inactive)
REMARK    1  A    between atoms: C_6  and  C_7
REMARK    2  A    between atoms: N_11  and  C_12
REMARK                            x       y       z     vdW  Elec       q    Type
REMARK                         _______ _______ _______ _____ _____    ______ ____
ROOT
ATOM      1  C   UNL     1      -1.266  -0.763   0.027  0.00  0.00    +0.164 A 
ATOM      2  N   UNL     1      -1.399  -2.060   0.204  0.00  0.00    -0.129 NA
ATOM      3  N   UNL     1      -2.641  -2.383   0.130  0.00  0.00    -0.138 NA
ATOM      4  C   UNL     1      -3.368  -1.322  -0.097  0.00  0.00    +0.225 A 
ATOM      5  N   UNL     1      -2.523  -0.256  -0.165  0.00  0.00    -0.310 N 
ENDROOT
BRANCH   1  11
ATOM      6  C   UNL     1       0.018   1.322   0.491  0.00  0.00    +0.013 A 
ATOM      7  C   UNL     1       1.196   2.030   0.502  0.00  0.00    +0.024 A 
ATOM      8  C   UNL     1       2.384   1.437   0.061  0.00  0.00    +0.030 A 
ATOM      9  C   UNL     1       2.360   0.124  -0.388  0.00  0.00    -0.024 A 
ATOM     10  C   UNL     1       1.183  -0.592  -0.402  0.00  0.00    +0.017 A 
ATOM     11  C   UNL     1      -0.001   0.001   0.039  0.00  0.00    +0.020 A 
ATOM     12  C   UNL     1       3.762  -0.268  -0.801  0.00  0.00    +0.055 C 
ATOM     13  C   UNL     1       4.607   0.989  -0.534  0.00  0.00    +0.106 C 
ATOM     14  N   UNL     1       3.667   1.980  -0.006  0.00  0.00    -0.343 N 
ATOM     15  H   UNL     1       3.902   2.883   0.259  0.00  0.00    +0.146 HD
ENDBRANCH   1  11
BRANCH   5  16
ATOM     16  C   UNL     1      -2.885   1.145  -0.398  0.00  0.00    +0.090 C 
ATOM     17  C   UNL     1      -3.716   1.250  -1.678  0.00  0.00    +0.025 C 
ATOM     18  C   UNL     1      -4.094   2.713  -1.922  0.00  0.00    +0.002 C 
ATOM     19  C   UNL     1      -4.912   3.232  -0.738  0.00  0.00    +0.000 C 
ATOM     20  C   UNL     1      -4.081   3.127   0.542  0.00  0.00    +0.002 C 
ATOM     21  C   UNL     1      -3.703   1.664   0.786  0.00  0.00    +0.025 C 
ENDBRANCH   5  16
TORSDOF 2
