REMARK  Name = ZINC55026498
REMARK  6 active torsions:
REMARK  status: ('A' for Active; 'I' for Inactive)
REMARK    1  A    between atoms: C_1  and  N_2
REMARK    2  A    between atoms: N_2  and  C_3
REMARK    3  A    between atoms: C_6  and  C_11
REMARK    4  A    between atoms: C_11  and  N_12
REMARK    5  A    between atoms: C_20  and  O_22
REMARK    6  A    between atoms: O_22  and  C_23
REMARK                            x       y       z     vdW  Elec       q    Type
REMARK                         _______ _______ _______ _____ _____    ______ ____
ROOT
ATOM      1  N   UNL     1      -1.351  -4.683  -2.349  0.00  0.00    -0.322 N 
ATOM      2  C   UNL     1      -2.046  -4.937  -1.079  0.00  0.00    +0.106 C 
ATOM      3  C   UNL     1      -2.760  -6.289  -1.199  0.00  0.00    +0.024 C 
ATOM      4  C   UNL     1      -3.817  -6.194  -2.299  0.00  0.00    +0.038 C 
ATOM      5  C   UNL     1      -3.210  -5.651  -3.567  0.00  0.00    -0.023 A 
ATOM      6  C   UNL     1      -2.029  -4.923  -3.552  0.00  0.00    +0.033 A 
ATOM      7  C   UNL     1      -1.499  -4.427  -4.737  0.00  0.00    +0.027 A 
ATOM      8  C   UNL     1      -2.148  -4.654  -5.935  0.00  0.00    +0.047 A 
ATOM      9  C   UNL     1      -3.330  -5.379  -5.953  0.00  0.00    +0.127 A 
ATOM     10  C   UNL     1      -3.856  -5.883  -4.770  0.00  0.00    +0.051 A 
ENDROOT
BRANCH   1  11
ATOM     11  C   UNL     1       0.025  -4.181  -2.357  0.00  0.00    +0.181 C 
BRANCH  11  17
ATOM     12  C   UNL     1      -0.018   1.461   0.010  0.00  0.00    +0.132 C 
ATOM     13  N   UNL     1       0.002  -0.004   0.002  0.00  0.00    -0.306 N 
ATOM     14  C   UNL     1       0.024  -0.743   1.267  0.00  0.00    +0.132 C 
ATOM     15  C   UNL     1       0.000  -0.688  -1.197  0.00  0.00    +0.222 A 
ATOM     16  N   UNL     1       0.013  -2.019  -1.205  0.00  0.00    -0.198 NA
ATOM     17  C   UNL     1       0.011  -2.674  -2.353  0.00  0.00    +0.153 A 
ATOM     18  N   UNL     1      -0.004  -2.011  -3.496  0.00  0.00    -0.198 NA
ATOM     19  C   UNL     1      -0.016  -0.681  -3.496  0.00  0.00    +0.217 A 
ATOM     20  N   UNL     1      -0.020  -0.018  -2.344  0.00  0.00    -0.181 NA
ATOM     21  N   UNL     1      -0.031   0.010  -4.690  0.00  0.00    -0.327 N 
ATOM     22  H   UNL     1      -0.032  -0.474  -5.531  0.00  0.00    +0.145 HD
ATOM     23  H   UNL     1      -0.040   0.980  -4.689  0.00  0.00    +0.145 HD
ENDBRANCH  11  17
ENDBRANCH   1  11
BRANCH   9  24
ATOM     24  O   UNL     1      -3.971  -5.605  -7.131  0.00  0.00    -0.434 OA
BRANCH  24  25
ATOM     25  C   UNL     1      -3.369  -5.067  -8.310  0.00  0.00    +0.541 C 
ATOM     26  F   UNL     1      -3.277  -3.676  -8.194  0.00  0.00    -0.166 F 
ATOM     27  F   UNL     1      -2.089  -5.608  -8.469  0.00  0.00    -0.166 F 
ENDBRANCH  24  25
ENDBRANCH   9  24
TORSDOF 4
