REMARK  Name = ZINC05414067
REMARK  8 active torsions:
REMARK  status: ('A' for Active; 'I' for Inactive)
REMARK    1  A    between atoms: C_1  and  C_2
REMARK    2  A    between atoms: C_5  and  C_8
REMARK    3  A    between atoms: C_8  and  C_9
REMARK    4  A    between atoms: C_9  and  C_25
REMARK    5  A    between atoms: C_13  and  C_24
REMARK    6  A    between atoms: C_18  and  C_20
REMARK    7  A    between atoms: C_20  and  C_22
REMARK    8  A    between atoms: C_20  and  O_23
REMARK                            x       y       z     vdW  Elec       q    Type
REMARK                         _______ _______ _______ _____ _____    ______ ____
ROOT
ATOM      1  C   UNL     1       0.002  -0.004   0.002  0.00  0.00    +0.163 C 
ATOM      2  C   UNL     1       0.757  -0.517   1.214  0.00  0.00    +0.336 C 
ATOM      3  O   UNL     1       0.169  -0.933   2.184  0.00  0.00    -0.248 OA
ATOM      4  O   UNL     1       2.109  -0.494   1.172  0.00  0.00    -0.452 OA
ATOM      5  C   UNL     1       2.726  -1.274   0.105  0.00  0.00    +0.240 C 
ATOM      6  C   UNL     1       1.935  -1.049  -1.160  0.00  0.00    +0.170 A 
ATOM      7  N   UNL     1       0.709  -0.487  -1.187  0.00  0.00    -0.228 N 
ATOM      8  N   UNL     1       0.302  -0.470  -2.521  0.00  0.00    -0.151 NA
ATOM      9  C   UNL     1       1.280  -0.999  -3.215  0.00  0.00    +0.179 A 
ATOM     10  N   UNL     1       2.266  -1.346  -2.384  0.00  0.00    -0.209 NA
ATOM     11  C   UNL     1       2.702  -2.760   0.471  0.00  0.00    +0.060 C 
ATOM     12  C   UNL     1      -1.429  -0.544   0.013  0.00  0.00    +0.049 C 
ENDROOT
BRANCH   9  13
ATOM     13  C   UNL     1       1.289  -1.188  -4.710  0.00  0.00    +0.181 C 
ATOM     14  C   UNL     1       1.060  -2.664  -5.040  0.00  0.00    +0.046 C 
BRANCH  13  15
ATOM     15  O   UNL     1       2.552  -0.773  -5.235  0.00  0.00    -0.384 OA
ATOM     16  H   UNL     1       3.305  -1.265  -4.880  0.00  0.00    +0.210 HD
ENDBRANCH  13  15
ENDBRANCH   9  13
BRANCH   1  17
ATOM     17  C   UNL     1      -0.019   1.526   0.010  0.00  0.00    +0.076 C 
BRANCH  17  22
ATOM     18  C   UNL     1      -2.724   3.389   4.765  0.00  0.00    +0.044 C 
ATOM     19  C   UNL     1      -2.018   2.904   3.525  0.00  0.00    -0.050 A 
ATOM     20  C   UNL     1      -0.652   2.691   3.545  0.00  0.00    +0.003 A 
ATOM     21  C   UNL     1      -0.005   2.246   2.408  0.00  0.00    +0.004 A 
ATOM     22  C   UNL     1      -0.724   2.012   1.250  0.00  0.00    -0.045 A 
ATOM     23  C   UNL     1      -2.089   2.229   1.229  0.00  0.00    +0.004 A 
ATOM     24  C   UNL     1      -2.737   2.671   2.367  0.00  0.00    +0.003 A 
ENDBRANCH  17  22
ENDBRANCH   1  17
TORSDOF 4
