REMARK  Name = ZINC58197546
REMARK  7 active torsions:
REMARK  status: ('A' for Active; 'I' for Inactive)
REMARK    1  A    between atoms: C_1  and  C_2
REMARK    2  A    between atoms: N_5  and  C_8
REMARK    3  A    between atoms: C_8  and  C_10
REMARK    4  A    between atoms: C_8  and  C_26
REMARK    5  A    between atoms: C_10  and  N_11
REMARK    6  A    between atoms: N_14  and  C_15
REMARK    7  A    between atoms: C_20  and  N_21
REMARK                            x       y       z     vdW  Elec       q    Type
REMARK                         _______ _______ _______ _____ _____    ______ ____
ROOT
ATOM      1  N   UNL     1       0.259  -5.858   2.575  0.00  0.00    -0.300 N 
ATOM      2  C   UNL     1       0.869  -6.491   3.596  0.00  0.00    +0.304 C 
ATOM      3  O   UNL     1       1.305  -5.853   4.534  0.00  0.00    -0.253 OA
ATOM      4  N   UNL     1       0.995  -7.833   3.578  0.00  0.00    -0.266 N 
ATOM      5  H   UNL     1      -0.089  -6.368   1.826  0.00  0.00    +0.150 HD
ATOM      6  H   UNL     1       0.581  -8.350   2.868  0.00  0.00    +0.156 HD
ENDROOT
BRANCH   4   7
ATOM      7  C   UNL     1       1.723  -8.482   4.582  0.00  0.00    +0.079 A 
ATOM      8  C   UNL     1       2.706  -7.801   5.293  0.00  0.00    +0.028 A 
ATOM      9  C   UNL     1       3.400  -8.486   6.279  0.00  0.00    +0.022 A 
ATOM     10  C   UNL     1       3.098  -9.811   6.525  0.00  0.00    +0.113 A 
ATOM     11  N   UNL     1       2.161 -10.433   5.835  0.00  0.00    -0.235 NA
ATOM     12  C   UNL     1       1.470  -9.819   4.890  0.00  0.00    +0.175 A 
BRANCH  12  13
ATOM     13  N   UNL     1       0.481 -10.517   4.189  0.00  0.00    -0.220 N 
ATOM     14  C   UNL     1       0.421 -11.863   4.016  0.00  0.00    +0.116 A 
ATOM     15  C   UNL     1      -0.683 -12.133   3.283  0.00  0.00    +0.041 A 
ATOM     16  C   UNL     1      -1.320 -10.920   2.998  0.00  0.00    +0.135 A 
ATOM     17  N   UNL     1      -0.628  -9.953   3.545  0.00  0.00    -0.173 NA
ENDBRANCH  12  13
ENDBRANCH   4   7
BRANCH   1  18
ATOM     18  C   UNL     1       0.122  -4.399   2.594  0.00  0.00    +0.095 C 
BRANCH  18  19
ATOM     19  C   UNL     1      -0.710  -3.949   1.392  0.00  0.00    -0.013 C 
BRANCH  19  24
ATOM     20  C   UNL     1      -0.350   1.625   0.241  0.00  0.00    +0.007 C 
ATOM     21  C   UNL     1      -0.228   0.102   0.161  0.00  0.00    -0.018 C 
ATOM     22  C   UNL     1      -1.625  -0.525   0.159  0.00  0.00    -0.015 C 
ATOM     23  C   UNL     1      -1.495  -2.049   0.159  0.00  0.00    -0.078 C 
ATOM     24  N   UNL     1      -0.765  -2.481   1.357  0.00  0.00    +0.386 N 
ATOM     25  C   UNL     1       0.600  -1.943   1.330  0.00  0.00    -0.078 C 
ATOM     26  C   UNL     1       0.550  -0.414   1.375  0.00  0.00    -0.015 C 
ATOM     27  H   UNL     1      -1.242  -2.145   2.180  0.00  0.00    -0.081 HD
ENDBRANCH  19  24
BRANCH  19  28
ATOM     28  C   UNL     1      -2.107  -4.501   1.512  0.00  0.00    -0.022 A 
ATOM     29  C   UNL     1      -2.651  -5.585   0.908  0.00  0.00    +0.009 A 
ATOM     30  C   UNL     1      -3.970  -5.908   1.171  0.00  0.00    +0.008 A 
ATOM     31  C   UNL     1      -4.679  -5.131   2.026  0.00  0.00    +0.045 A 
ATOM     32  S   UNL     1      -3.472  -3.902   2.494  0.00  0.00    -0.103 S 
ENDBRANCH  19  28
ENDBRANCH  18  19
ENDBRANCH   1  18
TORSDOF 6
