REMARK  Name = ZINC60216913
REMARK  8 active torsions:
REMARK  status: ('A' for Active; 'I' for Inactive)
REMARK    1  A    between atoms: C_1  and  C_2
REMARK    2  A    between atoms: C_2  and  C_3
REMARK    3  A    between atoms: C_2  and  C_4
REMARK    4  A    between atoms: C_2  and  C_18
REMARK    5  A    between atoms: C_4  and  N_5
REMARK    6  A    between atoms: C_6  and  C_8
REMARK    7  A    between atoms: C_8  and  N_9
REMARK    8  A    between atoms: C_10  and  C_12
REMARK                            x       y       z     vdW  Elec       q    Type
REMARK                         _______ _______ _______ _____ _____    ______ ____
ROOT
ATOM      1  N   UNL     1      -2.119  -0.061   1.218  0.00  0.00    -0.313 N 
ATOM      2  C   UNL     1      -3.403  -0.406   1.442  0.00  0.00    +0.230 C 
ATOM      3  O   UNL     1      -3.990  -1.106   0.645  0.00  0.00    -0.274 OA
ATOM      4  H   UNL     1      -1.649   0.499   1.855  0.00  0.00    +0.149 HD
ENDROOT
BRANCH   1   5
ATOM      5  C   UNL     1      -1.433  -0.534   0.013  0.00  0.00    +0.115 C 
BRANCH   5   7
ATOM      6  C   UNL     1      -0.019   1.526   0.010  0.00  0.00    +0.017 C 
ATOM      7  C   UNL     1       0.002  -0.004   0.002  0.00  0.00    +0.006 C 
ATOM      8  C   UNL     1       0.742  -0.511   1.242  0.00  0.00    +0.017 C 
BRANCH   7   9
ATOM      9  C   UNL     1       0.707  -0.490  -1.238  0.00  0.00    -0.037 A 
ATOM     10  C   UNL     1       0.035  -1.284  -2.148  0.00  0.00    +0.008 A 
ATOM     11  C   UNL     1       0.677  -1.732  -3.287  0.00  0.00    +0.050 A 
ATOM     12  C   UNL     1       1.998  -1.386  -3.519  0.00  0.00    +0.166 A 
ATOM     13  C   UNL     1       2.676  -0.586  -2.602  0.00  0.00    +0.167 A 
ATOM     14  C   UNL     1       2.024  -0.136  -1.466  0.00  0.00    +0.053 A 
ATOM     15  O   UNL     1       3.950  -0.389  -3.053  0.00  0.00    -0.453 OA
ATOM     16  C   UNL     1       4.168  -1.409  -4.045  0.00  0.00    +0.466 C 
ATOM     17  O   UNL     1       2.847  -1.690  -4.544  0.00  0.00    -0.453 OA
ENDBRANCH   7   9
ENDBRANCH   5   7
ENDBRANCH   1   5
BRANCH   2  18
ATOM     18  C   UNL     1      -4.108   0.081   2.682  0.00  0.00    +0.200 C 
BRANCH  18  19
ATOM     19  N   UNL     1      -5.482  -0.426   2.692  0.00  0.00    -0.300 N 
ATOM     20  C   UNL     1      -6.307  -0.118   3.713  0.00  0.00    +0.280 C 
ATOM     21  O   UNL     1      -5.910   0.583   4.625  0.00  0.00    -0.267 OA
ATOM     22  H   UNL     1      -5.799  -0.985   1.965  0.00  0.00    +0.150 HD
BRANCH  20  23
ATOM     23  C   UNL     1      -7.682  -0.625   3.723  0.00  0.00    +0.191 A 
ATOM     24  C   UNL     1      -8.619  -0.385   4.688  0.00  0.00    +0.056 A 
ATOM     25  C   UNL     1      -9.784  -1.060   4.296  0.00  0.00    +0.058 A 
ATOM     26  C   UNL     1      -9.512  -1.676   3.122  0.00  0.00    +0.171 A 
ATOM     27  O   UNL     1      -8.246  -1.406   2.778  0.00  0.00    -0.444 OA
ATOM     28 BR   UNL     1     -10.722  -2.736   2.128  0.00  0.00    -0.008 Br
ENDBRANCH  20  23
ENDBRANCH  18  19
ENDBRANCH   2  18
TORSDOF 6
