REMARK  Name = ZINC17070353
REMARK  9 active torsions:
REMARK  status: ('A' for Active; 'I' for Inactive)
REMARK    1  A    between atoms: C_1  and  C_2
REMARK    2  A    between atoms: C_2  and  C_3
REMARK    3  A    between atoms: C_6  and  N_9
REMARK    4  A    between atoms: C_10  and  C_27
REMARK    5  A    between atoms: C_11  and  C_14
REMARK    6  A    between atoms: N_16  and  C_17
REMARK    7  A    between atoms: C_21  and  C_23
REMARK    8  A    between atoms: C_23  and  C_25
REMARK    9  A    between atoms: C_23  and  O_26
REMARK                            x       y       z     vdW  Elec       q    Type
REMARK                         _______ _______ _______ _____ _____    ______ ____
ROOT
ATOM      1  N   UNL     1       0.294  -0.912  -1.127  0.00  0.00    -0.216 N 
ATOM      2  C   UNL     1       0.477  -0.046  -0.106  0.00  0.00    +0.074 A 
ATOM      3  C   UNL     1       0.362  -0.767   1.049  0.00  0.00    +0.170 A 
ATOM      4  N   UNL     1       0.120  -2.050   0.727  0.00  0.00    -0.124 NA
ATOM      5  N   UNL     1       0.076  -2.173  -0.553  0.00  0.00    -0.060 NA
ATOM      6  C   UNL     1       0.749   1.432  -0.220  0.00  0.00    +0.068 C 
ENDROOT
BRANCH   1  10
ATOM      7  C   UNL     1       0.372  -0.012  -5.197  0.00  0.00    -0.047 A 
ATOM      8  C   UNL     1       1.306   0.552  -4.347  0.00  0.00    +0.006 A 
ATOM      9  C   UNL     1       1.283   0.255  -2.998  0.00  0.00    +0.028 A 
ATOM     10  C   UNL     1       0.320  -0.609  -2.496  0.00  0.00    +0.067 A 
ATOM     11  C   UNL     1      -0.613  -1.178  -3.352  0.00  0.00    +0.028 A 
ATOM     12  C   UNL     1      -0.588  -0.874  -4.699  0.00  0.00    +0.006 A 
BRANCH   7  14
ATOM     13  C   UNL     1       1.293  -0.694  -7.396  0.00  0.00    +0.009 C 
ATOM     14  C   UNL     1       0.401   0.313  -6.668  0.00  0.00    +0.032 C 
ENDBRANCH   7  14
ENDBRANCH   1  10
BRANCH   3  15
ATOM     15  C   UNL     1       0.484  -0.229   2.416  0.00  0.00    +0.270 C 
ATOM     16  O   UNL     1       0.706   0.954   2.587  0.00  0.00    -0.268 OA
ATOM     17  N   UNL     1       0.349  -1.049   3.478  0.00  0.00    -0.280 N 
ATOM     18  H   UNL     1       0.244  -2.004   3.342  0.00  0.00    +0.155 HD
BRANCH  17  19
ATOM     19  C   UNL     1       0.362  -0.524   4.774  0.00  0.00    +0.034 A 
ATOM     20  C   UNL     1       0.902  -1.262   5.819  0.00  0.00    +0.023 A 
ATOM     21  C   UNL     1       0.919  -0.738   7.096  0.00  0.00    +0.002 A 
ATOM     22  C   UNL     1       0.387   0.516   7.337  0.00  0.00    +0.006 A 
ATOM     23  C   UNL     1      -0.157   1.251   6.300  0.00  0.00    -0.018 A 
ATOM     24  C   UNL     1      -0.171   0.735   5.019  0.00  0.00    +0.029 A 
BRANCH  23  25
ATOM     25  C   UNL     1      -0.735   2.617   6.568  0.00  0.00    +0.141 C 
ATOM     26  C   UNL     1       0.383   3.661   6.527  0.00  0.00    +0.043 C 
BRANCH  25  27
ATOM     27  O   UNL     1      -1.351   2.629   7.857  0.00  0.00    -0.387 OA
ATOM     28  H   UNL     1      -1.746   3.479   8.096  0.00  0.00    +0.210 HD
ENDBRANCH  25  27
ENDBRANCH  23  25
ENDBRANCH  17  19
ENDBRANCH   3  15
TORSDOF 6
