REMARK  Name = ZINC54945598
REMARK  12 active torsions:
REMARK  status: ('A' for Active; 'I' for Inactive)
REMARK    1  A    between atoms: C_1  and  C_2
REMARK    2  A    between atoms: C_5  and  C_30
REMARK    3  A    between atoms: N_8  and  C_10
REMARK    4  A    between atoms: C_10  and  C_11
REMARK    5  A    between atoms: C_10  and  C_12
REMARK    6  A    between atoms: C_10  and  C_13
REMARK    7  A    between atoms: C_13  and  N_14
REMARK    8  A    between atoms: C_15  and  C_17
REMARK    9  A    between atoms: N_19  and  C_20
REMARK   10  A    between atoms: C_23  and  O_26
REMARK   11  A    between atoms: O_26  and  C_27
REMARK   12  A    between atoms: C_27  and  C_28
REMARK                            x       y       z     vdW  Elec       q    Type
REMARK                         _______ _______ _______ _____ _____    ______ ____
ROOT
ATOM      1  N   UNL     1       3.483  -2.413   0.917  0.00  0.00    -0.309 N 
ATOM      2  C   UNL     1       4.771  -2.201   0.583  0.00  0.00    +0.299 C 
ATOM      3  O   UNL     1       5.532  -1.700   1.385  0.00  0.00    -0.265 OA
ATOM      4  H   UNL     1       2.875  -2.814   0.275  0.00  0.00    +0.149 HD
ENDROOT
BRANCH   2   5
ATOM      5  C   UNL     1       5.263  -2.583  -0.775  0.00  0.00    +0.303 C 
ATOM      6  O   UNL     1       4.503  -3.084  -1.577  0.00  0.00    -0.265 OA
ATOM      7  N   UNL     1       6.552  -2.370  -1.109  0.00  0.00    -0.278 N 
ATOM      8  H   UNL     1       7.144  -1.912  -0.492  0.00  0.00    +0.155 HD
BRANCH   7   9
ATOM      9  C   UNL     1       7.035  -2.811  -2.345  0.00  0.00    +0.034 A 
ATOM     10  C   UNL     1       6.220  -2.758  -3.469  0.00  0.00    +0.027 A 
ATOM     11  C   UNL     1       6.699  -3.193  -4.689  0.00  0.00    +0.047 A 
ATOM     12  C   UNL     1       7.993  -3.682  -4.793  0.00  0.00    +0.122 A 
ATOM     13  C   UNL     1       8.807  -3.736  -3.671  0.00  0.00    +0.047 A 
ATOM     14  C   UNL     1       8.332  -3.296  -2.451  0.00  0.00    +0.027 A 
BRANCH  12  15
ATOM     15  O   UNL     1       8.463  -4.110  -5.995  0.00  0.00    -0.477 OA
BRANCH  15  16
ATOM     16  C   UNL     1       9.804  -4.602  -6.029  0.00  0.00    +0.346 C 
BRANCH  16  17
ATOM     17  C   UNL     1      10.140  -5.018  -7.401  0.00  0.00    +0.104 C 
ATOM     18  N   UNL     1      10.398  -5.338  -8.459  0.00  0.00    -0.193 NA
ENDBRANCH  16  17
ENDBRANCH  15  16
ENDBRANCH  12  15
ENDBRANCH   7   9
ENDBRANCH   2   5
BRANCH   1  19
ATOM     19  C   UNL     1       3.001  -2.039   2.248  0.00  0.00    +0.092 C 
BRANCH  19  20
ATOM     20  C   UNL     1       1.544  -2.481   2.406  0.00  0.00    -0.055 C 
ATOM     21  C   UNL     1       1.015  -2.018   3.765  0.00  0.00    -0.008 C 
ATOM     22  C   UNL     1       1.461  -4.006   2.318  0.00  0.00    -0.008 C 
BRANCH  20  28
ATOM     23  C   UNL     1       0.165   1.728   0.319  0.00  0.00    +0.005 C 
ATOM     24  C   UNL     1       0.059   0.203   0.243  0.00  0.00    -0.031 C 
ATOM     25  C   UNL     1      -1.412  -0.212   0.339  0.00  0.00    +0.003 C 
ATOM     26  C   UNL     1      -1.502  -1.741   0.342  0.00  0.00    -0.031 C 
ATOM     27  C   UNL     1      -0.667  -2.293   1.499  0.00  0.00    -0.075 C 
ATOM     28  N   UNL     1       0.733  -1.884   1.336  0.00  0.00    +0.384 N 
ATOM     29  C   UNL     1       0.837  -0.421   1.404  0.00  0.00    -0.075 C 
ATOM     30  C   UNL     1      -0.965  -2.286  -0.983  0.00  0.00    +0.005 C 
ATOM     31  H   UNL     1       1.074  -2.202   0.441  0.00  0.00    -0.081 HD
ENDBRANCH  20  28
ENDBRANCH  19  20
ENDBRANCH   1  19
TORSDOF 8
