REMARK  Name = ZINC23704178
REMARK  8 active torsions:
REMARK  status: ('A' for Active; 'I' for Inactive)
REMARK    1  A    between atoms: C_1  and  C_2
REMARK    2  A    between atoms: C_4  and  C_26
REMARK    3  A    between atoms: N_9  and  C_10
REMARK    4  A    between atoms: C_10  and  C_11
REMARK    5  A    between atoms: C_15  and  C_17
REMARK    6  A    between atoms: C_20  and  O_25
REMARK    7  A    between atoms: C_21  and  O_23
REMARK    8  A    between atoms: O_23  and  C_24
REMARK                            x       y       z     vdW  Elec       q    Type
REMARK                         _______ _______ _______ _____ _____    ______ ____
ROOT
ATOM      1  C   UNL     1       7.107  -3.311  -0.392  0.00  0.00    +0.044 C 
ATOM      2  C   UNL     1       5.880  -2.480  -0.118  0.00  0.00    -0.049 A 
ATOM      3  C   UNL     1       4.665  -3.102   0.120  0.00  0.00    +0.010 A 
ATOM      4  C   UNL     1       3.531  -2.356   0.372  0.00  0.00    -0.007 A 
ATOM      5  C   UNL     1       3.604  -0.969   0.390  0.00  0.00    +0.140 A 
ATOM      6  C   UNL     1       4.835  -0.343   0.149  0.00  0.00    +0.041 A 
ATOM      7  C   UNL     1       5.971  -1.104  -0.104  0.00  0.00    +0.017 A 
ATOM      8  C   UNL     1       4.888   1.137   0.173  0.00  0.00    +0.050 A 
ATOM      9  N   UNL     1       6.012   1.785  -0.044  0.00  0.00    -0.374 N 
ATOM     10  C   UNL     1       3.672   1.830   0.437  0.00  0.00    +0.072 A 
ATOM     11  C   UNL     1       2.538   1.122   0.661  0.00  0.00    +0.138 A 
ATOM     12  O   UNL     1       2.506  -0.222   0.635  0.00  0.00    -0.454 OA
ATOM     13  C   UNL     1       2.216  -3.046   0.628  0.00  0.00    +0.047 C 
ATOM     14  H   UNL     1       6.956   1.230  -0.147  0.00  0.00    +0.160 HD
ENDROOT
BRANCH  11  15
ATOM     15  C   UNL     1       1.288   1.855   0.939  0.00  0.00    +0.021 A 
ATOM     16  C   UNL     1       1.289   3.252   0.973  0.00  0.00    +0.015 A 
ATOM     17  C   UNL     1       0.120   3.936   1.233  0.00  0.00    +0.050 A 
ATOM     18  C   UNL     1      -1.058   3.240   1.460  0.00  0.00    +0.158 A 
ATOM     19  C   UNL     1      -1.067   1.846   1.423  0.00  0.00    +0.162 A 
ATOM     20  C   UNL     1       0.102   1.155   1.168  0.00  0.00    +0.061 A 
BRANCH  19  21
ATOM     21  O   UNL     1      -2.225   1.168   1.641  0.00  0.00    -0.491 OA
ATOM     22  C   UNL     1      -2.160  -0.259   1.592  0.00  0.00    +0.277 C 
ENDBRANCH  19  21
BRANCH  18  23
ATOM     23  O   UNL     1      -2.208   3.918   1.716  0.00  0.00    -0.503 OA
ATOM     24  H   UNL     1      -3.143   3.367   1.897  0.00  0.00    +0.292 HD
ENDBRANCH  18  23
ENDBRANCH  11  15
BRANCH   9  25
ATOM     25  C   UNL     1       6.006   3.246  -0.148  0.00  0.00    +0.238 C 
BRANCH  25  26
ATOM     26  C   UNL     1       6.778   3.835   1.005  0.00  0.00    +0.375 C 
ATOM     27  O   UNL     1       7.280   3.108   1.829  0.00  0.00    -0.244 OA
ATOM     28  O   UNL     1       6.906   5.167   1.116  0.00  0.00    -0.244 OA
ENDBRANCH  25  26
ENDBRANCH   9  25
TORSDOF 5
