REMARK  Name = ZINC59203404
REMARK  9 active torsions:
REMARK  status: ('A' for Active; 'I' for Inactive)
REMARK    1  A    between atoms: C_1  and  C_2
REMARK    2  A    between atoms: C_5  and  N_8
REMARK    3  A    between atoms: C_14  and  S_15
REMARK    4  A    between atoms: S_15  and  C_16
REMARK    5  A    between atoms: C_16  and  C_17
REMARK    6  A    between atoms: N_19  and  C_20
REMARK    7  A    between atoms: C_23  and  C_26
REMARK    8  A    between atoms: C_26  and  C_27
REMARK    9  A    between atoms: C_26  and  C_28
REMARK                            x       y       z     vdW  Elec       q    Type
REMARK                         _______ _______ _______ _____ _____    ______ ____
ROOT
ATOM      1  N   UNL     1       0.013  -4.175  -0.017  0.00  0.00    -0.256 N 
ATOM      2  C   UNL     1      -0.090  -4.845  -1.184  0.00  0.00    +0.263 A 
ATOM      3  O   UNL     1      -0.198  -4.240  -2.240  0.00  0.00    -0.267 OA
ATOM      4  C   UNL     1      -0.071  -6.244  -1.164  0.00  0.00    +0.142 A 
ATOM      5  C   UNL     1       0.053  -6.892   0.054  0.00  0.00    +0.278 A 
ATOM      6  N   UNL     1       0.152  -6.178   1.179  0.00  0.00    -0.184 NA
ATOM      7  C   UNL     1       0.139  -4.861   1.155  0.00  0.00    +0.180 A 
ATOM      8  O   UNL     1       0.074  -8.244   0.104  0.00  0.00    -0.266 OA
ENDROOT
BRANCH   1  13
ATOM      9  C   UNL     1      -0.051   1.500   0.009  0.00  0.00    +0.044 C 
ATOM     10  C   UNL     1      -0.034  -0.007   0.002  0.00  0.00    -0.050 A 
ATOM     11  C   UNL     1       1.010  -0.683  -0.603  0.00  0.00    +0.005 A 
ATOM     12  C   UNL     1       1.028  -2.064  -0.611  0.00  0.00    +0.026 A 
ATOM     13  C   UNL     1      -0.002  -2.774  -0.010  0.00  0.00    +0.052 A 
ATOM     14  C   UNL     1      -1.049  -2.093   0.597  0.00  0.00    +0.026 A 
ATOM     15  C   UNL     1      -1.059  -0.712   0.606  0.00  0.00    +0.005 A 
ENDBRANCH   1  13
BRANCH   7  16
ATOM     16  S   UNL     1       0.280  -3.968   2.668  0.00  0.00    -0.078 S 
BRANCH  16  17
ATOM     17  C   UNL     1       0.422  -5.263   3.930  0.00  0.00    +0.173 C 
BRANCH  17  18
ATOM     18  C   UNL     1       0.551  -4.626   5.290  0.00  0.00    +0.227 C 
ATOM     19  O   UNL     1       0.547  -3.418   5.397  0.00  0.00    -0.275 OA
ATOM     20  N   UNL     1       0.670  -5.400   6.388  0.00  0.00    -0.285 N 
ATOM     21  H   UNL     1       0.753  -6.362   6.296  0.00  0.00    +0.155 HD
BRANCH  20  22
ATOM     22  C   UNL     1       0.674  -4.815   7.659  0.00  0.00    +0.033 A 
ATOM     23  C   UNL     1       1.460  -5.352   8.670  0.00  0.00    +0.023 A 
ATOM     24  C   UNL     1       1.461  -4.772   9.923  0.00  0.00    +0.006 A 
ATOM     25  C   UNL     1       0.681  -3.658  10.172  0.00  0.00    -0.045 A 
ATOM     26  C   UNL     1      -0.103  -3.120   9.168  0.00  0.00    +0.006 A 
ATOM     27  C   UNL     1      -0.104  -3.692   7.910  0.00  0.00    +0.023 A 
BRANCH  25  28
ATOM     28  C   UNL     1       0.685  -3.028  11.541  0.00  0.00    +0.013 C 
ATOM     29  C   UNL     1       1.163  -1.578  11.434  0.00  0.00    +0.012 C 
ATOM     30  C   UNL     1      -0.731  -3.057  12.120  0.00  0.00    +0.012 C 
ENDBRANCH  25  28
ENDBRANCH  20  22
ENDBRANCH  17  18
ENDBRANCH  16  17
ENDBRANCH   7  16
TORSDOF 6
