REMARK  Name = ZINC58868038
REMARK  8 active torsions:
REMARK  status: ('A' for Active; 'I' for Inactive)
REMARK    1  A    between atoms: C_1  and  C_2
REMARK    2  A    between atoms: C_3  and  C_7
REMARK    3  A    between atoms: N_9  and  C_10
REMARK    4  A    between atoms: C_10  and  C_11
REMARK    5  A    between atoms: N_13  and  N_14
REMARK    6  A    between atoms: N_14  and  C_15
REMARK    7  A    between atoms: C_15  and  N_17
REMARK    8  A    between atoms: N_17  and  C_18
REMARK                            x       y       z     vdW  Elec       q    Type
REMARK                         _______ _______ _______ _____ _____    ______ ____
ROOT
ATOM      1  C   UNL     1      -5.763  -2.097   0.077  0.00  0.00    +0.246 C 
ATOM      2  O   UNL     1      -5.245  -3.169  -0.154  0.00  0.00    -0.273 OA
ATOM      3  N   UNL     1      -7.106  -1.982   0.068  0.00  0.00    -0.234 N 
ATOM      4  H   UNL     1      -7.520  -1.124   0.253  0.00  0.00    +0.173 HD
ENDROOT
BRANCH   3   5
ATOM      5  N   UNL     1      -7.904  -3.100  -0.207  0.00  0.00    -0.246 N 
ATOM      6  H   UNL     1      -7.489  -3.958  -0.392  0.00  0.00    +0.172 HD
BRANCH   5   7
ATOM      7  C   UNL     1      -9.246  -2.985  -0.216  0.00  0.00    +0.151 C 
ATOM      8  S   UNL     1     -10.221  -4.352  -0.552  0.00  0.00    -0.017 S 
BRANCH   7   9
ATOM      9  N   UNL     1      -9.822  -1.794   0.041  0.00  0.00    -0.294 N 
ATOM     10  H   UNL     1      -9.274  -1.034   0.293  0.00  0.00    +0.154 HD
BRANCH   9  11
ATOM     11  C   UNL     1     -11.213  -1.652  -0.057  0.00  0.00    +0.068 A 
ATOM     12  C   UNL     1     -12.050  -2.589   0.532  0.00  0.00    +0.029 A 
ATOM     13  C   UNL     1     -13.421  -2.447   0.435  0.00  0.00    +0.040 A 
ATOM     14  C   UNL     1     -13.961  -1.372  -0.250  0.00  0.00    +0.126 A 
ATOM     15  C   UNL     1     -13.129  -0.435  -0.840  0.00  0.00    +0.078 A 
ATOM     16  C   UNL     1     -11.756  -0.570  -0.740  0.00  0.00    +0.147 A 
ATOM     17  F   UNL     1     -10.944   0.347  -1.311  0.00  0.00    -0.203 F 
ATOM     18  F   UNL     1     -15.302  -1.237  -0.344  0.00  0.00    -0.205 F 
ENDBRANCH   9  11
ENDBRANCH   7   9
ENDBRANCH   5   7
ENDBRANCH   3   5
BRANCH   1  19
ATOM     19  C   UNL     1      -4.906  -0.894   0.373  0.00  0.00    +0.202 C 
BRANCH  19  22
ATOM     20  C   UNL     1      -2.536  -0.357   0.557  0.00  0.00    +0.248 C 
ATOM     21  O   UNL     1      -2.846   0.791   0.810  0.00  0.00    -0.270 OA
ATOM     22  N   UNL     1      -3.493  -1.277   0.322  0.00  0.00    -0.303 N 
ATOM     23  H   UNL     1      -3.245  -2.193   0.120  0.00  0.00    +0.150 HD
BRANCH  20  26
ATOM     24  C   UNL     1      -0.080   1.532   1.050  0.00  0.00    +0.087 C 
ATOM     25  C   UNL     1      -0.034   0.062   0.717  0.00  0.00    +0.114 A 
ATOM     26  C   UNL     1      -1.114  -0.743   0.506  0.00  0.00    +0.077 A 
ATOM     27  C   UNL     1      -0.565  -2.075   0.217  0.00  0.00    +0.054 A 
ATOM     28  C   UNL     1       0.769  -1.946   0.281  0.00  0.00    +0.196 A 
ATOM     29  O   UNL     1       1.074  -0.672   0.574  0.00  0.00    -0.467 OA
ENDBRANCH  20  26
ENDBRANCH  19  22
ENDBRANCH   1  19
TORSDOF 7
