REMARK  Name = ZINC21981373
REMARK  12 active torsions:
REMARK  status: ('A' for Active; 'I' for Inactive)
REMARK    1  A    between atoms: C_1  and  C_2
REMARK    2  A    between atoms: C_2  and  C_3
REMARK    3  A    between atoms: C_3  and  C_4
REMARK    4  A    between atoms: C_10  and  C_12
REMARK    5  A    between atoms: C_14  and  S_21
REMARK    6  A    between atoms: C_17  and  O_18
REMARK    7  A    between atoms: O_18  and  C_19
REMARK    8  A    between atoms: C_19  and  C_20
REMARK    9  A    between atoms: S_21  and  N_24
REMARK   10  A    between atoms: N_27  and  C_30
REMARK   11  A    between atoms: C_30  and  C_31
REMARK   12  A    between atoms: N_32  and  C_34
REMARK                            x       y       z     vdW  Elec       q    Type
REMARK                         _______ _______ _______ _____ _____    ______ ____
ROOT
ATOM      1  C   UNL     1       2.288  -0.529   4.272  0.00  0.00    +0.061 A 
ATOM      2  C   UNL     1       1.216  -0.482   3.379  0.00  0.00    +0.043 A 
ATOM      3  C   UNL     1       0.217   0.452   3.553  0.00  0.00    +0.106 A 
ATOM      4  C   UNL     1       0.267   1.337   4.617  0.00  0.00    +0.032 A 
ATOM      5  C   UNL     1       1.319   1.297   5.510  0.00  0.00    +0.048 A 
ATOM      6  C   UNL     1       2.335   0.368   5.346  0.00  0.00    +0.131 A 
ENDROOT
BRANCH   1  13
ATOM      7  C   UNL     1       6.531  -2.701   5.556  0.00  0.00    +0.087 A 
ATOM      8  C   UNL     1       5.362  -2.441   4.814  0.00  0.00    +0.095 A 
ATOM      9  C   UNL     1       5.343  -3.352   3.750  0.00  0.00    +0.151 A 
ATOM     10  C   UNL     1       4.264  -3.310   2.837  0.00  0.00    +0.299 A 
ATOM     11  O   UNL     1       4.211  -4.085   1.897  0.00  0.00    -0.263 OA
ATOM     12  N   UNL     1       3.292  -2.392   3.033  0.00  0.00    -0.189 NA
ATOM     13  C   UNL     1       3.364  -1.524   4.087  0.00  0.00    +0.146 A 
ATOM     14  N   UNL     1       4.358  -1.551   4.942  0.00  0.00    -0.336 N 
ATOM     15  N   UNL     1       6.466  -4.123   3.864  0.00  0.00    -0.260 N 
ATOM     16  N   UNL     1       7.173  -3.689   4.993  0.00  0.00    -0.174 NA
ATOM     17  C   UNL     1       6.861  -5.210   2.965  0.00  0.00    +0.173 C 
ATOM     18  H   UNL     1       4.363  -0.832   5.775  0.00  0.00    +0.167 HD
BRANCH   7  19
ATOM     19  C   UNL     1       6.967  -1.962   6.795  0.00  0.00    +0.059 C 
BRANCH  19  21
ATOM     20  C   UNL     1       6.830  -1.900   9.289  0.00  0.00    +0.004 C 
ATOM     21  C   UNL     1       6.387  -2.651   8.031  0.00  0.00    +0.003 C 
ENDBRANCH  19  21
ENDBRANCH   7  19
ENDBRANCH   1  13
BRANCH   3  22
ATOM     22  S   UNL     1      -1.132   0.515   2.422  0.00  0.00    +0.061 S 
ATOM     23  O   UNL     1      -2.217   1.114   3.117  0.00  0.00    -0.153 OA
ATOM     24  O   UNL     1      -1.225  -0.773   1.829  0.00  0.00    -0.153 OA
BRANCH  22  25
ATOM     25  N   UNL     1      -0.709   1.564   1.212  0.00  0.00    -0.180 NA
ATOM     26  C   UNL     1      -0.013   1.086   0.008  0.00  0.00    +0.091 C 
ATOM     27  C   UNL     1      -0.762   1.597  -1.227  0.00  0.00    -0.061 C 
ATOM     28  N   UNL     1      -0.913   3.056  -1.135  0.00  0.00    +0.381 N 
ATOM     29  C   UNL     1      -1.732   3.434   0.024  0.00  0.00    -0.061 C 
ATOM     30  C   UNL     1      -1.023   2.998   1.310  0.00  0.00    +0.091 C 
ATOM     31  H   UNL     1       0.089   3.487  -0.993  0.00  0.00    -0.082 HD
BRANCH  28  32
ATOM     32  C   UNL     1      -1.472   3.606  -2.377  0.00  0.00    -0.082 C 
ATOM     33  C   UNL     1      -1.847   5.074  -2.161  0.00  0.00    -0.017 C 
ENDBRANCH  28  32
ENDBRANCH  22  25
ENDBRANCH   3  22
BRANCH   6  34
ATOM     34  O   UNL     1       3.370   0.328   6.223  0.00  0.00    -0.492 OA
BRANCH  34  35
ATOM     35  C   UNL     1       3.350   1.274   7.294  0.00  0.00    +0.226 C 
ATOM     36  C   UNL     1       4.588   1.077   8.171  0.00  0.00    +0.048 C 
ENDBRANCH  34  35
ENDBRANCH   6  34
TORSDOF 8
