REMARK  Name = ZINC66405044
REMARK  9 active torsions:
REMARK  status: ('A' for Active; 'I' for Inactive)
REMARK    1  A    between atoms: C_1  and  C_2
REMARK    2  A    between atoms: C_7  and  C_8
REMARK    3  A    between atoms: C_8  and  C_10
REMARK    4  A    between atoms: C_8  and  N_12
REMARK    5  A    between atoms: C_13  and  C_15
REMARK    6  A    between atoms: C_15  and  N_16
REMARK    7  A    between atoms: C_21  and  C_28
REMARK    8  A    between atoms: C_24  and  C_26
REMARK    9  A    between atoms: C_24  and  C_27
REMARK                            x       y       z     vdW  Elec       q    Type
REMARK                         _______ _______ _______ _____ _____    ______ ____
ROOT
ATOM      1  N   UNL     1       2.367  -0.231   6.749  0.00  0.00    -0.215 N 
ATOM      2  C   UNL     1       3.636   0.232   6.777  0.00  0.00    +0.247 C 
ATOM      3  O   UNL     1       4.544  -0.117   6.053  0.00  0.00    -0.273 OA
ATOM      4  C   UNL     1       3.668   1.252   7.889  0.00  0.00    +0.113 C 
ATOM      5  C   UNL     1       4.829   0.990   8.835  0.00  0.00    +0.038 C 
ATOM      6  C   UNL     1       6.148   1.380   8.165  0.00  0.00    -0.011 C 
ATOM      7  C   UNL     1       6.117   2.876   7.862  0.00  0.00    +0.009 C 
ATOM      8  C   UNL     1       4.987   3.216   6.898  0.00  0.00    -0.032 C 
ATOM      9  C   UNL     1       3.645   2.671   7.356  0.00  0.00    +0.041 C 
ATOM     10  C   UNL     1       4.877   4.755   6.825  0.00  0.00    +0.011 C 
ATOM     11  C   UNL     1       5.325   2.713   5.492  0.00  0.00    +0.011 C 
ATOM     12  C   UNL     1       7.308   1.079   9.119  0.00  0.00    +0.007 C 
ATOM     13  N   UNL     1       2.399   0.996   8.608  0.00  0.00    -0.285 N 
ATOM     14  C   UNL     1       1.682   0.170   7.826  0.00  0.00    +0.310 C 
ATOM     15  O   UNL     1       0.542  -0.175   8.069  0.00  0.00    -0.252 OA
ATOM     16  H   UNL     1       2.150   1.359   9.469  0.00  0.00    +0.151 HD
ENDROOT
BRANCH   1  17
ATOM     17  C   UNL     1       1.822  -1.083   5.691  0.00  0.00    +0.213 C 
BRANCH  17  19
ATOM     18  N   UNL     1       0.630  -0.793   3.543  0.00  0.00    -0.295 N 
ATOM     19  C   UNL     1       1.199  -0.221   4.623  0.00  0.00    +0.232 C 
ATOM     20  O   UNL     1       1.211   0.986   4.735  0.00  0.00    -0.274 OA
ATOM     21  H   UNL     1       0.621  -1.758   3.453  0.00  0.00    +0.150 HD
BRANCH  18  22
ATOM     22  C   UNL     1       0.025   0.045   2.504  0.00  0.00    +0.207 C 
BRANCH  22  29
ATOM     23  C   UNL     1      -0.018   1.503   0.010  0.00  0.00    +0.044 C 
ATOM     24  C   UNL     1       0.002  -0.004   0.002  0.00  0.00    -0.045 A 
ATOM     25  C   UNL     1       0.006  -0.689  -1.199  0.00  0.00    +0.004 A 
ATOM     26  C   UNL     1       0.025  -2.071  -1.207  0.00  0.00    +0.000 A 
ATOM     27  C   UNL     1       0.040  -2.768  -0.013  0.00  0.00    +0.000 A 
ATOM     28  C   UNL     1       0.037  -2.084   1.188  0.00  0.00    +0.007 A 
ATOM     29  C   UNL     1       0.023  -0.702   1.195  0.00  0.00    -0.010 A 
ENDBRANCH  22  29
BRANCH  22  30
ATOM     30  C   UNL     1      -1.358   0.374   2.884  0.00  0.00    +0.090 C 
ATOM     31  N   UNL     1      -2.426   0.628   3.177  0.00  0.00    -0.194 NA
ENDBRANCH  22  30
ENDBRANCH  18  22
ENDBRANCH  17  19
ENDBRANCH   1  17
TORSDOF 5
