REMARK  Name = ZINC40261895
REMARK  4 active torsions:
REMARK  status: ('A' for Active; 'I' for Inactive)
REMARK    1  A    between atoms: C_1  and  C_2
REMARK    2  A    between atoms: C_7  and  C_12
REMARK    3  A    between atoms: C_12  and  C_14
REMARK    4  A    between atoms: C_12  and  O_23
REMARK                            x       y       z     vdW  Elec       q    Type
REMARK                         _______ _______ _______ _____ _____    ______ ____
ROOT
ATOM      1  C   UNL     1      -2.468  -5.106   2.288  0.00  0.00    +0.175 C 
ENDROOT
BRANCH   1   7
ATOM      2  C   UNL     1      -0.019   1.526   0.010  0.00  0.00    +0.052 C 
ATOM      3  C   UNL     1       0.002  -0.004   0.002  0.00  0.00    +0.175 C 
ATOM      4  C   UNL     1      -1.435  -0.572   0.076  0.00  0.00    +0.083 C 
ATOM      5  C   UNL     1      -1.242  -1.802   0.942  0.00  0.00    -0.002 A 
ATOM      6  C   UNL     1      -2.037  -2.901   1.177  0.00  0.00    +0.013 A 
ATOM      7  C   UNL     1      -1.600  -3.902   2.027  0.00  0.00    -0.014 A 
ATOM      8  C   UNL     1      -0.364  -3.793   2.637  0.00  0.00    +0.010 A 
ATOM      9  C   UNL     1       0.433  -2.692   2.405  0.00  0.00    +0.046 A 
ATOM     10  C   UNL     1      -0.001  -1.678   1.554  0.00  0.00    +0.124 A 
ATOM     11  O   UNL     1       0.612  -0.512   1.201  0.00  0.00    -0.488 OA
ENDBRANCH   1   7
BRANCH   1  12
ATOM     12  C   UNL     1      -3.269  -4.885   3.545  0.00  0.00    -0.011 A 
ATOM     13  C   UNL     1      -2.681  -5.077   4.781  0.00  0.00    +0.010 A 
ATOM     14  C   UNL     1      -3.411  -4.875   5.937  0.00  0.00    +0.050 A 
ATOM     15  C   UNL     1      -4.737  -4.479   5.859  0.00  0.00    +0.166 A 
ATOM     16  C   UNL     1      -5.330  -4.285   4.614  0.00  0.00    +0.167 A 
ATOM     17  C   UNL     1      -4.590  -4.484   3.460  0.00  0.00    +0.056 A 
ATOM     18  O   UNL     1      -6.626  -3.902   4.804  0.00  0.00    -0.453 OA
ATOM     19  C   UNL     1      -6.937  -4.258   6.164  0.00  0.00    +0.466 C 
ATOM     20  O   UNL     1      -5.661  -4.217   6.829  0.00  0.00    -0.453 OA
ENDBRANCH   1  12
BRANCH   1  21
ATOM     21  O   UNL     1      -1.644  -6.262   2.445  0.00  0.00    -0.383 OA
ATOM     22  H   UNL     1      -1.015  -6.200   3.177  0.00  0.00    +0.211 HD
ENDBRANCH   1  21
TORSDOF 3
