REMARK  Name = ZINC36120174
REMARK  9 active torsions:
REMARK  status: ('A' for Active; 'I' for Inactive)
REMARK    1  A    between atoms: C_1  and  C_2
REMARK    2  A    between atoms: C_5  and  O_8
REMARK    3  A    between atoms: O_8  and  C_9
REMARK    4  A    between atoms: C_9  and  C_10
REMARK    5  A    between atoms: C_20  and  C_22
REMARK    6  A    between atoms: C_22  and  N_23
REMARK    7  A    between atoms: N_23  and  C_24
REMARK    8  A    between atoms: C_24  and  C_25
REMARK    9  A    between atoms: C_28  and  C_30
REMARK                            x       y       z     vdW  Elec       q    Type
REMARK                         _______ _______ _______ _____ _____    ______ ____
ROOT
ATOM      1  C   UNL     1       0.799  -6.702  -1.059  0.00  0.00    +0.144 C 
ATOM      2  C   UNL     1       0.136  -7.189  -2.347  0.00  0.00    -0.014 A 
ATOM      3  C   UNL     1      -1.244  -7.320  -2.493  0.00  0.00    +0.013 A 
ATOM      4  C   UNL     1      -1.762  -7.754  -3.665  0.00  0.00    +0.046 A 
ATOM      5  S   UNL     1      -0.291  -8.005  -4.647  0.00  0.00    -0.101 S 
ATOM      6  C   UNL     1       0.899  -7.518  -3.425  0.00  0.00    -0.004 A 
ATOM      7  C   UNL     1       2.388  -7.480  -3.542  0.00  0.00    +0.061 C 
ATOM      8  C   UNL     1       2.951  -6.627  -2.395  0.00  0.00    +0.114 C 
ATOM      9  N   UNL     1       2.237  -6.985  -1.159  0.00  0.00    -0.289 N 
ATOM     10  C   UNL     1       2.892  -7.564  -0.133  0.00  0.00    +0.234 C 
ATOM     11  O   UNL     1       2.295  -7.855   0.881  0.00  0.00    -0.274 OA
ENDROOT
BRANCH   1  12
ATOM     12  C   UNL     1       0.577  -5.197  -0.899  0.00  0.00    +0.256 C 
BRANCH  12  13
ATOM     13  O   UNL     1       1.027  -4.521  -2.074  0.00  0.00    -0.490 OA
BRANCH  13  18
ATOM     14  C   UNL     1       0.498   1.086  -2.161  0.00  0.00    +0.044 C 
ATOM     15  C   UNL     1       0.640  -0.414  -2.137  0.00  0.00    -0.050 A 
ATOM     16  C   UNL     1       1.186  -1.073  -3.224  0.00  0.00    +0.007 A 
ATOM     17  C   UNL     1       1.317  -2.448  -3.205  0.00  0.00    +0.046 A 
ATOM     18  C   UNL     1       0.900  -3.168  -2.095  0.00  0.00    +0.121 A 
ATOM     19  C   UNL     1       0.352  -2.505  -1.006  0.00  0.00    +0.046 A 
ATOM     20  C   UNL     1       0.229  -1.129  -1.028  0.00  0.00    +0.007 A 
ENDBRANCH  13  18
ENDBRANCH  12  13
ENDBRANCH   1  12
BRANCH  10  21
ATOM     21  C   UNL     1       4.368  -7.849  -0.246  0.00  0.00    +0.204 C 
BRANCH  21  22
ATOM     22  N   UNL     1       4.841  -8.476   0.991  0.00  0.00    -0.288 N 
ATOM     23  C   UNL     1       5.422  -7.725   1.947  0.00  0.00    +0.247 C 
ATOM     24  O   UNL     1       5.877  -8.254   2.942  0.00  0.00    -0.270 OA
BRANCH  23  25
ATOM     25  C   UNL     1       5.505  -6.258   1.786  0.00  0.00    +0.037 A 
ATOM     26  C   UNL     1       4.367  -5.526   1.442  0.00  0.00    +0.016 A 
ATOM     27  C   UNL     1       4.450  -4.158   1.293  0.00  0.00    +0.039 A 
ATOM     28  C   UNL     1       5.661  -3.510   1.484  0.00  0.00    +0.123 A 
ATOM     29  C   UNL     1       6.794  -4.232   1.826  0.00  0.00    +0.039 A 
ATOM     30  C   UNL     1       6.720  -5.600   1.984  0.00  0.00    +0.016 A 
ATOM     31  F   UNL     1       5.737  -2.169   1.336  0.00  0.00    -0.205 F 
ENDBRANCH  23  25
BRANCH  22  32
ATOM     32  C   UNL     1       4.682  -9.918   1.188  0.00  0.00    +0.112 C 
BRANCH  32  33
ATOM     33  C   UNL     1       5.969 -10.635   0.774  0.00  0.00    +0.006 C 
ATOM     34  C   UNL     1       5.890 -11.604  -0.407  0.00  0.00    +0.005 C 
ATOM     35  C   UNL     1       6.047 -12.143   1.016  0.00  0.00    +0.005 C 
ENDBRANCH  32  33
ENDBRANCH  22  32
ENDBRANCH  21  22
ENDBRANCH  10  21
TORSDOF 8
