REMARK  Name = ZINC64817061
REMARK  11 active torsions:
REMARK  status: ('A' for Active; 'I' for Inactive)
REMARK    1  A    between atoms: C_1  and  C_2
REMARK    2  A    between atoms: C_2  and  N_3
REMARK    3  A    between atoms: C_6  and  C_8
REMARK    4  A    between atoms: C_10  and  S_22
REMARK    5  A    between atoms: N_11  and  C_14
REMARK    6  A    between atoms: C_14  and  C_15
REMARK    7  A    between atoms: C_15  and  C_16
REMARK    8  A    between atoms: S_22  and  C_23
REMARK    9  A    between atoms: C_23  and  C_24
REMARK   10  A    between atoms: N_26  and  C_27
REMARK   11  A    between atoms: C_27  and  C_28
REMARK                            x       y       z     vdW  Elec       q    Type
REMARK                         _______ _______ _______ _____ _____    ______ ____
ROOT
ATOM      1  N   UNL     1       0.688  -0.476  -1.203  0.00  0.00    -0.257 N 
ATOM      2  C   UNL     1       0.102  -0.741  -2.413  0.00  0.00    +0.152 A 
ATOM      3  C   UNL     1       1.121  -1.166  -3.274  0.00  0.00    +0.119 A 
ATOM      4  C   UNL     1       2.320  -1.143  -2.537  0.00  0.00    +0.086 A 
ATOM      5  N   UNL     1       2.060  -0.732  -1.325  0.00  0.00    -0.174 NA
ATOM      6  C   UNL     1       3.680  -1.523  -3.062  0.00  0.00    +0.070 C 
ATOM      7  N   UNL     1       0.815  -1.497  -4.552  0.00  0.00    -0.220 NA
ATOM      8  C   UNL     1      -0.420  -1.425  -4.990  0.00  0.00    +0.173 A 
ATOM      9  N   UNL     1      -1.449  -1.017  -4.190  0.00  0.00    -0.286 N 
ATOM     10  C   UNL     1      -1.220  -0.671  -2.904  0.00  0.00    +0.280 A 
ATOM     11  O   UNL     1      -2.134  -0.306  -2.184  0.00  0.00    -0.265 OA
ENDROOT
BRANCH   1  13
ATOM     12  C   UNL     1      -0.019   1.526   0.010  0.00  0.00    +0.029 C 
ATOM     13  C   UNL     1       0.002  -0.004   0.002  0.00  0.00    +0.141 C 
ENDBRANCH   1  13
BRANCH   9  14
ATOM     14  C   UNL     1      -2.809  -0.953  -4.729  0.00  0.00    +0.132 C 
BRANCH  14  15
ATOM     15  C   UNL     1      -3.508  -2.297  -4.510  0.00  0.00    +0.057 C 
BRANCH  15  16
ATOM     16  C   UNL     1      -4.907  -2.232  -5.065  0.00  0.00    -0.046 A 
ATOM     17  C   UNL     1      -5.951  -1.814  -4.261  0.00  0.00    +0.004 A 
ATOM     18  C   UNL     1      -7.235  -1.754  -4.770  0.00  0.00    +0.000 A 
ATOM     19  C   UNL     1      -7.475  -2.112  -6.083  0.00  0.00    +0.000 A 
ATOM     20  C   UNL     1      -6.431  -2.529  -6.888  0.00  0.00    +0.000 A 
ATOM     21  C   UNL     1      -5.146  -2.584  -6.380  0.00  0.00    +0.004 A 
ENDBRANCH  15  16
ENDBRANCH  14  15
ENDBRANCH   9  14
BRANCH   8  22
ATOM     22  S   UNL     1      -0.761  -1.866  -6.662  0.00  0.00    -0.078 S 
BRANCH  22  23
ATOM     23  C   UNL     1       0.860  -2.332  -7.332  0.00  0.00    +0.173 C 
BRANCH  23  24
ATOM     24  C   UNL     1       0.709  -2.737  -8.775  0.00  0.00    +0.224 C 
ATOM     25  O   UNL     1      -0.385  -2.714  -9.300  0.00  0.00    -0.275 OA
ATOM     26  N   UNL     1       1.788  -3.126  -9.483  0.00  0.00    -0.310 N 
ATOM     27  H   UNL     1       2.662  -3.144  -9.062  0.00  0.00    +0.149 HD
BRANCH  26  28
ATOM     28  C   UNL     1       1.641  -3.519 -10.886  0.00  0.00    +0.141 C 
BRANCH  28  29
ATOM     29  C   UNL     1       2.987  -3.906 -11.443  0.00  0.00    -0.012 A 
ATOM     30  C   UNL     1       3.703  -3.006 -12.210  0.00  0.00    +0.006 A 
ATOM     31  C   UNL     1       4.937  -3.361 -12.720  0.00  0.00    +0.000 A 
ATOM     32  C   UNL     1       5.457  -4.616 -12.464  0.00  0.00    +0.001 A 
ATOM     33  C   UNL     1       4.743  -5.517 -11.697  0.00  0.00    +0.020 A 
ATOM     34  C   UNL     1       3.509  -5.160 -11.181  0.00  0.00    +0.046 A 
ATOM     35 CL   UNL     1       2.614  -6.289 -10.212  0.00  0.00    -0.083 Cl
ENDBRANCH  28  29
ENDBRANCH  26  28
ENDBRANCH  23  24
ENDBRANCH  22  23
ENDBRANCH   8  22
TORSDOF 9
