REMARK  Name = ZINC49929750
REMARK  9 active torsions:
REMARK  status: ('A' for Active; 'I' for Inactive)
REMARK    1  A    between atoms: C_1  and  C_2
REMARK    2  A    between atoms: C_2  and  C_3
REMARK    3  A    between atoms: N_11  and  C_15
REMARK    4  A    between atoms: C_15  and  C_16
REMARK    5  A    between atoms: N_18  and  C_19
REMARK    6  A    between atoms: C_19  and  C_20
REMARK    7  A    between atoms: C_20  and  N_26
REMARK    8  A    between atoms: N_26  and  C_27
REMARK    9  A    between atoms: N_26  and  C_28
REMARK                            x       y       z     vdW  Elec       q    Type
REMARK                         _______ _______ _______ _____ _____    ______ ____
ROOT
ATOM      1  C   UNL     1       5.319  -4.540   0.838  0.00  0.00    +0.213 C 
ENDROOT
BRANCH   1  10
ATOM      2  C   UNL     1       0.441  -0.934   0.843  0.00  0.00    -0.011 C 
ATOM      3  C   UNL     1       1.894  -0.454   0.823  0.00  0.00    +0.006 C 
ATOM      4  C   UNL     1       2.605  -0.930   2.092  0.00  0.00    +0.035 C 
ATOM      5  C   UNL     1       2.556  -2.452   2.165  0.00  0.00    +0.113 C 
ATOM      6  C   UNL     1       1.114  -2.947   2.160  0.00  0.00    +0.035 C 
ATOM      7  C   UNL     1       0.409  -2.463   0.891  0.00  0.00    +0.006 C 
ATOM      8  C   UNL     1       3.327  -3.061   1.017  0.00  0.00    +0.247 C 
ATOM      9  O   UNL     1       3.102  -2.934  -0.168  0.00  0.00    -0.273 OA
ATOM     10  N   UNL     1       4.320  -3.775   1.587  0.00  0.00    -0.215 N 
ATOM     11  C   UNL     1       4.277  -3.698   2.923  0.00  0.00    +0.310 C 
ATOM     12  O   UNL     1       5.067  -4.257   3.658  0.00  0.00    -0.252 OA
ATOM     13  N   UNL     1       3.260  -2.932   3.362  0.00  0.00    -0.285 N 
ATOM     14  H   UNL     1       3.037  -2.736   4.285  0.00  0.00    +0.151 HD
BRANCH   2  16
ATOM     15  C   UNL     1      -0.351   1.079  -0.406  0.00  0.00    +0.004 C 
ATOM     16  C   UNL     1      -0.274  -0.448  -0.420  0.00  0.00    -0.000 C 
ENDBRANCH   2  16
ENDBRANCH   1  10
BRANCH   1  17
ATOM     17  C   UNL     1       6.507  -3.660   0.542  0.00  0.00    +0.231 C 
ATOM     18  O   UNL     1       6.516  -2.507   0.919  0.00  0.00    -0.274 OA
ATOM     19  N   UNL     1       7.557  -4.154  -0.143  0.00  0.00    -0.315 N 
ATOM     20  H   UNL     1       7.549  -5.075  -0.445  0.00  0.00    +0.149 HD
BRANCH  19  21
ATOM     21  C   UNL     1       8.711  -3.299  -0.431  0.00  0.00    +0.092 C 
BRANCH  21  22
ATOM     22  C   UNL     1       9.813  -4.133  -1.086  0.00  0.00    -0.050 C 
ATOM     23  C   UNL     1      11.065  -3.272  -1.269  0.00  0.00    -0.010 C 
ATOM     24  C   UNL     1      10.733  -2.074  -2.161  0.00  0.00    -0.001 C 
ATOM     25  C   UNL     1      10.253  -2.571  -3.526  0.00  0.00    -0.000 C 
ATOM     26  C   UNL     1       9.002  -3.432  -3.343  0.00  0.00    -0.001 C 
ATOM     27  C   UNL     1       9.333  -4.630  -2.451  0.00  0.00    -0.010 C 
BRANCH  22  28
ATOM     28  N   UNL     1      10.132  -5.283  -0.230  0.00  0.00    +0.381 N 
ATOM     29  C   UNL     1      11.214  -6.065  -0.842  0.00  0.00    -0.096 C 
ATOM     30  C   UNL     1      10.559  -4.806   1.092  0.00  0.00    -0.096 C 
ATOM     31  H   UNL     1       9.313  -5.864  -0.129  0.00  0.00    -0.082 HD
ENDBRANCH  22  28
ENDBRANCH  21  22
ENDBRANCH  19  21
ENDBRANCH   1  17
TORSDOF 6
