REMARK  Name = ZINC62930877
REMARK  10 active torsions:
REMARK  status: ('A' for Active; 'I' for Inactive)
REMARK    1  A    between atoms: C_1  and  C_2
REMARK    2  A    between atoms: C_2  and  C_3
REMARK    3  A    between atoms: C_2  and  N_4
REMARK    4  A    between atoms: N_7  and  N_8
REMARK    5  A    between atoms: N_8  and  S_9
REMARK    6  A    between atoms: S_9  and  C_12
REMARK    7  A    between atoms: C_15  and  C_18
REMARK    8  A    between atoms: C_18  and  C_19
REMARK    9  A    between atoms: C_18  and  C_20
REMARK   10  A    between atoms: C_18  and  C_21
REMARK                            x       y       z     vdW  Elec       q    Type
REMARK                         _______ _______ _______ _____ _____    ______ ____
ROOT
ATOM      1  S   UNL     1       3.140  -0.682   4.410  0.00  0.00    +0.074 S 
ATOM      2  O   UNL     1       4.398  -1.304   4.182  0.00  0.00    -0.152 OA
ATOM      3  O   UNL     1       2.951   0.721   4.292  0.00  0.00    -0.152 OA
ENDROOT
BRANCH   1   4
ATOM      4  C   UNL     1       2.651  -1.121   6.045  0.00  0.00    +0.107 A 
ATOM      5  C   UNL     1       1.759  -0.323   6.737  0.00  0.00    +0.029 A 
ATOM      6  C   UNL     1       1.375  -0.666   8.019  0.00  0.00    +0.006 A 
ATOM      7  C   UNL     1       1.883  -1.808   8.610  0.00  0.00    -0.042 A 
ATOM      8  C   UNL     1       2.774  -2.607   7.918  0.00  0.00    +0.006 A 
ATOM      9  C   UNL     1       3.155  -2.266   6.633  0.00  0.00    +0.029 A 
BRANCH   7  10
ATOM     10  C   UNL     1       1.465  -2.183  10.009  0.00  0.00    -0.013 C 
ATOM     11  C   UNL     1      -0.051  -2.387  10.051  0.00  0.00    +0.015 C 
ATOM     12  C   UNL     1       2.166  -3.479  10.421  0.00  0.00    +0.015 C 
ATOM     13  C   UNL     1       1.856  -1.062  10.975  0.00  0.00    +0.015 C 
ENDBRANCH   7  10
ENDBRANCH   1   4
BRANCH   1  14
ATOM     14  N   UNL     1       2.066  -1.394   3.370  0.00  0.00    -0.107 NA
ATOM     15  H   UNL     1       2.381  -2.029   2.707  0.00  0.00    +0.172 HD
BRANCH  14  19
ATOM     16  N   UNL     1       0.711  -0.489   1.189  0.00  0.00    -0.296 N 
ATOM     17  C   UNL     1       0.051  -0.633   2.355  0.00  0.00    +0.315 C 
ATOM     18  O   UNL     1      -1.132  -0.361   2.423  0.00  0.00    -0.251 OA
ATOM     19  N   UNL     1       0.703  -1.080   3.447  0.00  0.00    -0.216 N 
ATOM     20  H   UNL     1       1.654  -0.707   1.135  0.00  0.00    +0.151 HD
ATOM     21  H   UNL     1       0.229  -1.184   4.287  0.00  0.00    +0.172 HD
BRANCH  16  23
ATOM     22  C   UNL     1      -0.019   1.526   0.010  0.00  0.00    +0.027 C 
ATOM     23  C   UNL     1       0.002  -0.004   0.002  0.00  0.00    +0.068 C 
ATOM     24  C   UNL     1       0.718  -0.497  -1.257  0.00  0.00    +0.027 C 
ENDBRANCH  16  23
ENDBRANCH  14  19
ENDBRANCH   1  14
TORSDOF 5
