REMARK  Name = ZINC66390664
REMARK  10 active torsions:
REMARK  status: ('A' for Active; 'I' for Inactive)
REMARK    1  A    between atoms: C_1  and  C_2
REMARK    2  A    between atoms: C_4  and  N_7
REMARK    3  A    between atoms: C_8  and  C_10
REMARK    4  A    between atoms: C_10  and  C_12
REMARK    5  A    between atoms: C_10  and  N_13
REMARK    6  A    between atoms: N_13  and  C_14
REMARK    7  A    between atoms: C_14  and  C_16
REMARK    8  A    between atoms: C_14  and  C_17
REMARK    9  A    between atoms: C_20  and  N_24
REMARK   10  A    between atoms: N_27  and  C_30
REMARK                            x       y       z     vdW  Elec       q    Type
REMARK                         _______ _______ _______ _____ _____    ______ ____
ROOT
ATOM      1  C   UNL     1      -0.365  -8.061  -1.831  0.00  0.00    +0.082 C 
ATOM      2  C   UNL     1       0.836  -8.730  -2.501  0.00  0.00    +0.029 C 
ENDROOT
BRANCH   1   3
ATOM      3  C   UNL     1      -1.024  -9.038  -0.891  0.00  0.00    -0.028 A 
ATOM      4  C   UNL     1      -0.491  -9.253   0.366  0.00  0.00    +0.007 A 
ATOM      5  C   UNL     1      -1.092 -10.148   1.230  0.00  0.00    +0.026 A 
ATOM      6  C   UNL     1      -2.233 -10.833   0.835  0.00  0.00    +0.065 A 
ATOM      7  C   UNL     1      -2.768 -10.615  -0.430  0.00  0.00    +0.145 A 
ATOM      8  C   UNL     1      -2.164  -9.714  -1.288  0.00  0.00    +0.045 A 
ATOM      9  F   UNL     1      -3.878 -11.280  -0.819  0.00  0.00    -0.204 F 
BRANCH   6  10
ATOM     10  N   UNL     1      -2.843 -11.740   1.707  0.00  0.00    -0.331 N 
ATOM     11  C   UNL     1      -2.451 -13.158   1.720  0.00  0.00    +0.086 C 
ATOM     12  C   UNL     1      -2.162 -13.569   3.167  0.00  0.00    -0.060 C 
ATOM     13  N   UNL     1      -3.326 -13.255   4.006  0.00  0.00    +0.380 N 
ATOM     14  C   UNL     1      -3.538 -11.802   4.043  0.00  0.00    -0.060 C 
ATOM     15  C   UNL     1      -3.891 -11.303   2.643  0.00  0.00    +0.086 C 
ATOM     16  C   UNL     1      -3.092 -13.749   5.370  0.00  0.00    -0.096 C 
ATOM     17  H   UNL     1      -4.145 -13.704   3.624  0.00  0.00    -0.082 HD
ENDBRANCH   6  10
ENDBRANCH   1   3
BRANCH   1  18
ATOM     18  N   UNL     1       0.087  -6.885  -1.075  0.00  0.00    -0.299 NA
ATOM     19  H   UNL     1       0.982  -7.056  -0.641  0.00  0.00    +0.123 HD
BRANCH  18  20
ATOM     20  C   UNL     1       0.138  -5.695  -1.935  0.00  0.00    +0.138 C 
ATOM     21  C   UNL     1       1.180  -4.716  -1.389  0.00  0.00    +0.034 C 
BRANCH  20  23
ATOM     22  N   UNL     1      -1.406  -3.912  -2.681  0.00  0.00    -0.253 N 
ATOM     23  C   UNL     1      -1.214  -5.030  -1.954  0.00  0.00    +0.236 C 
ATOM     24  O   UNL     1      -2.130  -5.502  -1.314  0.00  0.00    -0.274 OA
ATOM     25  H   UNL     1      -0.673  -3.535  -3.193  0.00  0.00    +0.158 HD
BRANCH  22  29
ATOM     26  C   UNL     1      -5.110  -0.733  -3.695  0.00  0.00    +0.069 C 
ATOM     27  C   UNL     1      -4.330  -1.895  -3.134  0.00  0.00    +0.082 A 
ATOM     28  C   UNL     1      -2.980  -2.176  -3.384  0.00  0.00    +0.092 A 
ATOM     29  C   UNL     1      -2.651  -3.300  -2.698  0.00  0.00    +0.224 A 
ATOM     30  O   UNL     1      -3.746  -3.716  -2.039  0.00  0.00    -0.339 OA
ATOM     31  N   UNL     1      -4.794  -2.808  -2.326  0.00  0.00    -0.081 NA
ENDBRANCH  22  29
ENDBRANCH  20  23
ENDBRANCH  18  20
ENDBRANCH   1  18
TORSDOF 6
