REMARK  Name = ZINC15027530
REMARK  6 active torsions:
REMARK  status: ('A' for Active; 'I' for Inactive)
REMARK    1  A    between atoms: C_1  and  C_2
REMARK    2  A    between atoms: C_2  and  C_3
REMARK    3  A    between atoms: C_2  and  C_4
REMARK    4  A    between atoms: C_4  and  C_6
REMARK    5  A    between atoms: C_4  and  N_16
REMARK    6  A    between atoms: C_17  and  C_19
REMARK                            x       y       z     vdW  Elec       q    Type
REMARK                         _______ _______ _______ _____ _____    ______ ____
ROOT
ATOM      1  N   UNL     1      -4.647  -0.149   0.915  0.00  0.00    -0.304 N 
ATOM      2  C   UNL     1      -5.643  -0.864   1.476  0.00  0.00    +0.245 C 
ATOM      3  O   UNL     1      -5.749  -2.051   1.236  0.00  0.00    -0.270 OA
ATOM      4  H   UNL     1      -4.563   0.798   1.107  0.00  0.00    +0.150 HD
ENDROOT
BRANCH   2   5
ATOM      5  C   UNL     1      -6.606  -0.205   2.380  0.00  0.00    +0.039 A 
ATOM      6  C   UNL     1      -6.482   1.158   2.661  0.00  0.00    +0.017 A 
ATOM      7  C   UNL     1      -7.383   1.776   3.502  0.00  0.00    +0.048 A 
ATOM      8  C   UNL     1      -8.409   1.043   4.080  0.00  0.00    +0.142 A 
ATOM      9  C   UNL     1      -8.535  -0.321   3.808  0.00  0.00    +0.076 A 
ATOM     10  C   UNL     1      -7.639  -0.945   2.962  0.00  0.00    +0.040 A 
ATOM     11  N   UNL     1      -9.579  -1.046   4.403  0.00  0.00    -0.280 N 
ATOM     12  C   UNL     1     -10.609  -0.371   4.958  0.00  0.00    +0.255 C 
ATOM     13  O   UNL     1     -11.508  -0.975   5.505  0.00  0.00    -0.272 OA
ATOM     14  C   UNL     1     -10.637   1.135   4.895  0.00  0.00    +0.325 C 
ATOM     15  O   UNL     1      -9.301   1.642   4.912  0.00  0.00    -0.481 OA
ATOM     16  H   UNL     1      -9.560  -2.015   4.416  0.00  0.00    +0.155 HD
ENDBRANCH   2   5
BRANCH   1  17
ATOM     17  C   UNL     1      -3.692  -0.803   0.018  0.00  0.00    +0.106 C 
BRANCH  17  18
ATOM     18  C   UNL     1      -2.397  -0.033   0.016  0.00  0.00    -0.023 A 
ATOM     19  C   UNL     1      -2.415   1.349   0.025  0.00  0.00    +0.009 A 
ATOM     20  C   UNL     1      -1.229   2.059   0.019  0.00  0.00    +0.050 A 
ATOM     21  C   UNL     1      -0.017   1.385   0.010  0.00  0.00    +0.162 A 
ATOM     22  C   UNL     1       0.002  -0.004   0.002  0.00  0.00    +0.162 A 
ATOM     23  C   UNL     1      -1.192  -0.710   0.004  0.00  0.00    +0.055 A 
ATOM     24  O   UNL     1       1.181  -0.685  -0.007  0.00  0.00    -0.485 OA
ATOM     25  C   UNL     1       2.347   0.053  -0.387  0.00  0.00    +0.270 C 
ATOM     26  C   UNL     1       2.334   1.392   0.364  0.00  0.00    +0.270 C 
ATOM     27  O   UNL     1       1.143   2.098   0.002  0.00  0.00    -0.485 OA
ENDBRANCH  17  18
BRANCH  17  29
ATOM     28  C   UNL     1      -4.407   0.590  -1.929  0.00  0.00    +0.009 C 
ATOM     29  C   UNL     1      -4.266  -0.838  -1.400  0.00  0.00    +0.008 C 
ATOM     30  C   UNL     1      -3.326  -1.630  -2.312  0.00  0.00    +0.009 C 
ENDBRANCH  17  29
ENDBRANCH   1  17
TORSDOF 4
