REMARK  Name = ZINC06617334
REMARK  6 active torsions:
REMARK  status: ('A' for Active; 'I' for Inactive)
REMARK    1  A    between atoms: C_1  and  C_2
REMARK    2  A    between atoms: C_2  and  O_21
REMARK    3  A    between atoms: C_9  and  C_10
REMARK    4  A    between atoms: C_9  and  C_11
REMARK    5  A    between atoms: C_18  and  C_19
REMARK    6  A    between atoms: C_18  and  O_20
REMARK                            x       y       z     vdW  Elec       q    Type
REMARK                         _______ _______ _______ _____ _____    ______ ____
ROOT
ATOM      1  C   UNL     1      -0.019   1.525   0.010  0.00  0.00    +0.041 C 
ATOM      2  C   UNL     1       0.002  -0.004   0.002  0.00  0.00    +0.066 C 
ATOM      3  C   UNL     1      -1.396  -0.583  -0.140  0.00  0.00    +0.035 C 
ATOM      4  C   UNL     1      -2.478   0.207   0.621  0.00  0.00    +0.007 C 
ATOM      5  C   UNL     1      -1.998   0.519   2.009  0.00  0.00    -0.001 C 
ATOM      6  C   UNL     1      -1.196  -0.683   2.585  0.00  0.00    +0.005 C 
ATOM      7  C   UNL     1      -2.338  -0.092   3.335  0.00  0.00    -0.028 C 
ATOM      8  C   UNL     1      -3.623  -0.916   3.420  0.00  0.00    +0.011 C 
ATOM      9  C   UNL     1      -2.022   0.749   4.574  0.00  0.00    +0.011 C 
ATOM     10  C   UNL     1       0.277  -0.448   2.568  0.00  0.00    +0.030 C 
ATOM     11  C   UNL     1       0.836  -0.514   1.157  0.00  0.00    +0.027 C 
ATOM     12  C   UNL     1       1.155  -2.014   0.939  0.00  0.00    +0.009 C 
ATOM     13  C   UNL     1       1.552  -2.546   2.329  0.00  0.00    +0.035 C 
ATOM     14  C   UNL     1       1.046  -1.522   3.361  0.00  0.00    +0.067 C 
ATOM     15  C   UNL     1       0.137  -2.210   4.377  0.00  0.00    +0.041 C 
ENDROOT
BRANCH  14  16
ATOM     16  O   UNL     1       2.162  -0.927   4.030  0.00  0.00    -0.389 OA
ATOM     17  H   UNL     1       2.688  -1.552   4.548  0.00  0.00    +0.210 HD
ENDBRANCH  14  16
BRANCH   2  18
ATOM     18  O   UNL     1       0.724  -0.376  -1.202  0.00  0.00    -0.389 OA
ATOM     19  H   UNL     1       0.317  -0.057  -2.019  0.00  0.00    +0.210 HD
ENDBRANCH   2  18
TORSDOF 2
