REMARK  Name = ZINC67102405
REMARK  7 active torsions:
REMARK  status: ('A' for Active; 'I' for Inactive)
REMARK    1  A    between atoms: C_1  and  C_2
REMARK    2  A    between atoms: C_2  and  N_3
REMARK    3  A    between atoms: N_3  and  C_4
REMARK    4  A    between atoms: C_4  and  C_5
REMARK    5  A    between atoms: N_16  and  N_17
REMARK    6  A    between atoms: C_18  and  C_20
REMARK    7  A    between atoms: C_21  and  C_25
REMARK                            x       y       z     vdW  Elec       q    Type
REMARK                         _______ _______ _______ _____ _____    ______ ____
ROOT
ATOM      1  N   UNL     1       0.687  -0.479  -1.202  0.00  0.00    -0.280 N 
ATOM      2  C   UNL     1      -0.025  -0.801  -2.300  0.00  0.00    +0.319 C 
ATOM      3  O   UNL     1       0.535  -1.276  -3.270  0.00  0.00    -0.251 OA
ATOM      4  N   UNL     1      -1.356  -0.596  -2.324  0.00  0.00    -0.218 N 
ATOM      5  H   UNL     1      -1.792  -0.148  -1.582  0.00  0.00    +0.174 HD
ENDROOT
BRANCH   4   6
ATOM      6  N   UNL     1      -2.112  -1.028  -3.422  0.00  0.00    -0.229 N 
ATOM      7  C   UNL     1      -3.455  -0.914  -3.402  0.00  0.00    +0.267 C 
ATOM      8  O   UNL     1      -4.011  -0.436  -2.431  0.00  0.00    -0.268 OA
ATOM      9  H   UNL     1      -1.669  -1.409  -4.196  0.00  0.00    +0.173 HD
BRANCH   7  10
ATOM     10  C   UNL     1      -4.246  -1.366  -4.550  0.00  0.00    +0.078 A 
ATOM     11  C   UNL     1      -5.620  -1.334  -4.732  0.00  0.00    -0.031 A 
ATOM     12  C   UNL     1      -6.076  -1.835  -5.928  0.00  0.00    +0.011 A 
ATOM     13  C   UNL     1      -5.180  -2.314  -6.826  0.00  0.00    +0.046 A 
ATOM     14  S   UNL     1      -3.691  -2.094  -6.080  0.00  0.00    -0.092 S 
ATOM     15  C   UNL     1      -6.555  -0.785  -3.685  0.00  0.00    +0.045 C 
ENDBRANCH   7  10
ENDBRANCH   4   6
BRANCH   1  17
ATOM     16  C   UNL     1      -0.030   1.515   0.018  0.00  0.00    +0.024 C 
ATOM     17  C   UNL     1       0.001  -0.014   0.006  0.00  0.00    +0.106 C 
ENDBRANCH   1  17
BRANCH   1  18
ATOM     18  C   UNL     1       2.148  -0.595  -1.216  0.00  0.00    +0.144 C 
BRANCH  18  19
ATOM     19  C   UNL     1       2.547  -1.975  -0.762  0.00  0.00    -0.026 A 
ATOM     20  C   UNL     1       2.765  -2.224   0.580  0.00  0.00    +0.009 A 
ATOM     21  C   UNL     1       3.131  -3.489   1.001  0.00  0.00    +0.050 A 
ATOM     22  C   UNL     1       3.280  -4.511   0.078  0.00  0.00    +0.166 A 
ATOM     23  C   UNL     1       3.061  -4.260  -1.274  0.00  0.00    +0.167 A 
ATOM     24  C   UNL     1       2.688  -2.991  -1.689  0.00  0.00    +0.054 A 
ATOM     25  O   UNL     1       3.269  -5.415  -1.972  0.00  0.00    -0.453 OA
ATOM     26  C   UNL     1       4.015  -6.270  -1.085  0.00  0.00    +0.466 C 
ATOM     27  O   UNL     1       3.627  -5.822   0.228  0.00  0.00    -0.453 OA
ENDBRANCH  18  19
ENDBRANCH   1  18
TORSDOF 5
