REMARK  Name = ZINC15518888
REMARK  10 active torsions:
REMARK  status: ('A' for Active; 'I' for Inactive)
REMARK    1  A    between atoms: C_1  and  C_2
REMARK    2  A    between atoms: C_5  and  C_8
REMARK    3  A    between atoms: C_9  and  C_35
REMARK    4  A    between atoms: C_17  and  C_19
REMARK    5  A    between atoms: C_19  and  N_63
REMARK    6  A    between atoms: C_23  and  C_25
REMARK    7  A    between atoms: C_28  and  O_33
REMARK    8  A    between atoms: C_30  and  O_31
REMARK    9  A    between atoms: O_31  and  C_32
REMARK   10  A    between atoms: O_33  and  C_34
REMARK                            x       y       z     vdW  Elec       q    Type
REMARK                         _______ _______ _______ _____ _____    ______ ____
ROOT
ATOM      1  C   UNL     1       1.033   2.357   0.005  0.00  0.00    +0.007 A 
ATOM      2  C   UNL     1      -0.018   1.503   0.010  0.00  0.00    -0.003 A 
ATOM      3  S   UNL     1      -1.432   2.589   0.022  0.00  0.00    -0.073 S 
ATOM      4  C   UNL     1      -0.587   4.149   0.030  0.00  0.00    +0.116 A 
ATOM      5  C   UNL     1       0.772   3.791   0.015  0.00  0.00    +0.080 A 
ATOM      6  C   UNL     1       1.699   4.881   0.012  0.00  0.00    +0.260 A 
ATOM      7  O   UNL     1       2.900   4.672  -0.001  0.00  0.00    -0.267 OA
ATOM      8  N   UNL     1       1.226   6.141   0.022  0.00  0.00    -0.312 N 
ATOM      9  H   UNL     1       1.849   6.884   0.020  0.00  0.00    +0.170 HD
ATOM     10  C   UNL     1      -0.108   6.393   0.037  0.00  0.00    +0.094 A 
ATOM     11  N   UNL     1      -0.979   5.420   0.041  0.00  0.00    -0.229 NA
ATOM     12  C   UNL     1       0.002  -0.004   0.002  0.00  0.00    +0.052 C 
ENDROOT
BRANCH   1  17
ATOM     13  C   UNL     1       6.434   0.361  -0.059  0.00  0.00    +0.044 C 
ATOM     14  C   UNL     1       5.021   0.883  -0.043  0.00  0.00    -0.050 A 
ATOM     15  C   UNL     1       4.188   0.652  -1.123  0.00  0.00    +0.004 A 
ATOM     16  C   UNL     1       2.893   1.128  -1.113  0.00  0.00    +0.009 A 
ATOM     17  C   UNL     1       2.424   1.843  -0.012  0.00  0.00    -0.016 A 
ATOM     18  C   UNL     1       3.269   2.078   1.072  0.00  0.00    +0.009 A 
ATOM     19  C   UNL     1       4.561   1.592   1.053  0.00  0.00    +0.004 A 
ENDBRANCH   1  17
BRANCH  10  20
ATOM     20  C   UNL     1      -0.593   7.820   0.050  0.00  0.00    -0.002 C 
BRANCH  20  25
ATOM     21  C   UNL     1      -2.612   7.484  -1.269  0.00  0.00    -0.077 C 
ATOM     22  C   UNL     1      -4.047   8.053  -1.262  0.00  0.00    -0.020 C 
ATOM     23  C   UNL     1      -4.022   9.189  -0.218  0.00  0.00    -0.012 C 
ATOM     24  C   UNL     1      -2.574   9.210   0.317  0.00  0.00    -0.034 C 
ATOM     25  N   UNL     1      -2.089   7.852   0.044  0.00  0.00    +0.389 N 
ATOM     26  H   UNL     1      -2.443   7.202   0.757  0.00  0.00    -0.080 HD
BRANCH  24  27
ATOM     27  C   UNL     1      -2.562   9.511   1.794  0.00  0.00    -0.019 A 
ATOM     28  C   UNL     1      -2.525   8.476   2.709  0.00  0.00    +0.009 A 
ATOM     29  C   UNL     1      -2.508   8.750   4.064  0.00  0.00    +0.046 A 
ATOM     30  C   UNL     1      -2.539  10.064   4.508  0.00  0.00    +0.124 A 
ATOM     31  C   UNL     1      -2.583  11.104   3.592  0.00  0.00    +0.091 A 
ATOM     32  C   UNL     1      -2.594  10.827   2.233  0.00  0.00    +0.125 A 
BRANCH  32  33
ATOM     33  O   UNL     1      -2.636  11.844   1.332  0.00  0.00    -0.495 OA
ATOM     34  C   UNL     1      -2.667  13.173   1.856  0.00  0.00    +0.277 C 
ENDBRANCH  32  33
BRANCH  30  35
ATOM     35  O   UNL     1      -2.529  10.332   5.840  0.00  0.00    -0.495 OA
ATOM     36  C   UNL     1      -2.483   9.213   6.727  0.00  0.00    +0.277 C 
ENDBRANCH  30  35
ENDBRANCH  24  27
ENDBRANCH  20  25
ENDBRANCH  10  20
TORSDOF 6
