REMARK  Name = ZINC02292259
REMARK  3 active torsions:
REMARK  status: ('A' for Active; 'I' for Inactive)
REMARK    1  A    between atoms: C_1  and  C_2
REMARK    2  A    between atoms: N_18  and  C_19
REMARK    3  A    between atoms: C_24  and  C_25
REMARK                            x       y       z     vdW  Elec       q    Type
REMARK                         _______ _______ _______ _____ _____    ______ ____
ROOT
ATOM      1  C   UNL     1       2.626   0.106   0.227  0.00  0.00    +0.110 C 
ATOM      2  C   UNL     1       2.333   1.584   0.233  0.00  0.00    +0.223 C 
ATOM      3  O   UNL     1       3.244   2.383   0.251  0.00  0.00    -0.275 OA
ATOM      4  N   UNL     1       1.057   2.018   0.218  0.00  0.00    -0.206 N 
ATOM      5  C   UNL     1       0.682   3.361   0.222  0.00  0.00    +0.052 A 
ATOM      6  C   UNL     1       1.435   4.529   0.240  0.00  0.00    +0.024 A 
ATOM      7  C   UNL     1       0.806   5.759   0.240  0.00  0.00    +0.002 A 
ATOM      8  C   UNL     1      -0.576   5.845   0.221  0.00  0.00    +0.001 A 
ATOM      9  C   UNL     1      -1.341   4.697   0.203  0.00  0.00    +0.010 A 
ATOM     10  C   UNL     1      -0.717   3.452   0.203  0.00  0.00    +0.010 A 
ATOM     11  C   UNL     1      -1.226   2.065   0.181  0.00  0.00    +0.065 C 
ATOM     12  C   UNL     1      -2.542   1.655   0.153  0.00  0.00    +0.092 C 
ATOM     13  C   UNL     1      -3.796   2.453   0.300  0.00  0.00    +0.277 C 
ATOM     14  O   UNL     1      -3.777   3.658   0.476  0.00  0.00    -0.267 OA
ATOM     15  N   UNL     1      -4.920   1.778   0.224  0.00  0.00    -0.154 NA
ATOM     16  C   UNL     1      -4.954   0.467   0.041  0.00  0.00    +0.156 C 
ATOM     17  S   UNL     1      -3.229   0.018  -0.061  0.00  0.00    -0.051 S 
ATOM     18  N   UNL     1      -6.047  -0.347  -0.049  0.00  0.00    -0.295 N 
ATOM     19  C   UNL     1      -0.018   1.211   0.198  0.00  0.00    +0.259 C 
ATOM     20  O   UNL     1      -0.000  -0.004   0.189  0.00  0.00    -0.269 OA
ATOM     21  H   UNL     1      -5.933  -1.309  -0.099  0.00  0.00    +0.154 HD
ENDROOT
BRANCH  18  22
ATOM     22  C   UNL     1      -7.331   0.205  -0.068  0.00  0.00    +0.044 A 
ATOM     23  C   UNL     1      -7.494   1.583  -0.152  0.00  0.00    +0.024 A 
ATOM     24  C   UNL     1      -8.764   2.125  -0.175  0.00  0.00    +0.002 A 
ATOM     25  C   UNL     1      -9.872   1.300  -0.104  0.00  0.00    +0.001 A 
ATOM     26  C   UNL     1      -9.712  -0.070  -0.015  0.00  0.00    +0.014 A 
ATOM     27  C   UNL     1      -8.445  -0.620   0.004  0.00  0.00    +0.076 A 
BRANCH  27  28
ATOM     28  C   UNL     1      -8.273  -2.114   0.102  0.00  0.00    +0.419 C 
ATOM     29  F   UNL     1      -9.529  -2.726   0.160  0.00  0.00    -0.166 F 
ATOM     30  F   UNL     1      -7.580  -2.578  -1.022  0.00  0.00    -0.166 F 
ATOM     31  F   UNL     1      -7.548  -2.425   1.258  0.00  0.00    -0.166 F 
ENDBRANCH  27  28
ENDBRANCH  18  22
TORSDOF 2
