REMARK  Name = ZINC02222775
REMARK  9 active torsions:
REMARK  status: ('A' for Active; 'I' for Inactive)
REMARK    1  A    between atoms: C_1  and  C_2
REMARK    2  A    between atoms: C_6  and  C_8
REMARK    3  A    between atoms: N_14  and  N_15
REMARK    4  A    between atoms: C_16  and  C_17
REMARK    5  A    between atoms: C_19  and  O_26
REMARK    6  A    between atoms: C_20  and  O_25
REMARK    7  A    between atoms: C_21  and  O_23
REMARK    8  A    between atoms: O_23  and  C_24
REMARK    9  A    between atoms: O_26  and  C_27
REMARK                            x       y       z     vdW  Elec       q    Type
REMARK                         _______ _______ _______ _____ _____    ______ ____
ROOT
ATOM      1  C   UNL     1      -0.170  -2.864   2.473  0.00  0.00    +0.184 A 
ATOM      2  N   UNL     1      -0.108  -2.334   3.663  0.00  0.00    -0.152 NA
ATOM      3  N   UNL     1       0.175  -3.357   4.579  0.00  0.00    -0.253 N 
ATOM      4  H   UNL     1       0.278  -3.255   5.538  0.00  0.00    +0.191 HD
ATOM      5  C   UNL     1       0.278  -4.508   3.884  0.00  0.00    +0.197 A 
ATOM      6  S   UNL     1       0.614  -6.055   4.536  0.00  0.00    -0.010 S 
ATOM      7  N   UNL     1       0.063  -4.222   2.585  0.00  0.00    -0.188 N 
ENDROOT
BRANCH   1  13
ATOM      8  C   UNL     1      -1.165   1.404   0.086  0.00  0.00    +0.044 C 
ATOM      9  C   UNL     1      -0.927  -0.084   0.063  0.00  0.00    -0.050 A 
ATOM     10  C   UNL     1      -0.970  -0.772  -1.137  0.00  0.00    +0.003 A 
ATOM     11  C   UNL     1      -0.753  -2.138  -1.166  0.00  0.00    +0.001 A 
ATOM     12  C   UNL     1      -0.492  -2.823   0.003  0.00  0.00    +0.011 A 
ATOM     13  C   UNL     1      -0.448  -2.136   1.216  0.00  0.00    +0.021 A 
ATOM     14  C   UNL     1      -0.661  -0.757   1.238  0.00  0.00    +0.015 A 
ENDBRANCH   1  13
BRANCH   7  15
ATOM     15  N   UNL     1       0.076  -5.142   1.529  0.00  0.00    -0.171 NA
ATOM     16  C   UNL     1       0.191  -6.412   1.775  0.00  0.00    +0.141 C 
BRANCH  16  17
ATOM     17  C   UNL     1       0.309  -7.371   0.662  0.00  0.00    +0.002 A 
ATOM     18  C   UNL     1       0.304  -6.915  -0.658  0.00  0.00    +0.059 A 
ATOM     19  C   UNL     1       0.415  -7.817  -1.701  0.00  0.00    +0.166 A 
ATOM     20  C   UNL     1       0.533  -9.178  -1.435  0.00  0.00    +0.201 A 
ATOM     21  C   UNL     1       0.539  -9.635  -0.121  0.00  0.00    +0.166 A 
ATOM     22  C   UNL     1       0.433  -8.737   0.926  0.00  0.00    +0.059 A 
BRANCH  21  23
ATOM     23  O   UNL     1       0.654 -10.966   0.135  0.00  0.00    -0.491 OA
ATOM     24  C   UNL     1       0.652 -11.366   1.507  0.00  0.00    +0.277 C 
ENDBRANCH  21  23
BRANCH  20  25
ATOM     25  O   UNL     1       0.643 -10.063  -2.462  0.00  0.00    -0.501 OA
ATOM     26  H   UNL     1       1.554 -10.238  -2.735  0.00  0.00    +0.292 HD
ENDBRANCH  20  25
BRANCH  19  27
ATOM     27  O   UNL     1       0.409  -7.374  -2.986  0.00  0.00    -0.491 OA
ATOM     28  C   UNL     1       0.285  -5.965  -3.186  0.00  0.00    +0.277 C 
ENDBRANCH  19  27
ENDBRANCH  16  17
ENDBRANCH   7  15
TORSDOF 6
