REMARK  Name = ZINC23867686
REMARK  8 active torsions:
REMARK  status: ('A' for Active; 'I' for Inactive)
REMARK    1  A    between atoms: C_1  and  C_2
REMARK    2  A    between atoms: C_2  and  C_4
REMARK    3  A    between atoms: C_2  and  O_20
REMARK    4  A    between atoms: N_6  and  C_7
REMARK    5  A    between atoms: C_7  and  C_8
REMARK    6  A    between atoms: N_10  and  C_11
REMARK    7  A    between atoms: O_20  and  C_21
REMARK    8  A    between atoms: C_21  and  C_23
REMARK                            x       y       z     vdW  Elec       q    Type
REMARK                         _______ _______ _______ _____ _____    ______ ____
ROOT
ATOM      1  C   UNL     1       6.041   7.736  -0.795  0.00  0.00    +0.062 C 
ATOM      2  C   UNL     1       5.308   8.025   0.516  0.00  0.00    +0.259 C 
ENDROOT
BRANCH   2   3
ATOM      3  C   UNL     1       3.895   7.507   0.427  0.00  0.00    +0.254 C 
ATOM      4  O   UNL     1       2.962   8.281   0.459  0.00  0.00    -0.272 OA
ATOM      5  N   UNL     1       3.669   6.183   0.312  0.00  0.00    -0.304 N 
ATOM      6  H   UNL     1       4.516   5.481   0.283  0.00  0.00    +0.149 HD
BRANCH   5   7
ATOM      7  C   UNL     1       2.296   5.679   0.225  0.00  0.00    +0.200 C 
BRANCH   7   8
ATOM      8  C   UNL     1       2.319   4.177   0.104  0.00  0.00    +0.234 C 
ATOM      9  O   UNL     1       3.378   3.586   0.091  0.00  0.00    -0.274 OA
ATOM     10  N   UNL     1       1.163   3.491   0.009  0.00  0.00    -0.282 N 
ATOM     11  H   UNL     1       0.208   4.031  -0.071  0.00  0.00    +0.155 HD
BRANCH  10  12
ATOM     12  C   UNL     1       1.178   2.090   0.013  0.00  0.00    +0.072 A 
ATOM     13  C   UNL     1       2.230   1.407   0.608  0.00  0.00    +0.029 A 
ATOM     14  C   UNL     1       2.244   0.026   0.611  0.00  0.00    +0.043 A 
ATOM     15  C   UNL     1       1.210  -0.680   0.022  0.00  0.00    +0.161 A 
ATOM     16  C   UNL     1       0.156  -0.003  -0.574  0.00  0.00    +0.195 A 
ATOM     17  C   UNL     1       0.139   1.381  -0.579  0.00  0.00    +0.182 A 
ATOM     18  F   UNL     1      -0.884   2.043  -1.163  0.00  0.00    -0.200 F 
ATOM     19  F   UNL     1      -0.852  -0.694  -1.149  0.00  0.00    -0.199 F 
ATOM     20  F   UNL     1       1.226  -2.031   0.026  0.00  0.00    -0.202 F 
ENDBRANCH  10  12
ENDBRANCH   7   8
ENDBRANCH   5   7
ENDBRANCH   2   3
BRANCH   2  21
ATOM     21  O   UNL     1       5.283   9.458   0.752  0.00  0.00    -0.449 OA
BRANCH  21  22
ATOM     22  C   UNL     1       6.311   9.980   1.449  0.00  0.00    +0.340 C 
ATOM     23  O   UNL     1       7.203   9.259   1.849  0.00  0.00    -0.245 OA
BRANCH  22  24
ATOM     24  C   UNL     1       6.353  11.429   1.726  0.00  0.00    +0.060 A 
ATOM     25  C   UNL     1       5.323  12.261   1.264  0.00  0.00    +0.017 A 
ATOM     26  C   UNL     1       5.348  13.601   1.513  0.00  0.00    +0.027 A 
ATOM     27  C   UNL     1       6.401  14.162   2.233  0.00  0.00    +0.047 A 
ATOM     28  C   UNL     1       7.443  13.337   2.703  0.00  0.00    +0.004 A 
ATOM     29  C   UNL     1       7.412  11.967   2.451  0.00  0.00    +0.025 A 
ATOM     30  C   UNL     1       8.369  14.224   3.403  0.00  0.00    -0.019 A 
ATOM     31  C   UNL     1       7.866  15.470   3.325  0.00  0.00    +0.020 A 
ATOM     32  N   UNL     1       6.690  15.447   2.628  0.00  0.00    -0.358 N 
ATOM     33  H   UNL     1       6.006  16.269   2.370  0.00  0.00    +0.166 HD
ATOM     34  C   UNL     1       8.534  16.682   3.931  0.00  0.00    +0.053 C 
ATOM     35  C   UNL     1       9.572  16.206   4.954  0.00  0.00    +0.006 C 
ATOM     36  C   UNL     1      10.469  15.142   4.314  0.00  0.00    +0.005 C 
ATOM     37  C   UNL     1       9.657  13.860   4.095  0.00  0.00    +0.037 C 
ENDBRANCH  22  24
ENDBRANCH  21  22
ENDBRANCH   2  21
TORSDOF 7
