REMARK  Name = ZINC67544130
REMARK  8 active torsions:
REMARK  status: ('A' for Active; 'I' for Inactive)
REMARK    1  A    between atoms: C_1  and  C_2
REMARK    2  A    between atoms: C_5  and  N_12
REMARK    3  A    between atoms: C_7  and  N_8
REMARK    4  A    between atoms: C_9  and  C_11
REMARK    5  A    between atoms: N_15  and  C_16
REMARK    6  A    between atoms: C_16  and  C_17
REMARK    7  A    between atoms: N_22  and  C_23
REMARK    8  A    between atoms: C_23  and  C_24
REMARK                            x       y       z     vdW  Elec       q    Type
REMARK                         _______ _______ _______ _____ _____    ______ ____
ROOT
ATOM      1  N   UNL     1       0.132  -4.260  -0.529  0.00  0.00    -0.269 N 
ATOM      2  C   UNL     1       0.064  -4.729  -1.790  0.00  0.00    +0.304 C 
ATOM      3  O   UNL     1      -0.149  -3.966  -2.712  0.00  0.00    -0.253 OA
ATOM      4  N   UNL     1       0.233  -6.045  -2.030  0.00  0.00    -0.301 N 
ATOM      5  H   UNL     1       0.237  -4.876   0.213  0.00  0.00    +0.156 HD
ATOM      6  H   UNL     1       0.404  -6.654  -1.295  0.00  0.00    +0.150 HD
ENDROOT
BRANCH   1  11
ATOM      7  C   UNL     1      -0.207   1.325   0.435  0.00  0.00    +0.045 C 
ATOM      8  C   UNL     1      -0.115  -0.157   0.180  0.00  0.00    -0.029 A 
ATOM      9  C   UNL     1      -0.859  -0.731  -0.833  0.00  0.00    +0.007 A 
ATOM     10  C   UNL     1      -0.779  -2.089  -1.070  0.00  0.00    +0.024 A 
ATOM     11  C   UNL     1       0.052  -2.884  -0.289  0.00  0.00    +0.037 A 
ATOM     12  C   UNL     1       0.801  -2.311   0.729  0.00  0.00    +0.047 A 
ATOM     13  C   UNL     1       0.722  -0.945   0.960  0.00  0.00    +0.038 A 
BRANCH  13  14
ATOM     14  N   UNL     1       1.480  -0.363   1.982  0.00  0.00    -0.285 N 
ATOM     15  C   UNL     1       1.827  -1.091   3.062  0.00  0.00    +0.214 C 
ATOM     16  O   UNL     1       1.549  -2.271   3.113  0.00  0.00    -0.276 OA
ATOM     17  C   UNL     1       2.559  -0.439   4.207  0.00  0.00    +0.109 C 
ATOM     18  H   UNL     1       1.756   0.564   1.913  0.00  0.00    +0.155 HD
ENDBRANCH  13  14
ENDBRANCH   1  11
BRANCH   4  19
ATOM     19  C   UNL     1       0.159  -6.555  -3.401  0.00  0.00    +0.090 C 
BRANCH  19  20
ATOM     20  C   UNL     1       0.384  -8.068  -3.396  0.00  0.00    -0.051 C 
ATOM     21  C   UNL     1       0.141  -8.641  -4.808  0.00  0.00    -0.016 C 
ATOM     22  C   UNL     1      -0.564  -9.992  -4.521  0.00  0.00    -0.020 C 
ATOM     23  C   UNL     1      -1.423  -9.639  -3.281  0.00  0.00    -0.078 C 
ATOM     24  N   UNL     1      -0.581  -8.715  -2.487  0.00  0.00    +0.383 N 
ATOM     25  H   UNL     1      -1.161  -8.014  -2.053  0.00  0.00    -0.081 HD
BRANCH  24  26
ATOM     26  C   UNL     1       0.142  -9.466  -1.452  0.00  0.00    -0.075 C 
BRANCH  26  27
ATOM     27  C   UNL     1      -0.857 -10.032  -0.441  0.00  0.00    -0.028 C 
ATOM     28  C   UNL     1      -1.541  -8.880   0.299  0.00  0.00    +0.002 C 
ATOM     29  C   UNL     1      -2.541  -9.446   1.310  0.00  0.00    +0.000 C 
ATOM     30  C   UNL     1      -1.802 -10.331   2.316  0.00  0.00    +0.000 C 
ATOM     31  C   UNL     1      -1.117 -11.482   1.577  0.00  0.00    +0.000 C 
ATOM     32  C   UNL     1      -0.118 -10.917   0.566  0.00  0.00    +0.002 C 
ENDBRANCH  26  27
ENDBRANCH  24  26
ENDBRANCH  19  20
ENDBRANCH   4  19
TORSDOF 6
