REMARK  Name = ZINC31649169
REMARK  1 active torsions:
REMARK  status: ('A' for Active; 'I' for Inactive)
REMARK    1  A    between atoms: C_10  and  C_18
REMARK                            x       y       z     vdW  Elec       q    Type
REMARK                         _______ _______ _______ _____ _____    ______ ____
ROOT
ATOM      1  C   UNL     1       1.169   2.089   0.002  0.00  0.00    +0.000 A 
ATOM      2  C   UNL     1      -0.017   1.376   0.010  0.00  0.00    +0.001 A 
ATOM      3  C   UNL     1       0.002  -0.004   0.002  0.00  0.00    +0.009 A 
ATOM      4  C   UNL     1       1.220  -0.682  -0.019  0.00  0.00    -0.014 A 
ATOM      5  C   UNL     1       2.410   0.045  -0.036  0.00  0.00    -0.034 A 
ATOM      6  C   UNL     1       2.381   1.422  -0.019  0.00  0.00    +0.004 A 
ATOM      7  C   UNL     1       3.727  -0.693  -0.086  0.00  0.00    +0.087 C 
ATOM      8  C   UNL     1       3.964  -1.358   1.249  0.00  0.00    +0.036 C 
ATOM      9  N   UNL     1       5.125  -1.331   1.786  0.00  0.00    -0.306 NA
ATOM     10  C   UNL     1       2.821  -2.056   1.945  0.00  0.00    +0.166 C 
ATOM     11  C   UNL     1       2.035  -2.843   0.923  0.00  0.00    -0.017 A 
ATOM     12  C   UNL     1       1.248  -2.162  -0.007  0.00  0.00    -0.013 A 
ATOM     13  C   UNL     1       0.492  -2.887  -0.926  0.00  0.00    +0.009 A 
ATOM     14  C   UNL     1       0.536  -4.266  -0.917  0.00  0.00    +0.001 A 
ATOM     15  C   UNL     1       1.329  -4.933  -0.001  0.00  0.00    +0.000 A 
ATOM     16  C   UNL     1       2.078  -4.220   0.919  0.00  0.00    +0.006 A 
ATOM     17  H   UNL     1       5.293  -1.817   2.758  0.00  0.00    +0.186 HD
ENDROOT
BRANCH  10  18
ATOM     18  C   UNL     1       3.351  -2.970   2.969  0.00  0.00    +0.077 C 
ATOM     19  N   UNL     1       3.761  -3.676   3.760  0.00  0.00    -0.196 NA
ENDBRANCH  10  18
TORSDOF 1
