REMARK  Name = ZINC63654900
REMARK  8 active torsions:
REMARK  status: ('A' for Active; 'I' for Inactive)
REMARK    1  A    between atoms: C_1  and  O_2
REMARK    2  A    between atoms: O_2  and  C_3
REMARK    3  A    between atoms: C_6  and  C_9
REMARK    4  A    between atoms: C_11  and  S_19
REMARK    5  A    between atoms: S_19  and  C_20
REMARK    6  A    between atoms: C_20  and  C_21
REMARK    7  A    between atoms: C_21  and  N_22
REMARK    8  A    between atoms: C_23  and  C_25
REMARK                            x       y       z     vdW  Elec       q    Type
REMARK                         _______ _______ _______ _____ _____    ______ ____
ROOT
ATOM      1  C   UNL     1      -6.014  -3.372   4.064  0.00  0.00    +0.093 C 
ENDROOT
BRANCH   1   2
ATOM      2  S   UNL     1      -5.492  -2.186   2.795  0.00  0.00    -0.125 S 
BRANCH   2   4
ATOM      3  C   UNL     1      -5.015  -2.623   0.028  0.00  0.00    +0.147 C 
ATOM      4  C   UNL     1      -5.326  -3.109   1.426  0.00  0.00    +0.021 C 
ATOM      5  C   UNL     1      -5.445  -4.492   1.325  0.00  0.00    +0.010 A 
ATOM      6  C   UNL     1      -5.724  -5.496   2.279  0.00  0.00    +0.011 A 
ATOM      7  C   UNL     1      -5.781  -6.796   1.890  0.00  0.00    +0.001 A 
ATOM      8  C   UNL     1      -5.568  -7.172   0.563  0.00  0.00    +0.002 A 
ATOM      9  C   UNL     1      -5.296  -6.260  -0.404  0.00  0.00    +0.026 A 
ATOM     10  C   UNL     1      -5.221  -4.883  -0.074  0.00  0.00    +0.044 A 
ATOM     11  N   UNL     1      -4.976  -3.819  -0.819  0.00  0.00    -0.373 N 
ATOM     12  H   UNL     1      -4.798  -3.827  -1.772  0.00  0.00    +0.161 HD
BRANCH   3  16
ATOM     13  C   UNL     1      -1.224  -0.651  -0.034  0.00  0.00    +0.120 A 
ATOM     14  C   UNL     1      -2.395   0.094  -0.009  0.00  0.00    +0.046 A 
ATOM     15  C   UNL     1      -3.619  -0.546   0.011  0.00  0.00    +0.009 A 
ATOM     16  C   UNL     1      -3.678  -1.927   0.006  0.00  0.00    -0.020 A 
ATOM     17  C   UNL     1      -2.514  -2.672  -0.019  0.00  0.00    +0.009 A 
ATOM     18  C   UNL     1      -1.287  -2.037  -0.045  0.00  0.00    +0.046 A 
BRANCH  13  20
ATOM     19  C   UNL     1      -0.030   1.405  -0.041  0.00  0.00    +0.277 C 
ATOM     20  O   UNL     1      -0.019  -0.024  -0.054  0.00  0.00    -0.495 OA
ENDBRANCH  13  20
ENDBRANCH   3  16
ENDBRANCH   2   4
ENDBRANCH   1   2
BRANCH   1  21
ATOM     21  C   UNL     1      -6.344  -2.623   5.357  0.00  0.00    +0.115 C 
BRANCH  21  22
ATOM     22  N   UNL     1      -6.766  -3.581   6.382  0.00  0.00    -0.314 N 
ATOM     23  C   UNL     1      -7.108  -3.146   7.611  0.00  0.00    +0.221 C 
ATOM     24  O   UNL     1      -7.066  -1.962   7.869  0.00  0.00    -0.275 OA
ATOM     25  H   UNL     1      -6.799  -4.528   6.176  0.00  0.00    +0.149 HD
BRANCH  23  26
ATOM     26  C   UNL     1      -7.542  -4.132   8.665  0.00  0.00    +0.119 C 
ATOM     27  C   UNL     1      -8.769  -4.871   8.190  0.00  0.00    +0.007 A 
ATOM     28  C   UNL     1      -8.613  -5.899   7.274  0.00  0.00    +0.008 A 
ATOM     29  C   UNL     1      -9.713  -6.597   6.817  0.00  0.00    +0.001 A 
ATOM     30  C   UNL     1     -10.977  -6.272   7.273  0.00  0.00    +0.004 A 
ATOM     31  C   UNL     1     -11.139  -5.250   8.186  0.00  0.00    +0.046 A 
ATOM     32  C   UNL     1     -10.033  -4.544   8.649  0.00  0.00    +0.125 A 
ATOM     33  O   UNL     1     -10.235  -3.546   9.552  0.00  0.00    -0.484 OA
ATOM     34  C   UNL     1      -9.178  -2.602   9.726  0.00  0.00    +0.204 C 
ATOM     35  C   UNL     1      -7.876  -3.384   9.958  0.00  0.00    +0.073 C 
ATOM     36  C   UNL     1      -6.773  -2.422  10.308  0.00  0.00    -0.018 C 
ATOM     37  C   UNL     1      -7.046  -1.357  11.059  0.00  0.00    -0.004 C 
ATOM     38  C   UNL     1      -8.419  -1.141  11.546  0.00  0.00    -0.001 C 
ATOM     39  C   UNL     1      -9.450  -1.716  10.911  0.00  0.00    +0.017 C 
ENDBRANCH  23  26
ENDBRANCH  21  22
ENDBRANCH   1  21
TORSDOF 7
