REMARK  Name = ZINC11769543
REMARK  10 active torsions:
REMARK  status: ('A' for Active; 'I' for Inactive)
REMARK    1  A    between atoms: C_1  and  C_2
REMARK    2  A    between atoms: C_5  and  C_7
REMARK    3  A    between atoms: C_7  and  N_8
REMARK    4  A    between atoms: C_9  and  C_11
REMARK    5  A    between atoms: C_11  and  C_12
REMARK    6  A    between atoms: C_19  and  C_20
REMARK    7  A    between atoms: C_19  and  N_55
REMARK    8  A    between atoms: C_23  and  O_27
REMARK    9  A    between atoms: C_24  and  C_26
REMARK   10  A    between atoms: O_27  and  C_28
REMARK                            x       y       z     vdW  Elec       q    Type
REMARK                         _______ _______ _______ _____ _____    ______ ____
ROOT
ATOM      1  C   UNL     1       2.465   1.670   0.058  0.00  0.00    +0.028 C 
ATOM      2  C   UNL     1       1.057   2.191   0.129  0.00  0.00    +0.200 C 
ATOM      3  O   UNL     1       0.885   3.381   0.287  0.00  0.00    -0.278 OA
ATOM      4  N   UNL     1      -0.014   1.398   0.025  0.00  0.00    -0.318 N 
ATOM      5  C   UNL     1       0.083  -0.051  -0.131  0.00  0.00    +0.085 C 
ATOM      6  C   UNL     1       1.488  -0.434  -0.601  0.00  0.00    -0.058 C 
ATOM      7  H   UNL     1      -0.895   1.803   0.051  0.00  0.00    +0.149 HD
ATOM      8  N   UNL     1       2.463   0.215   0.298  0.00  0.00    +0.391 N 
ATOM      9  H   UNL     1       2.193   0.036   1.272  0.00  0.00    -0.080 HD
ENDROOT
BRANCH   1  10
ATOM     10  C   UNL     1       3.313   2.351   1.133  0.00  0.00    +0.089 C 
BRANCH  10  12
ATOM     11  N   UNL     1       3.286   2.590   3.595  0.00  0.00    -0.308 N 
ATOM     12  C   UNL     1       2.766   2.010   2.496  0.00  0.00    +0.212 C 
ATOM     13  O   UNL     1       1.859   1.213   2.602  0.00  0.00    -0.276 OA
ATOM     14  H   UNL     1       4.012   3.228   3.510  0.00  0.00    +0.149 HD
BRANCH  11  15
ATOM     15  C   UNL     1       2.754   2.259   4.920  0.00  0.00    +0.178 C 
BRANCH  15  20
ATOM     16  C   UNL     1       6.209   3.505   8.377  0.00  0.00    +0.086 C 
ATOM     17  C   UNL     1       5.005   3.579   7.474  0.00  0.00    +0.102 A 
ATOM     18  C   UNL     1       4.138   4.605   7.402  0.00  0.00    +0.045 A 
ATOM     19  C   UNL     1       3.172   4.258   6.429  0.00  0.00    +0.046 A 
ATOM     20  C   UNL     1       3.502   3.037   5.971  0.00  0.00    +0.122 A 
ATOM     21  O   UNL     1       4.615   2.632   6.605  0.00  0.00    -0.463 OA
ENDBRANCH  15  20
ENDBRANCH  11  15
ENDBRANCH  10  12
ENDBRANCH   1  10
BRANCH   8  22
ATOM     22  C   UNL     1       3.817  -0.338   0.064  0.00  0.00    -0.042 C 
BRANCH  22  23
ATOM     23  C   UNL     1       3.911  -1.690   0.722  0.00  0.00    -0.063 A 
ATOM     24  C   UNL     1       4.335  -1.790   2.035  0.00  0.00    +0.005 A 
ATOM     25  C   UNL     1       4.417  -3.028   2.643  0.00  0.00    +0.046 A 
ATOM     26  C   UNL     1       4.084  -4.172   1.932  0.00  0.00    +0.123 A 
ATOM     27  C   UNL     1       3.664  -4.069   0.614  0.00  0.00    -0.009 A 
ATOM     28  C   UNL     1       3.579  -2.829   0.012  0.00  0.00    +0.008 A 
ATOM     29  C   UNL     1       3.302  -5.310  -0.161  0.00  0.00    +0.047 C 
BRANCH  26  30
ATOM     30  O   UNL     1       4.169  -5.391   2.526  0.00  0.00    -0.495 OA
ATOM     31  C   UNL     1       4.609  -5.421   3.885  0.00  0.00    +0.277 C 
ENDBRANCH  26  30
ENDBRANCH  22  23
ENDBRANCH   8  22
TORSDOF 7
