REMARK  Name = ZINC57457282
REMARK  3 active torsions:
REMARK  status: ('A' for Active; 'I' for Inactive)
REMARK    1  A    between atoms: C_3  and  C_6
REMARK    2  A    between atoms: N_11  and  C_12
REMARK    3  A    between atoms: C_12  and  C_13
REMARK                            x       y       z     vdW  Elec       q    Type
REMARK                         _______ _______ _______ _____ _____    ______ ____
ROOT
ATOM      1  C   UNL     1       5.350   0.576  -3.171  0.00  0.00    +0.125 A 
ATOM      2  N   UNL     1       5.543   0.902  -4.476  0.00  0.00    -0.309 N 
ATOM      3  H   UNL     1       5.257   1.772  -4.795  0.00  0.00    +0.170 HD
ATOM      4  C   UNL     1       6.122   0.041  -5.334  0.00  0.00    +0.260 A 
ATOM      5  O   UNL     1       6.288   0.347  -6.502  0.00  0.00    -0.267 OA
ATOM      6  C   UNL     1       6.539  -1.240  -4.849  0.00  0.00    +0.075 A 
ATOM      7  C   UNL     1       7.187  -2.327  -5.599  0.00  0.00    -0.023 A 
ATOM      8  C   UNL     1       7.483  -3.445  -4.914  0.00  0.00    -0.004 A 
ATOM      9  S   UNL     1       6.932  -3.126  -3.254  0.00  0.00    -0.073 S 
ATOM     10  C   UNL     1       6.300  -1.487  -3.490  0.00  0.00    +0.116 A 
ATOM     11  N   UNL     1       5.726  -0.583  -2.700  0.00  0.00    -0.225 NA
ATOM     12  C   UNL     1       8.136  -4.487  -5.782  0.00  0.00    +0.043 C 
ATOM     13  C   UNL     1       7.825  -4.038  -7.227  0.00  0.00    +0.010 C 
ATOM     14  C   UNL     1       7.639  -2.518  -7.049  0.00  0.00    +0.037 C 
ENDROOT
BRANCH   1  15
ATOM     15  C   UNL     1       4.697   1.573  -2.249  0.00  0.00    +0.159 C 
BRANCH  15  20
ATOM     16  C   UNL     1       3.761   1.845  -0.024  0.00  0.00    +0.094 C 
ATOM     17  C   UNL     1       4.392   1.714   1.384  0.00  0.00    +0.025 C 
ATOM     18  C   UNL     1       5.905   1.663   1.046  0.00  0.00    +0.017 C 
ATOM     19  C   UNL     1       5.939   0.876  -0.281  0.00  0.00    +0.085 C 
ATOM     20  N   UNL     1       4.604   1.002  -0.899  0.00  0.00    -0.288 NA
BRANCH  16  23
ATOM     21  C   UNL     1      -0.016   1.351   0.009  0.00  0.00    +0.008 A 
ATOM     22  C   UNL     1       1.183   2.038   0.002  0.00  0.00    +0.013 A 
ATOM     23  C   UNL     1       2.343   1.336  -0.013  0.00  0.00    +0.007 A 
ATOM     24  S   UNL     1       1.754  -0.349  -0.017  0.00  0.00    -0.100 S 
ATOM     25  C   UNL     1       0.002  -0.004   0.002  0.00  0.00    +0.045 A 
ENDBRANCH  16  23
ENDBRANCH  15  20
ENDBRANCH   1  15
TORSDOF 3
