REMARK  Name = ZINC09427977
REMARK  6 active torsions:
REMARK  status: ('A' for Active; 'I' for Inactive)
REMARK    1  A    between atoms: C_1  and  C_2
REMARK    2  A    between atoms: C_2  and  C_3
REMARK    3  A    between atoms: C_6  and  N_9
REMARK    4  A    between atoms: C_13  and  C_14
REMARK    5  A    between atoms: C_17  and  C_19
REMARK    6  A    between atoms: C_23  and  N_25
REMARK                            x       y       z     vdW  Elec       q    Type
REMARK                         _______ _______ _______ _____ _____    ______ ____
ROOT
ATOM      1  N   UNL     1       4.673   7.135  -0.727  0.00  0.00    -0.190 N 
ATOM      2  C   UNL     1       3.367   7.205  -1.057  0.00  0.00    +0.264 C 
ATOM      3  O   UNL     1       2.760   6.212  -1.413  0.00  0.00    -0.269 OA
ATOM      4  C   UNL     1       2.698   8.514  -0.981  0.00  0.00    +0.103 C 
ATOM      5  C   UNL     1       1.354   8.663  -1.312  0.00  0.00    +0.064 C 
ATOM      6  C   UNL     1       3.511   9.657  -0.533  0.00  0.00    +0.257 C 
ATOM      7  O   UNL     1       3.026  10.770  -0.439  0.00  0.00    -0.270 OA
ATOM      8  N   UNL     1       4.807   9.439  -0.228  0.00  0.00    -0.235 N 
ATOM      9  C   UNL     1       5.353   8.219  -0.326  0.00  0.00    +0.320 C 
ATOM     10  O   UNL     1       6.527   8.089  -0.038  0.00  0.00    -0.251 OA
ATOM     11  H   UNL     1       5.356  10.182   0.069  0.00  0.00    +0.159 HD
ENDROOT
BRANCH   1  15
ATOM     12  C   UNL     1       6.635   3.463  -0.936  0.00  0.00    -0.048 A 
ATOM     13  C   UNL     1       6.730   4.357  -1.987  0.00  0.00    +0.005 A 
ATOM     14  C   UNL     1       6.081   5.575  -1.920  0.00  0.00    +0.024 A 
ATOM     15  C   UNL     1       5.333   5.901  -0.797  0.00  0.00    +0.046 A 
ATOM     16  C   UNL     1       5.244   5.003   0.259  0.00  0.00    +0.024 A 
ATOM     17  C   UNL     1       5.891   3.785   0.184  0.00  0.00    +0.005 A 
BRANCH  12  19
ATOM     18  C   UNL     1       8.752   2.276  -0.430  0.00  0.00    +0.009 C 
ATOM     19  C   UNL     1       7.344   2.136  -1.012  0.00  0.00    +0.032 C 
ENDBRANCH  12  19
ENDBRANCH   1  15
BRANCH   5  20
ATOM     20  C   UNL     1       0.667   7.616  -1.941  0.00  0.00    +0.129 A 
ATOM     21  C   UNL     1      -0.673   7.296  -1.761  0.00  0.00    +0.050 A 
ATOM     22  C   UNL     1      -0.937   6.199  -2.578  0.00  0.00    +0.050 A 
ATOM     23  C   UNL     1       0.242   5.880  -3.221  0.00  0.00    +0.136 A 
ATOM     24  O   UNL     1       1.193   6.744  -2.829  0.00  0.00    -0.455 OA
BRANCH  23  25
ATOM     25  C   UNL     1       0.425   4.777  -4.184  0.00  0.00    +0.019 A 
ATOM     26  C   UNL     1      -0.672   4.017  -4.598  0.00  0.00    +0.012 A 
ATOM     27  C   UNL     1      -0.494   2.991  -5.502  0.00  0.00    +0.003 A 
ATOM     28  C   UNL     1       0.769   2.707  -5.992  0.00  0.00    +0.033 A 
ATOM     29  C   UNL     1       1.860   3.456  -5.587  0.00  0.00    +0.127 A 
ATOM     30  C   UNL     1       1.696   4.488  -4.687  0.00  0.00    +0.044 A 
BRANCH  29  31
ATOM     31  N   UNL     1       3.206   3.148  -6.120  0.00  0.00    +0.056 N 
ATOM     32  O   UNL     1       3.365   2.191  -6.857  0.00  0.00    -0.126 OA
ATOM     33  O   UNL     1       4.155   3.852  -5.822  0.00  0.00    -0.126 OA
ENDBRANCH  29  31
ENDBRANCH  23  25
ENDBRANCH   5  20
TORSDOF 5
