REMARK  Name = ZINC26042561
REMARK  7 active torsions:
REMARK  status: ('A' for Active; 'I' for Inactive)
REMARK    1  A    between atoms: C_1  and  C_2
REMARK    2  A    between atoms: C_5  and  C_9
REMARK    3  A    between atoms: C_6  and  O_8
REMARK    4  A    between atoms: C_14  and  C_17
REMARK    5  A    between atoms: C_17  and  C_18
REMARK    6  A    between atoms: N_24  and  C_25
REMARK    7  A    between atoms: C_25  and  C_26
REMARK                            x       y       z     vdW  Elec       q    Type
REMARK                         _______ _______ _______ _____ _____    ______ ____
ROOT
ATOM      1  C   UNL     1       3.994   0.242  -3.155  0.00  0.00    +0.253 C 
ATOM      2  O   UNL     1       4.188   0.653  -4.283  0.00  0.00    -0.270 OA
ATOM      3  N   UNL     1       2.866   0.579  -2.499  0.00  0.00    -0.261 N 
ATOM      4  C   UNL     1       1.924   1.395  -3.112  0.00  0.00    +0.165 A 
ATOM      5  N   UNL     1       0.774   1.834  -2.637  0.00  0.00    -0.229 NA
ATOM      6  C   UNL     1      -0.012   2.608  -3.360  0.00  0.00    +0.058 A 
ATOM      7  C   UNL     1       0.392   2.955  -4.606  0.00  0.00    +0.072 A 
ATOM      8  S   UNL     1       1.962   2.107  -4.695  0.00  0.00    -0.060 S 
ATOM      9  H   UNL     1       2.691   0.206  -1.479  0.00  0.00    +0.157 HD
ENDROOT
BRANCH   1  14
ATOM     10  C   UNL     1       7.892  -3.145  -0.613  0.00  0.00    +0.044 C 
ATOM     11  C   UNL     1       6.874  -2.258  -1.282  0.00  0.00    -0.047 A 
ATOM     12  C   UNL     1       5.714  -1.911  -0.608  0.00  0.00    +0.004 A 
ATOM     13  C   UNL     1       4.776  -1.101  -1.209  0.00  0.00    +0.017 A 
ATOM     14  C   UNL     1       4.994  -0.625  -2.505  0.00  0.00    +0.078 A 
ATOM     15  C   UNL     1       6.166  -0.983  -3.186  0.00  0.00    +0.129 A 
ATOM     16  C   UNL     1       7.102  -1.795  -2.562  0.00  0.00    +0.049 A 
BRANCH  15  17
ATOM     17  O   UNL     1       6.387  -0.532  -4.446  0.00  0.00    -0.506 OA
ATOM     18  H   UNL     1       7.308  -0.814  -4.978  0.00  0.00    +0.292 HD
ENDBRANCH  15  17
ENDBRANCH   1  14
BRANCH   6  19
ATOM     19  C   UNL     1      -1.327   3.099  -2.810  0.00  0.00    +0.132 C 
BRANCH  19  20
ATOM     20  C   UNL     1      -2.157   1.922  -2.367  0.00  0.00    +0.138 A 
ATOM     21  N   UNL     1      -2.995   1.270  -3.107  0.00  0.00    -0.158 NA
ATOM     22  N   UNL     1      -3.567   0.256  -2.327  0.00  0.00    -0.254 N 
ATOM     23  H   UNL     1      -4.316  -0.419  -2.766  0.00  0.00    +0.191 HD
ATOM     24  C   UNL     1      -3.021   0.339  -1.096  0.00  0.00    +0.176 A 
ATOM     25  S   UNL     1      -3.375  -0.671   0.241  0.00  0.00    -0.011 S 
ATOM     26  N   UNL     1      -2.146   1.365  -1.112  0.00  0.00    -0.303 N 
BRANCH  26  27
ATOM     27  C   UNL     1      -1.328   1.812   0.018  0.00  0.00    +0.152 C 
BRANCH  27  28
ATOM     28  C   UNL     1      -0.013   1.076   0.008  0.00  0.00    -0.013 C 
ATOM     29  C   UNL     1       1.113   1.746   0.001  0.00  0.00    +0.005 C 
ENDBRANCH  27  28
ENDBRANCH  26  27
ENDBRANCH  19  20
ENDBRANCH   6  19
TORSDOF 6
