REMARK  Name = ZINC39631781
REMARK  13 active torsions:
REMARK  status: ('A' for Active; 'I' for Inactive)
REMARK    1  A    between atoms: C_1  and  C_2
REMARK    2  A    between atoms: C_2  and  C_4
REMARK    3  A    between atoms: C_2  and  N_11
REMARK    4  A    between atoms: C_4  and  C_5
REMARK    5  A    between atoms: C_5  and  C_6
REMARK    6  A    between atoms: C_6  and  C_7
REMARK    7  A    between atoms: C_7  and  C_8
REMARK    8  A    between atoms: C_7  and  C_9
REMARK    9  A    between atoms: C_7  and  O_10
REMARK   10  A    between atoms: C_12  and  C_14
REMARK   11  A    between atoms: C_25  and  C_27
REMARK   12  A    between atoms: C_29  and  O_34
REMARK   13  A    between atoms: O_34  and  C_35
REMARK                            x       y       z     vdW  Elec       q    Type
REMARK                         _______ _______ _______ _____ _____    ______ ____
ROOT
ATOM      1  C   UNL     1      -3.016  -0.832  -1.483  0.00  0.00    +0.100 C 
ATOM      2  C   UNL     1      -3.961  -0.143  -0.473  0.00  0.00    +0.121 C 
ATOM      3  N   UNL     1      -4.804   0.753  -1.299  0.00  0.00    -0.296 N 
ATOM      4  C   UNL     1      -5.080  -0.030  -2.527  0.00  0.00    +0.115 C 
ATOM      5  C   UNL     1      -3.756  -0.758  -2.829  0.00  0.00    -0.004 C 
ATOM      6  C   UNL     1      -2.936   0.038  -3.840  0.00  0.00    -0.010 C 
ATOM      7  C   UNL     1      -3.665   0.048  -5.186  0.00  0.00    -0.082 C 
ATOM      8  N   UNL     1      -3.852  -1.331  -5.655  0.00  0.00    +0.379 N 
ATOM      9  C   UNL     1      -4.718  -2.063  -4.723  0.00  0.00    -0.082 C 
ATOM     10  C   UNL     1      -4.033  -2.163  -3.357  0.00  0.00    -0.010 C 
ATOM     11  C   UNL     1      -5.224   1.998  -1.002  0.00  0.00    +0.248 C 
ATOM     12  O   UNL     1      -5.995   2.574  -1.745  0.00  0.00    -0.270 OA
ATOM     13  H   UNL     1      -4.278  -1.319  -6.569  0.00  0.00    -0.086 HD
ATOM     14  H   UNL     1      -2.955  -1.790  -5.710  0.00  0.00    -0.086 HD
ENDROOT
BRANCH  11  15
ATOM     15  C   UNL     1      -4.747   2.665   0.228  0.00  0.00    +0.054 A 
ATOM     16  C   UNL     1      -4.535   1.922   1.390  0.00  0.00    +0.059 A 
ATOM     17  C   UNL     1      -4.088   2.553   2.538  0.00  0.00    +0.121 A 
ATOM     18  C   UNL     1      -3.851   3.922   2.533  0.00  0.00    +0.047 A 
ATOM     19  C   UNL     1      -4.060   4.660   1.383  0.00  0.00    +0.019 A 
ATOM     20  C   UNL     1      -4.501   4.040   0.230  0.00  0.00    +0.030 A 
ATOM     21 BR   UNL     1      -4.779   5.053  -1.342  0.00  0.00    -0.050 Br
BRANCH  17  22
ATOM     22  O   UNL     1      -3.880   1.833   3.672  0.00  0.00    -0.495 OA
ATOM     23  C   UNL     1      -3.419   2.548   4.820  0.00  0.00    +0.277 C 
ENDBRANCH  17  22
ENDBRANCH  11  15
BRANCH   1  25
ATOM     24  N   UNL     1      -0.578  -0.752  -1.893  0.00  0.00    -0.312 N 
ATOM     25  C   UNL     1      -1.705  -0.092  -1.564  0.00  0.00    +0.218 C 
ATOM     26  O   UNL     1      -1.665   1.098  -1.333  0.00  0.00    -0.275 OA
ATOM     27  H   UNL     1      -0.609  -1.704  -2.077  0.00  0.00    +0.149 HD
BRANCH  24  29
ATOM     28  C   UNL     1       1.324   0.046  -0.578  0.00  0.00    +0.028 C 
ATOM     29  C   UNL     1       0.696  -0.033  -1.971  0.00  0.00    +0.070 C 
BRANCH  29  30
ATOM     30  C   UNL     1       1.644  -0.775  -2.916  0.00  0.00    +0.022 C 
BRANCH  30  31
ATOM     31  C   UNL     1       1.075  -0.746  -4.335  0.00  0.00    +0.005 C 
BRANCH  31  32
ATOM     32  C   UNL     1       2.022  -1.489  -5.280  0.00  0.00    +0.034 C 
BRANCH  32  33
ATOM     33  C   UNL     1       1.453  -1.460  -6.700  0.00  0.00    +0.061 C 
ATOM     34  C   UNL     1       2.334  -2.306  -7.620  0.00  0.00    +0.041 C 
ATOM     35  C   UNL     1       0.032  -2.027  -6.691  0.00  0.00    +0.041 C 
BRANCH  33  36
ATOM     36  O   UNL     1       1.425  -0.112  -7.174  0.00  0.00    -0.389 OA
ATOM     37  H   UNL     1       2.294   0.312  -7.207  0.00  0.00    +0.210 HD
ENDBRANCH  33  36
ENDBRANCH  32  33
ENDBRANCH  31  32
ENDBRANCH  30  31
ENDBRANCH  29  30
ENDBRANCH  24  29
ENDBRANCH   1  25
TORSDOF 9
