REMARK  Name = ZINC08014903
REMARK  7 active torsions:
REMARK  status: ('A' for Active; 'I' for Inactive)
REMARK    1  A    between atoms: C_2  and  C_10
REMARK    2  A    between atoms: C_5  and  O_8
REMARK    3  A    between atoms: C_6  and  O_7
REMARK    4  A    between atoms: N_11  and  N_12
REMARK    5  A    between atoms: N_12  and  C_13
REMARK    6  A    between atoms: C_13  and  N_15
REMARK    7  A    between atoms: N_15  and  C_16
REMARK                            x       y       z     vdW  Elec       q    Type
REMARK                         _______ _______ _______ _____ _____    ______ ____
ROOT
ATOM      1  C   UNL     1       1.171   3.564   0.009  0.00  0.00    +0.138 C 
ATOM      2  N   UNL     1       2.289   4.224   0.002  0.00  0.00    -0.188 NA
ENDROOT
BRANCH   1   4
ATOM      3  C   UNL     1      -0.017   1.378   0.010  0.00  0.00    +0.058 A 
ATOM      4  C   UNL     1       1.186   2.090   0.002  0.00  0.00    -0.000 A 
ATOM      5  C   UNL     1       2.401   1.402  -0.013  0.00  0.00    +0.033 A 
ATOM      6  C   UNL     1       2.412   0.022  -0.021  0.00  0.00    +0.087 A 
ATOM      7  C   UNL     1       1.218  -0.685  -0.014  0.00  0.00    +0.177 A 
ATOM      8  C   UNL     1       0.002  -0.004   0.002  0.00  0.00    +0.160 A 
ATOM      9 CL   UNL     1       3.923  -0.832  -0.040  0.00  0.00    -0.080 Cl
BRANCH   8  10
ATOM     10  O   UNL     1      -1.166  -0.700   0.009  0.00  0.00    -0.503 OA
ATOM     11  H   UNL     1      -1.513  -0.896  -0.872  0.00  0.00    +0.292 HD
ENDBRANCH   8  10
BRANCH   7  12
ATOM     12  O   UNL     1       1.234  -2.044  -0.022  0.00  0.00    -0.502 OA
ATOM     13  H   UNL     1       1.246  -2.443   0.859  0.00  0.00    +0.292 HD
ENDBRANCH   7  12
ENDBRANCH   1   4
BRANCH   2  14
ATOM     14  N   UNL     1       2.275   5.625   0.010  0.00  0.00    -0.218 N 
ATOM     15  H   UNL     1       1.430   6.102   0.020  0.00  0.00    +0.176 HD
BRANCH  14  16
ATOM     16  C   UNL     1       3.436   6.311   0.002  0.00  0.00    +0.150 C 
ATOM     17  S   UNL     1       3.419   8.023   0.011  0.00  0.00    -0.017 S 
BRANCH  16  18
ATOM     18  N   UNL     1       4.609   5.648  -0.012  0.00  0.00    -0.322 N 
ATOM     19  H   UNL     1       4.619   4.678  -0.017  0.00  0.00    +0.148 HD
BRANCH  18  20
ATOM     20  C   UNL     1       5.871   6.393  -0.020  0.00  0.00    +0.072 C 
ATOM     21  C   UNL     1       6.259   6.754   1.415  0.00  0.00    +0.022 C 
ATOM     22  C   UNL     1       7.577   7.532   1.407  0.00  0.00    +0.002 C 
ATOM     23  C   UNL     1       8.675   6.668   0.782  0.00  0.00    +0.000 C 
ATOM     24  C   UNL     1       8.286   6.308  -0.653  0.00  0.00    +0.002 C 
ATOM     25  C   UNL     1       6.969   5.530  -0.644  0.00  0.00    +0.022 C 
ENDBRANCH  18  20
ENDBRANCH  16  18
ENDBRANCH  14  16
ENDBRANCH   2  14
TORSDOF 7
