REMARK  Name = ZINC62427499
REMARK  6 active torsions:
REMARK  status: ('A' for Active; 'I' for Inactive)
REMARK    1  A    between atoms: C_1  and  C_2
REMARK    2  A    between atoms: C_2  and  C_3
REMARK    3  A    between atoms: C_3  and  C_4
REMARK    4  A    between atoms: C_3  and  C_6
REMARK    5  A    between atoms: C_4  and  C_5
REMARK    6  A    between atoms: C_7  and  C_20
REMARK                            x       y       z     vdW  Elec       q    Type
REMARK                         _______ _______ _______ _____ _____    ______ ____
ROOT
ATOM      1  C   UNL     1       0.520  -2.067  -1.357  0.00  0.00    +0.088 A 
ATOM      2  C   UNL     1       0.885  -3.037  -0.468  0.00  0.00    +0.185 A 
ATOM      3  N   UNL     1       0.520  -4.231  -0.966  0.00  0.00    -0.118 NA
ATOM      4  N   UNL     1      -0.049  -4.067  -2.109  0.00  0.00    -0.057 NA
ATOM      5  N   UNL     1      -0.076  -2.696  -2.397  0.00  0.00    -0.191 N 
ATOM      6  C   UNL     1      -0.611  -2.095  -3.537  0.00  0.00    +0.196 A 
ATOM      7  N   UNL     1      -0.647  -0.818  -3.846  0.00  0.00    -0.226 NA
ATOM      8  C   UNL     1      -1.193  -0.384  -4.976  0.00  0.00    +0.054 A 
ATOM      9  C   UNL     1      -1.704  -1.357  -5.775  0.00  0.00    +0.015 A 
ATOM     10  S   UNL     1      -1.360  -2.831  -4.855  0.00  0.00    -0.052 S 
ATOM     11  C   UNL     1      -2.378  -1.193  -7.095  0.00  0.00    +0.044 C 
ATOM     12  C   UNL     1      -2.742   0.291  -7.266  0.00  0.00    +0.006 C 
ATOM     13  C   UNL     1      -1.523   1.144  -6.902  0.00  0.00    +0.006 C 
ATOM     14  C   UNL     1      -1.265   1.078  -5.395  0.00  0.00    +0.056 C 
ENDROOT
BRANCH   2  15
ATOM     15  C   UNL     1       1.546  -2.819   0.784  0.00  0.00    +0.123 C 
ATOM     16  N   UNL     1       2.070  -2.647   1.777  0.00  0.00    -0.189 NA
ENDBRANCH   2  15
BRANCH   1  17
ATOM     17  C   UNL     1       0.733  -0.583  -1.206  0.00  0.00    +0.040 C 
BRANCH  17  19
ATOM     18  C   UNL     1      -1.492  -0.252  -0.119  0.00  0.00    +0.004 C 
ATOM     19  C   UNL     1       0.019  -0.091   0.054  0.00  0.00    +0.006 C 
ENDBRANCH  17  19
BRANCH  17  20
ATOM     20  C   UNL     1       2.230  -0.292  -1.091  0.00  0.00    +0.006 C 
ATOM     21  C   UNL     1       2.926  -0.671  -2.399  0.00  0.00    +0.004 C 
ENDBRANCH  17  20
ENDBRANCH   1  17
TORSDOF 4
