REMARK  Name = ZINC01212467
REMARK  6 active torsions:
REMARK  status: ('A' for Active; 'I' for Inactive)
REMARK    1  A    between atoms: C_1  and  C_2
REMARK    2  A    between atoms: C_9  and  N_16
REMARK    3  A    between atoms: C_10  and  C_11
REMARK    4  A    between atoms: N_13  and  C_14
REMARK    5  A    between atoms: N_13  and  C_15
REMARK    6  A    between atoms: C_17  and  C_19
REMARK                            x       y       z     vdW  Elec       q    Type
REMARK                         _______ _______ _______ _____ _____    ______ ____
ROOT
ATOM      1  C   UNL     1      -0.950  -5.543   4.667  0.00  0.00    +0.008 C 
ATOM      2  C   UNL     1      -0.691  -4.596   3.493  0.00  0.00    -0.009 C 
ATOM      3  C   UNL     1      -1.544  -3.335   3.649  0.00  0.00    +0.008 C 
ATOM      4  C   UNL     1      -1.112  -2.284   2.624  0.00  0.00    +0.037 C 
ATOM      5  C   UNL     1      -1.108  -2.920   1.239  0.00  0.00    -0.023 A 
ATOM      6  C   UNL     1      -1.096  -4.262   1.090  0.00  0.00    -0.004 A 
ATOM      7  S   UNL     1      -1.109  -4.523  -0.661  0.00  0.00    -0.077 S 
ATOM      8  C   UNL     1      -1.137  -2.873  -1.189  0.00  0.00    +0.085 A 
ATOM      9  C   UNL     1      -1.136  -2.160   0.001  0.00  0.00    +0.069 A 
ATOM     10  C   UNL     1      -1.071  -5.292   2.177  0.00  0.00    +0.046 C 
ENDROOT
BRANCH   9  11
ATOM     11  C   UNL     1      -1.156  -0.694   0.009  0.00  0.00    +0.249 C 
ATOM     12  O   UNL     1      -2.218  -0.100   0.023  0.00  0.00    -0.270 OA
ATOM     13  N   UNL     1       0.002  -0.004   0.002  0.00  0.00    -0.304 N 
ATOM     14  C   UNL     1      -0.018   1.461   0.010  0.00  0.00    +0.132 C 
ATOM     15  C   UNL     1       1.281  -0.719  -0.014  0.00  0.00    +0.132 C 
ENDBRANCH   9  11
BRANCH   8  16
ATOM     16  N   UNL     1      -1.156  -2.385  -2.486  0.00  0.00    -0.275 N 
ATOM     17  C   UNL     1      -1.154  -3.239  -3.528  0.00  0.00    +0.251 C 
ATOM     18  O   UNL     1      -1.135  -4.438  -3.331  0.00  0.00    -0.270 OA
ATOM     19  H   UNL     1      -1.172  -1.427  -2.643  0.00  0.00    +0.156 HD
BRANCH  17  20
ATOM     20  C   UNL     1      -1.175  -2.718  -4.909  0.00  0.00    +0.072 A 
ATOM     21  C   UNL     1      -1.202  -1.341  -5.140  0.00  0.00    +0.016 A 
ATOM     22  C   UNL     1      -1.217  -0.861  -6.432  0.00  0.00    +0.001 A 
ATOM     23  C   UNL     1      -1.214  -1.740  -7.502  0.00  0.00    +0.003 A 
ATOM     24  C   UNL     1      -1.192  -3.105  -7.284  0.00  0.00    +0.039 A 
ATOM     25  C   UNL     1      -1.172  -3.602  -5.994  0.00  0.00    +0.135 A 
ATOM     26  F   UNL     1      -1.151  -4.936  -5.781  0.00  0.00    -0.205 F 
ENDBRANCH  17  20
ENDBRANCH   8  16
TORSDOF 3
