REMARK  Name = ZINC13226430
REMARK  7 active torsions:
REMARK  status: ('A' for Active; 'I' for Inactive)
REMARK    1  A    between atoms: C_1  and  C_2
REMARK    2  A    between atoms: C_2  and  C_3
REMARK    3  A    between atoms: C_2  and  C_4
REMARK    4  A    between atoms: C_4  and  C_6
REMARK    5  A    between atoms: C_4  and  C_13
REMARK    6  A    between atoms: N_15  and  C_16
REMARK    7  A    between atoms: C_21  and  C_22
REMARK                            x       y       z     vdW  Elec       q    Type
REMARK                         _______ _______ _______ _____ _____    ______ ____
ROOT
ATOM      1  C   UNL     1      -1.289   3.752   0.149  0.00  0.00    +0.225 C 
ATOM      2  O   UNL     1      -2.031   4.690   0.344  0.00  0.00    -0.275 OA
ATOM      3  N   UNL     1      -1.137   3.260  -1.097  0.00  0.00    -0.284 N 
ATOM      4  H   UNL     1      -0.501   2.547  -1.263  0.00  0.00    +0.155 HD
ENDROOT
BRANCH   3   5
ATOM      5  C   UNL     1      -1.894   3.777  -2.147  0.00  0.00    +0.051 A 
ATOM      6  C   UNL     1      -3.207   4.169  -1.930  0.00  0.00    +0.073 A 
ATOM      7  C   UNL     1      -3.954   4.686  -2.975  0.00  0.00    +0.164 A 
ATOM      8  C   UNL     1      -3.400   4.806  -4.247  0.00  0.00    +0.163 A 
ATOM      9  C   UNL     1      -2.098   4.416  -4.479  0.00  0.00    +0.066 A 
ATOM     10  C   UNL     1      -1.332   3.897  -3.428  0.00  0.00    +0.088 A 
ATOM     11  O   UNL     1      -4.155   5.312  -5.266  0.00  0.00    -0.488 OA
ATOM     12  C   UNL     1      -4.490   6.698  -5.167  0.00  0.00    +0.232 C 
ATOM     13  C   UNL     1      -5.727   6.893  -4.303  0.00  0.00    +0.082 C 
ATOM     14  C   UNL     1      -5.494   6.481  -2.858  0.00  0.00    +0.232 C 
ATOM     15  O   UNL     1      -5.243   5.077  -2.765  0.00  0.00    -0.488 OA
BRANCH  10  16
ATOM     16  C   UNL     1       0.058   3.477  -3.665  0.00  0.00    +0.388 C 
ATOM     17  O   UNL     1       0.705   2.978  -2.765  0.00  0.00    -0.241 OA
ATOM     18  O   UNL     1       0.615   3.647  -4.881  0.00  0.00    -0.241 OA
ENDBRANCH  10  16
ENDBRANCH   3   5
BRANCH   1  19
ATOM     19  C   UNL     1      -0.535   3.135   1.299  0.00  0.00    +0.108 C 
BRANCH  19  20
ATOM     20  C   UNL     1      -0.633   4.035   2.504  0.00  0.00    -0.035 A 
ATOM     21  C   UNL     1      -1.870   4.345   3.037  0.00  0.00    +0.006 A 
ATOM     22  C   UNL     1      -1.959   5.166   4.145  0.00  0.00    +0.020 A 
ATOM     23  C   UNL     1      -0.811   5.686   4.714  0.00  0.00    +0.041 A 
ATOM     24  C   UNL     1       0.427   5.380   4.177  0.00  0.00    +0.020 A 
ATOM     25  C   UNL     1       0.515   4.555   3.072  0.00  0.00    +0.006 A 
ATOM     26 CL   UNL     1      -0.923   6.724   6.102  0.00  0.00    -0.084 Cl
ENDBRANCH  19  20
BRANCH  19  28
ATOM     27  C   UNL     1      -0.917   0.812   0.460  0.00  0.00    +0.008 C 
ATOM     28  C   UNL     1      -1.141   1.770   1.632  0.00  0.00    -0.001 C 
ATOM     29  C   UNL     1      -0.470   1.206   2.886  0.00  0.00    +0.008 C 
ENDBRANCH  19  28
ENDBRANCH   1  19
TORSDOF 5
