REMARK  Name = ZINC58403044
REMARK  7 active torsions:
REMARK  status: ('A' for Active; 'I' for Inactive)
REMARK    1  A    between atoms: C_1  and  C_2
REMARK    2  A    between atoms: C_2  and  O_3
REMARK    3  A    between atoms: O_3  and  C_4
REMARK    4  A    between atoms: C_4  and  C_6
REMARK    5  A    between atoms: C_7  and  C_31
REMARK    6  A    between atoms: C_16  and  N_17
REMARK    7  A    between atoms: C_18  and  C_20
REMARK                            x       y       z     vdW  Elec       q    Type
REMARK                         _______ _______ _______ _____ _____    ______ ____
ROOT
ATOM      1  C   UNL     1       1.264  -2.378  -2.646  0.00  0.00    +0.120 C 
ATOM      2  C   UNL     1       1.633  -3.701  -2.617  0.00  0.00    +0.023 C 
ATOM      3  N   UNL     1       2.518  -4.182  -3.533  0.00  0.00    -0.316 N 
ATOM      4  C   UNL     1       3.802  -3.612  -3.597  0.00  0.00    +0.057 A 
ATOM      5  C   UNL     1       4.909  -4.410  -3.362  0.00  0.00    +0.025 A 
ATOM      6  C   UNL     1       6.181  -3.860  -3.382  0.00  0.00    +0.002 A 
ATOM      7  C   UNL     1       6.350  -2.511  -3.633  0.00  0.00    +0.002 A 
ATOM      8  C   UNL     1       5.255  -1.707  -3.884  0.00  0.00    +0.030 A 
ATOM      9  C   UNL     1       3.969  -2.255  -3.886  0.00  0.00    +0.087 A 
ATOM     10  N   UNL     1       2.913  -1.463  -4.226  0.00  0.00    -0.226 NA
ATOM     11  C   UNL     1       1.723  -1.479  -3.711  0.00  0.00    +0.172 C 
ATOM     12  C   UNL     1       1.060  -4.621  -1.570  0.00  0.00    +0.061 C 
ATOM     13  H   UNL     1       2.267  -4.904  -4.131  0.00  0.00    +0.152 HD
ENDROOT
BRANCH  11  14
ATOM     14  N   UNL     1       0.823  -0.583  -4.195  0.00  0.00    -0.190 NA
ATOM     15  C   UNL     1       1.170   0.244  -5.143  0.00  0.00    +0.292 C 
ATOM     16  O   UNL     1       2.419   0.210  -5.640  0.00  0.00    -0.267 OA
BRANCH  15  17
ATOM     17  C   UNL     1       0.172   1.237  -5.679  0.00  0.00    +0.300 C 
ATOM     18  C   UNL     1       0.798   2.638  -5.704  0.00  0.00    +0.283 C 
ATOM     19  O   UNL     1      -0.170   3.553  -6.231  0.00  0.00    -0.484 OA
ATOM     20  C   UNL     1      -0.830   3.163  -7.355  0.00  0.00    +0.162 A 
ATOM     21  C   UNL     1      -1.496   4.112  -8.116  0.00  0.00    +0.049 A 
ATOM     22  C   UNL     1      -2.174   3.731  -9.259  0.00  0.00    +0.004 A 
ATOM     23  C   UNL     1      -2.190   2.404  -9.646  0.00  0.00    +0.004 A 
ATOM     24  C   UNL     1      -1.527   1.454  -8.893  0.00  0.00    +0.049 A 
ATOM     25  C   UNL     1      -0.844   1.829  -7.746  0.00  0.00    +0.163 A 
ATOM     26  O   UNL     1      -0.189   0.883  -7.019  0.00  0.00    -0.472 OA
ENDBRANCH  15  17
ENDBRANCH  11  14
BRANCH   1  27
ATOM     27  C   UNL     1       0.388  -1.857  -1.597  0.00  0.00    +0.344 C 
ATOM     28  O   UNL     1      -0.101  -2.615  -0.780  0.00  0.00    -0.245 OA
BRANCH  27  29
ATOM     29  O   UNL     1       0.123  -0.535  -1.535  0.00  0.00    -0.461 OA
BRANCH  29  31
ATOM     30  C   UNL     1      -0.922   1.421  -0.575  0.00  0.00    +0.048 C 
ATOM     31  C   UNL     1      -0.740  -0.096  -0.484  0.00  0.00    +0.229 C 
ENDBRANCH  29  31
ENDBRANCH  27  29
ENDBRANCH   1  27
TORSDOF 5
