REMARK  Name = ZINC38966635
REMARK  6 active torsions:
REMARK  status: ('A' for Active; 'I' for Inactive)
REMARK    1  A    between atoms: C_1  and  C_2
REMARK    2  A    between atoms: C_4  and  C_33
REMARK    3  A    between atoms: C_6  and  N_8
REMARK    4  A    between atoms: N_8  and  C_9
REMARK    5  A    between atoms: N_12  and  S_13
REMARK    6  A    between atoms: S_13  and  C_16
REMARK                            x       y       z     vdW  Elec       q    Type
REMARK                         _______ _______ _______ _____ _____    ______ ____
ROOT
ATOM      1  C   UNL     1       0.159  -2.076   3.662  0.00  0.00    +0.237 C 
ATOM      2  C   UNL     1       1.329  -2.656   4.423  0.00  0.00    +0.192 C 
ATOM      3  N   UNL     1       2.520  -2.656   3.901  0.00  0.00    -0.110 NA
ATOM      4  N   UNL     1       1.121  -3.169   5.646  0.00  0.00    -0.226 NA
ATOM      5  C   UNL     1      -0.075  -3.180   6.196  0.00  0.00    +0.089 A 
ATOM      6  C   UNL     1      -0.259  -3.731   7.489  0.00  0.00    +0.030 A 
ATOM      7  C   UNL     1      -1.484  -3.745   8.058  0.00  0.00    +0.002 A 
ATOM      8  C   UNL     1      -2.624  -3.228   7.420  0.00  0.00    +0.002 A 
ATOM      9  C   UNL     1      -2.561  -2.681   6.186  0.00  0.00    +0.027 A 
ATOM     10  C   UNL     1      -1.262  -2.627   5.498  0.00  0.00    +0.063 A 
ATOM     11  N   UNL     1      -1.163  -2.106   4.308  0.00  0.00    -0.359 N 
ATOM     12  H   UNL     1      -1.943  -1.746   3.858  0.00  0.00    +0.162 HD
ENDROOT
BRANCH   3  13
ATOM     13  S   UNL     1       3.794  -3.294   4.746  0.00  0.00    +0.103 S 
ATOM     14  O   UNL     1       3.991  -2.457   5.878  0.00  0.00    -0.146 OA
ATOM     15  O   UNL     1       3.546  -4.688   4.864  0.00  0.00    -0.146 OA
BRANCH  13  16
ATOM     16  C   UNL     1       5.228  -3.121   3.736  0.00  0.00    +0.141 A 
ATOM     17  C   UNL     1       6.244  -2.322   4.137  0.00  0.00    +0.031 A 
ATOM     18  C   UNL     1       7.394  -2.161   3.364  0.00  0.00    +0.004 A 
ATOM     19  C   UNL     1       7.543  -2.798   2.179  0.00  0.00    +0.031 A 
ATOM     20  C   UNL     1       6.517  -3.653   1.694  0.00  0.00    +0.102 A 
ATOM     21  C   UNL     1       5.317  -3.825   2.505  0.00  0.00    +0.127 A 
ATOM     22  N   UNL     1       4.427  -4.652   1.956  0.00  0.00    -0.189 NA
ATOM     23  S   UNL     1       5.084  -5.139   0.570  0.00  0.00    +0.117 S 
ATOM     24  N   UNL     1       6.489  -4.356   0.561  0.00  0.00    -0.191 NA
ENDBRANCH  13  16
ENDBRANCH   3  13
BRANCH   1  25
ATOM     25  N   UNL     1       0.051  -2.796   2.390  0.00  0.00    -0.318 N 
ATOM     26  H   UNL     1       0.027  -3.766   2.383  0.00  0.00    +0.148 HD
BRANCH  25  32
ATOM     27  C   UNL     1      -0.364   1.494   0.029  0.00  0.00    +0.044 C 
ATOM     28  C   UNL     1      -0.217  -0.006   0.014  0.00  0.00    -0.048 A 
ATOM     29  C   UNL     1      -0.150  -0.681  -1.190  0.00  0.00    +0.006 A 
ATOM     30  C   UNL     1      -0.016  -2.058  -1.209  0.00  0.00    -0.048 A 
ATOM     31  C   UNL     1       0.051  -2.762  -0.023  0.00  0.00    +0.026 A 
ATOM     32  C   UNL     1      -0.016  -2.087   1.189  0.00  0.00    +0.029 A 
ATOM     33  C   UNL     1      -0.145  -0.704   1.204  0.00  0.00    +0.026 A 
ATOM     34  C   UNL     1       0.057  -2.789  -2.524  0.00  0.00    +0.044 C 
ENDBRANCH  25  32
ENDBRANCH   1  25
TORSDOF 4
