REMARK  Name = ZINC07977732
REMARK  8 active torsions:
REMARK  status: ('A' for Active; 'I' for Inactive)
REMARK    1  A    between atoms: C_5  and  O_7
REMARK    2  A    between atoms: O_7  and  C_8
REMARK    3  A    between atoms: C_8  and  C_9
REMARK    4  A    between atoms: C_12  and  S_15
REMARK    5  A    between atoms: N_13  and  N_14
REMARK    6  A    between atoms: S_15  and  C_16
REMARK    7  A    between atoms: C_16  and  C_17
REMARK    8  A    between atoms: N_19  and  C_20
REMARK                            x       y       z     vdW  Elec       q    Type
REMARK                         _______ _______ _______ _____ _____    ______ ____
ROOT
ATOM      1  C   UNL     1      -6.743  -4.767  -0.616  0.00  0.00    +0.189 A 
ATOM      2  N   UNL     1      -7.136  -3.528  -0.530  0.00  0.00    -0.128 NA
ATOM      3  N   UNL     1      -6.119  -2.749  -0.423  0.00  0.00    -0.121 NA
ATOM      4  C   UNL     1      -5.013  -3.455  -0.444  0.00  0.00    +0.209 A 
ATOM      5  N   UNL     1      -5.377  -4.766  -0.564  0.00  0.00    -0.225 N 
ENDROOT
BRANCH   5   6
ATOM      6  N   UNL     1      -4.548  -5.850  -0.622  0.00  0.00    -0.295 N 
ATOM      7  H   UNL     1      -4.363  -6.213   0.302  0.00  0.00    +0.163 HD
ATOM      8  H   UNL     1      -4.929  -6.565  -1.222  0.00  0.00    +0.163 HD
ENDBRANCH   5   6
BRANCH   1   9
ATOM      9  C   UNL     1      -7.630  -5.978  -0.748  0.00  0.00    +0.306 C 
BRANCH   9  10
ATOM     10  O   UNL     1      -7.961  -6.470   0.553  0.00  0.00    -0.481 OA
BRANCH  10  15
ATOM     11  C   UNL     1     -10.033  -9.273  -0.493  0.00  0.00    +0.004 A 
ATOM     12  C   UNL     1     -10.392  -9.801   0.733  0.00  0.00    +0.003 A 
ATOM     13  C   UNL     1      -9.938  -9.216   1.900  0.00  0.00    +0.042 A 
ATOM     14  C   UNL     1      -9.123  -8.099   1.843  0.00  0.00    +0.165 A 
ATOM     15  C   UNL     1      -8.761  -7.568   0.612  0.00  0.00    +0.156 A 
ATOM     16  C   UNL     1      -9.223  -8.155  -0.556  0.00  0.00    +0.048 A 
ATOM     17  F   UNL     1      -8.680  -7.527   2.984  0.00  0.00    -0.202 F 
ENDBRANCH  10  15
ENDBRANCH   9  10
ENDBRANCH   1   9
BRANCH   4  18
ATOM     18  S   UNL     1      -3.369  -2.830  -0.331  0.00  0.00    -0.075 S 
BRANCH  18  19
ATOM     19  C   UNL     1      -3.715  -1.058  -0.200  0.00  0.00    +0.173 C 
BRANCH  19  20
ATOM     20  C   UNL     1      -2.417  -0.300  -0.089  0.00  0.00    +0.227 C 
ATOM     21  O   UNL     1      -1.362  -0.899  -0.097  0.00  0.00    -0.275 OA
ATOM     22  N   UNL     1      -2.428   1.043   0.020  0.00  0.00    -0.285 N 
ATOM     23  H   UNL     1      -3.271   1.516   0.103  0.00  0.00    +0.155 HD
BRANCH  22  24
ATOM     24  C   UNL     1      -1.224   1.756   0.012  0.00  0.00    +0.034 A 
ATOM     25  C   UNL     1      -0.151   1.302  -0.745  0.00  0.00    +0.023 A 
ATOM     26  C   UNL     1       1.032   2.012  -0.753  0.00  0.00    +0.006 A 
ATOM     27  C   UNL     1       1.157   3.172  -0.006  0.00  0.00    -0.044 A 
ATOM     28  C   UNL     1       0.092   3.623   0.752  0.00  0.00    -0.042 A 
ATOM     29  C   UNL     1      -1.096   2.914   0.764  0.00  0.00    +0.027 A 
ATOM     30  C   UNL     1       0.479   4.899   1.469  0.00  0.00    +0.036 C 
ATOM     31  C   UNL     1       1.732   5.414   0.731  0.00  0.00    +0.009 C 
ATOM     32  C   UNL     1       2.331   4.115   0.150  0.00  0.00    +0.036 C 
ENDBRANCH  22  24
ENDBRANCH  19  20
ENDBRANCH  18  19
ENDBRANCH   4  18
TORSDOF 8
