REMARK  Name = ZINC08209944
REMARK  5 active torsions:
REMARK  status: ('A' for Active; 'I' for Inactive)
REMARK    1  A    between atoms: C_3  and  C_19
REMARK    2  A    between atoms: C_5  and  N_7
REMARK    3  A    between atoms: C_8  and  C_10
REMARK    4  A    between atoms: C_10  and  N_11
REMARK    5  A    between atoms: C_12  and  C_14
REMARK                            x       y       z     vdW  Elec       q    Type
REMARK                         _______ _______ _______ _____ _____    ______ ____
ROOT
ATOM      1  C   UNL     1      -1.443  -4.123  -0.325  0.00  0.00    +0.002 A 
ATOM      2  C   UNL     1      -0.980  -2.822  -0.346  0.00  0.00    +0.012 A 
ATOM      3  C   UNL     1      -1.803  -1.782   0.084  0.00  0.00    +0.021 A 
ATOM      4  C   UNL     1      -3.096  -2.058   0.526  0.00  0.00    +0.035 A 
ATOM      5  C   UNL     1      -3.554  -3.367   0.539  0.00  0.00    +0.034 A 
ATOM      6  C   UNL     1      -2.725  -4.397   0.113  0.00  0.00    +0.023 A 
ENDROOT
BRANCH   3   7
ATOM      7  C   UNL     1      -1.308  -0.388   0.067  0.00  0.00    +0.164 A 
ATOM      8  N   UNL     1      -2.040   0.706   0.086  0.00  0.00    -0.129 NA
ATOM      9  N   UNL     1      -1.275   1.741   0.068  0.00  0.00    -0.134 NA
ATOM     10  C   UNL     1      -0.026   1.371   0.041  0.00  0.00    +0.134 A 
ATOM     11  N   UNL     1      -0.003   0.012   0.028  0.00  0.00    -0.311 N 
ATOM     12  C   UNL     1       1.185  -0.840  -0.028  0.00  0.00    +0.125 C 
ATOM     13  C   UNL     1       2.366  -0.105   0.613  0.00  0.00    +0.022 C 
ATOM     14  C   UNL     1       3.095   0.721  -0.445  0.00  0.00    +0.002 C 
ATOM     15  C   UNL     1       2.164   1.773  -1.039  0.00  0.00    +0.008 C 
ATOM     16  C   UNL     1       1.189   2.263   0.035  0.00  0.00    +0.076 C 
ENDBRANCH   3   7
BRANCH   5  17
ATOM     17  N   UNL     1      -4.851  -3.650   0.982  0.00  0.00    -0.284 N 
ATOM     18  C   UNL     1      -5.851  -2.779   0.740  0.00  0.00    +0.234 C 
ATOM     19  O   UNL     1      -5.649  -1.799   0.054  0.00  0.00    -0.274 OA
ATOM     20  H   UNL     1      -5.030  -4.473   1.463  0.00  0.00    +0.155 HD
BRANCH  18  21
ATOM     21  C   UNL     1      -7.220  -3.023   1.321  0.00  0.00    +0.200 C 
BRANCH  21  22
ATOM     22  N   UNL     1      -8.122  -1.942   0.915  0.00  0.00    -0.302 N 
ATOM     23  C   UNL     1      -9.407  -1.950   1.321  0.00  0.00    +0.251 C 
ATOM     24  O   UNL     1      -9.818  -2.854   2.024  0.00  0.00    -0.270 OA
ATOM     25  H   UNL     1      -7.795  -1.222   0.355  0.00  0.00    +0.150 HD
BRANCH  23  26
ATOM     26  C   UNL     1     -10.310  -0.869   0.915  0.00  0.00    +0.074 A 
ATOM     27  C   UNL     1     -11.652  -0.693   1.214  0.00  0.00    +0.021 A 
ATOM     28  C   UNL     1     -12.266   0.423   0.701  0.00  0.00    +0.008 A 
ATOM     29  C   UNL     1     -11.546   1.280  -0.069  0.00  0.00    +0.046 A 
ATOM     30  S   UNL     1      -9.971   0.558  -0.100  0.00  0.00    -0.092 S 
ENDBRANCH  23  26
ENDBRANCH  21  22
ENDBRANCH  18  21
ENDBRANCH   5  17
TORSDOF 5
