REMARK  Name = ZINC02105065
REMARK  13 active torsions:
REMARK  status: ('A' for Active; 'I' for Inactive)
REMARK    1  A    between atoms: C_1  and  C_2
REMARK    2  A    between atoms: C_5  and  N_9
REMARK    3  A    between atoms: C_6  and  C_8
REMARK    4  A    between atoms: C_10  and  C_12
REMARK    5  A    between atoms: C_13  and  C_37
REMARK    6  A    between atoms: C_14  and  C_31
REMARK    7  A    between atoms: C_15  and  N_17
REMARK    8  A    between atoms: C_18  and  C_20
REMARK    9  A    between atoms: C_27  and  C_30
REMARK   10  A    between atoms: C_31  and  O_33
REMARK   11  A    between atoms: O_33  and  C_34
REMARK   12  A    between atoms: C_34  and  C_35
REMARK   13  A    between atoms: C_34  and  C_36
REMARK                            x       y       z     vdW  Elec       q    Type
REMARK                         _______ _______ _______ _____ _____    ______ ____
ROOT
ATOM      1  C   UNL     1       3.706  -0.941   0.175  0.00  0.00    +0.080 A 
ATOM      2  C   UNL     1       3.935  -2.286   0.282  0.00  0.00    -0.015 A 
ATOM      3  C   UNL     1       5.253  -2.711   0.355  0.00  0.00    +0.091 A 
ATOM      4  C   UNL     1       6.255  -1.734   0.322  0.00  0.00    +0.087 A 
ATOM      5  S   UNL     1       5.353  -0.260   0.187  0.00  0.00    -0.068 S 
ATOM      6  C   UNL     1       2.795  -3.271   0.317  0.00  0.00    +0.046 C 
ENDROOT
BRANCH   1   8
ATOM      7  N   UNL     1       2.402   1.107  -0.015  0.00  0.00    -0.281 N 
ATOM      8  C   UNL     1       2.426  -0.237   0.080  0.00  0.00    +0.255 C 
ATOM      9  O   UNL     1       1.383  -0.866   0.087  0.00  0.00    -0.269 OA
ATOM     10  H   UNL     1       3.233   1.603  -0.086  0.00  0.00    +0.155 HD
BRANCH   7  15
ATOM     11  C   UNL     1      -2.556   3.863   0.004  0.00  0.00    +0.044 C 
ATOM     12  C   UNL     1      -1.238   3.131  -0.000  0.00  0.00    -0.050 A 
ATOM     13  C   UNL     1      -1.140   1.892  -0.607  0.00  0.00    +0.005 A 
ATOM     14  C   UNL     1       0.064   1.216  -0.608  0.00  0.00    +0.024 A 
ATOM     15  C   UNL     1       1.180   1.787  -0.010  0.00  0.00    +0.037 A 
ATOM     16  C   UNL     1       1.079   3.034   0.593  0.00  0.00    -0.029 A 
ATOM     17  C   UNL     1      -0.130   3.702   0.596  0.00  0.00    +0.008 A 
ATOM     18  C   UNL     1       2.287   3.657   1.244  0.00  0.00    +0.045 C 
ENDBRANCH   7  15
ENDBRANCH   1   8
BRANCH   4  19
ATOM     19  N   UNL     1       7.623  -1.903   0.383  0.00  0.00    -0.275 N 
ATOM     20  C   UNL     1       8.437  -0.830   0.337  0.00  0.00    +0.249 C 
ATOM     21  O   UNL     1       7.966   0.287   0.242  0.00  0.00    -0.270 OA
ATOM     22  H   UNL     1       7.999  -2.794   0.458  0.00  0.00    +0.156 HD
BRANCH  20  23
ATOM     23  C   UNL     1       9.896  -1.010   0.401  0.00  0.00    +0.047 A 
ATOM     24  C   UNL     1      10.454  -2.265   0.514  0.00  0.00    +0.058 A 
ATOM     25  S   UNL     1      12.155  -1.941   0.548  0.00  0.00    -0.101 S 
ATOM     26  C   UNL     1      12.110  -0.175   0.422  0.00  0.00    -0.006 A 
ATOM     27  C   UNL     1      10.794   0.128   0.353  0.00  0.00    -0.025 A 
ATOM     28  C   UNL     1      10.328   1.574   0.234  0.00  0.00    +0.037 C 
ATOM     29  C   UNL     1      11.503   2.431  -0.241  0.00  0.00    +0.008 C 
ATOM     30  C   UNL     1      12.719   2.195   0.659  0.00  0.00    -0.009 C 
ATOM     31  C   UNL     1      13.261   0.782   0.398  0.00  0.00    +0.046 C 
ATOM     32  C   UNL     1      13.802   3.227   0.338  0.00  0.00    +0.008 C 
ENDBRANCH  20  23
ENDBRANCH   4  19
BRANCH   3  33
ATOM     33  C   UNL     1       5.586  -4.136   0.467  0.00  0.00    +0.342 C 
ATOM     34  O   UNL     1       5.686  -4.652   1.563  0.00  0.00    -0.245 OA
BRANCH  33  35
ATOM     35  O   UNL     1       5.781  -4.872  -0.646  0.00  0.00    -0.458 OA
BRANCH  35  36
ATOM     36  C   UNL     1       6.107  -6.275  -0.459  0.00  0.00    +0.171 C 
ATOM     37  C   UNL     1       4.818  -7.098  -0.421  0.00  0.00    +0.052 C 
ATOM     38  C   UNL     1       6.983  -6.753  -1.619  0.00  0.00    +0.052 C 
ENDBRANCH  35  36
ENDBRANCH  33  35
ENDBRANCH   3  33
TORSDOF 7
