REMARK  Name = ZINC59595511
REMARK  5 active torsions:
REMARK  status: ('A' for Active; 'I' for Inactive)
REMARK    1  A    between atoms: C_1  and  N_2
REMARK    2  A    between atoms: C_6  and  C_7
REMARK    3  A    between atoms: N_9  and  C_16
REMARK    4  A    between atoms: C_16  and  C_17
REMARK    5  A    between atoms: N_29  and  C_32
REMARK                            x       y       z     vdW  Elec       q    Type
REMARK                         _______ _______ _______ _____ _____    ______ ____
ROOT
ATOM      1  C   UNL     1      -0.347  -1.704  -3.302  0.00  0.00    +0.001 A 
ATOM      2  C   UNL     1      -0.073  -0.363  -3.510  0.00  0.00    +0.095 A 
ATOM      3  N   UNL     1      -0.271  -0.060  -4.806  0.00  0.00    -0.342 N 
ATOM      4  C   UNL     1      -0.682  -1.173  -5.513  0.00  0.00    +0.050 A 
ATOM      5  C   UNL     1      -0.744  -2.250  -4.616  0.00  0.00    +0.007 A 
ATOM      6  C   UNL     1      -1.128  -3.510  -5.062  0.00  0.00    +0.010 A 
ATOM      7  C   UNL     1      -1.444  -3.697  -6.391  0.00  0.00    +0.001 A 
ATOM      8  C   UNL     1      -1.381  -2.635  -7.280  0.00  0.00    +0.002 A 
ATOM      9  C   UNL     1      -1.009  -1.379  -6.849  0.00  0.00    +0.026 A 
ENDROOT
BRANCH   1  15
ATOM     10  C   UNL     1       4.165  -0.448  -1.167  0.00  0.00    +0.140 C 
ATOM     11  N   UNL     1       2.986  -1.221  -0.767  0.00  0.00    -0.252 N 
ATOM     12  C   UNL     1       1.985  -1.400  -1.652  0.00  0.00    +0.257 C 
ATOM     13  O   UNL     1       2.050  -0.930  -2.773  0.00  0.00    -0.269 OA
ATOM     14  C   UNL     1       0.810  -2.181  -1.226  0.00  0.00    +0.100 C 
ATOM     15  C   UNL     1      -0.259  -2.408  -2.083  0.00  0.00    +0.028 C 
ATOM     16  C   UNL     1       0.819  -2.712   0.148  0.00  0.00    +0.262 C 
ATOM     17  O   UNL     1      -0.115  -3.367   0.571  0.00  0.00    -0.269 OA
ATOM     18  N   UNL     1       1.892  -2.453   0.924  0.00  0.00    -0.217 N 
ATOM     19  C   UNL     1       2.930  -1.738   0.469  0.00  0.00    +0.153 C 
ATOM     20  S   UNL     1       4.251  -1.464   1.523  0.00  0.00    -0.017 S 
BRANCH  18  21
ATOM     21  C   UNL     1       1.923  -2.946   2.235  0.00  0.00    +0.043 A 
ATOM     22  C   UNL     1       2.279  -4.267   2.472  0.00  0.00    +0.024 A 
ATOM     23  C   UNL     1       2.309  -4.751   3.766  0.00  0.00    +0.002 A 
ATOM     24  C   UNL     1       1.985  -3.921   4.823  0.00  0.00    +0.000 A 
ATOM     25  C   UNL     1       1.630  -2.606   4.590  0.00  0.00    +0.002 A 
ATOM     26  C   UNL     1       1.604  -2.114   3.300  0.00  0.00    +0.024 A 
ENDBRANCH  18  21
ENDBRANCH   1  15
BRANCH   3  27
ATOM     27  C   UNL     1      -0.079   1.271  -5.387  0.00  0.00    +0.157 C 
BRANCH  27  28
ATOM     28  C   UNL     1      -1.396   2.002  -5.416  0.00  0.00    -0.027 A 
ATOM     29  C   UNL     1      -2.224   1.881  -6.530  0.00  0.00    +0.006 A 
ATOM     30  C   UNL     1      -3.420   2.529  -6.588  0.00  0.00    +0.009 A 
ATOM     31  C   UNL     1      -3.829   3.332  -5.510  0.00  0.00    -0.018 A 
ATOM     32  C   UNL     1      -5.057   4.015  -5.534  0.00  0.00    +0.008 A 
ATOM     33  C   UNL     1      -5.420   4.783  -4.471  0.00  0.00    +0.001 A 
ATOM     34  C   UNL     1      -4.593   4.904  -3.356  0.00  0.00    +0.001 A 
ATOM     35  C   UNL     1      -3.397   4.257  -3.298  0.00  0.00    +0.008 A 
ATOM     36  C   UNL     1      -2.987   3.454  -4.377  0.00  0.00    -0.018 A 
ATOM     37  C   UNL     1      -1.762   2.767  -4.351  0.00  0.00    +0.014 A 
ENDBRANCH  27  28
ENDBRANCH   3  27
TORSDOF 4
