REMARK  Name = ZINC35456252
REMARK  10 active torsions:
REMARK  status: ('A' for Active; 'I' for Inactive)
REMARK    1  A    between atoms: C_1  and  C_2
REMARK    2  A    between atoms: C_6  and  N_9
REMARK    3  A    between atoms: C_7  and  C_8
REMARK    4  A    between atoms: C_11  and  C_17
REMARK    5  A    between atoms: C_12  and  C_14
REMARK    6  A    between atoms: C_14  and  C_15
REMARK    7  A    between atoms: C_14  and  C_16
REMARK    8  A    between atoms: N_21  and  C_25
REMARK    9  A    between atoms: C_25  and  C_26
REMARK   10  A    between atoms: C_30  and  N_32
REMARK                            x       y       z     vdW  Elec       q    Type
REMARK                         _______ _______ _______ _____ _____    ______ ____
ROOT
ATOM      1  C   UNL     1       0.520  -6.160   4.036  0.00  0.00    +0.043 C 
ATOM      2  C   UNL     1      -0.376  -7.091   3.610  0.00  0.00    +0.099 C 
ATOM      3  C   UNL     1      -0.428  -8.461   3.979  0.00  0.00    +0.269 C 
ATOM      4  O   UNL     1       0.327  -9.034   4.745  0.00  0.00    -0.268 OA
ATOM      5  N   UNL     1      -1.470  -9.008   3.324  0.00  0.00    -0.216 N 
ATOM      6  C   UNL     1      -2.072  -8.072   2.571  0.00  0.00    +0.313 C 
ATOM      7  O   UNL     1      -3.043  -8.263   1.864  0.00  0.00    -0.252 OA
ATOM      8  N   UNL     1      -1.443  -6.891   2.719  0.00  0.00    -0.265 N 
ATOM      9  H   UNL     1      -1.683  -6.056   2.288  0.00  0.00    +0.157 HD
ENDROOT
BRANCH   1  12
ATOM     10  N   UNL     1       0.255  -3.019   2.239  0.00  0.00    -0.196 N 
ATOM     11  C   UNL     1       0.313  -4.368   2.232  0.00  0.00    +0.281 A 
ATOM     12  C   UNL     1       0.427  -4.780   3.558  0.00  0.00    +0.066 A 
ATOM     13  C   UNL     1       0.434  -3.609   4.355  0.00  0.00    +0.077 A 
ATOM     14  N   UNL     1       0.338  -2.578   3.564  0.00  0.00    -0.167 NA
ATOM     15  O   UNL     1       0.268  -5.170   1.142  0.00  0.00    -0.265 OA
BRANCH  10  21
ATOM     16  C   UNL     1       1.771   0.891  -0.331  0.00  0.00    +0.044 C 
ATOM     17  C   UNL     1       0.859  -0.297  -0.162  0.00  0.00    -0.046 A 
ATOM     18  C   UNL     1      -0.094  -0.579  -1.123  0.00  0.00    +0.004 A 
ATOM     19  C   UNL     1      -0.932  -1.668  -0.971  0.00  0.00    +0.002 A 
ATOM     20  C   UNL     1      -0.819  -2.478   0.142  0.00  0.00    +0.028 A 
ATOM     21  C   UNL     1       0.137  -2.198   1.109  0.00  0.00    +0.072 A 
ATOM     22  C   UNL     1       0.981  -1.107   0.951  0.00  0.00    -0.022 A 
ATOM     23  C   UNL     1       2.025  -0.802   1.994  0.00  0.00    +0.046 C 
ENDBRANCH  10  21
BRANCH  13  24
ATOM     24  C   UNL     1       0.540  -3.564   5.857  0.00  0.00    +0.034 C 
ATOM     25  C   UNL     1       1.789  -2.775   6.257  0.00  0.00    +0.014 C 
ATOM     26  C   UNL     1      -0.701  -2.882   6.436  0.00  0.00    +0.014 C 
ENDBRANCH  13  24
ENDBRANCH   1  12
BRANCH   5  27
ATOM     27  C   UNL     1      -1.884 -10.410   3.418  0.00  0.00    +0.153 C 
BRANCH  27  28
ATOM     28  C   UNL     1      -2.881 -10.566   4.537  0.00  0.00    -0.027 A 
ATOM     29  C   UNL     1      -2.443 -10.844   5.819  0.00  0.00    +0.005 A 
ATOM     30  C   UNL     1      -3.357 -10.987   6.846  0.00  0.00    +0.003 A 
ATOM     31  C   UNL     1      -4.709 -10.850   6.591  0.00  0.00    +0.033 A 
ATOM     32  C   UNL     1      -5.147 -10.571   5.310  0.00  0.00    +0.127 A 
ATOM     33  C   UNL     1      -4.232 -10.424   4.284  0.00  0.00    +0.038 A 
BRANCH  32  34
ATOM     34  N   UNL     1      -6.595 -10.426   5.038  0.00  0.00    +0.056 N 
ATOM     35  O   UNL     1      -7.394 -10.551   5.936  0.00  0.00    -0.126 OA
ATOM     36  O   UNL     1      -6.977 -10.181   3.917  0.00  0.00    -0.126 OA
ENDBRANCH  32  34
ENDBRANCH  27  28
ENDBRANCH   5  27
TORSDOF 6
