REMARK  Name = ZINC44907444
REMARK  9 active torsions:
REMARK  status: ('A' for Active; 'I' for Inactive)
REMARK    1  A    between atoms: C_1  and  C_2
REMARK    2  A    between atoms: C_2  and  N_3
REMARK    3  A    between atoms: C_5  and  C_14
REMARK    4  A    between atoms: C_14  and  N_15
REMARK    5  A    between atoms: N_15  and  C_16
REMARK    6  A    between atoms: N_15  and  C_17
REMARK    7  A    between atoms: C_17  and  C_18
REMARK    8  A    between atoms: C_18  and  C_19
REMARK    9  A    between atoms: N_24  and  C_25
REMARK                            x       y       z     vdW  Elec       q    Type
REMARK                         _______ _______ _______ _____ _____    ______ ____
ROOT
ATOM      1  N   UNL     1       0.210  -3.620  -4.899  0.00  0.00    +0.381 N 
ATOM      2  C   UNL     1      -0.239  -4.680  -3.987  0.00  0.00    -0.096 C 
ATOM      3  H   UNL     1       1.217  -3.640  -4.968  0.00  0.00    -0.082 HD
ENDROOT
BRANCH   1   4
ATOM      4  C   UNL     1      -0.220  -2.314  -4.383  0.00  0.00    -0.032 C 
BRANCH   4   7
ATOM      5  N   UNL     1       0.688  -0.476  -1.203  0.00  0.00    -0.324 N 
ATOM      6  C   UNL     1      -0.052  -0.728  -2.452  0.00  0.00    +0.147 C 
ATOM      7  C   UNL     1       0.488  -2.032  -3.056  0.00  0.00    +0.174 C 
ATOM      8  O   UNL     1       1.892  -1.890  -3.280  0.00  0.00    -0.487 OA
ATOM      9  C   UNL     1       2.652  -1.417  -2.256  0.00  0.00    +0.142 A 
ATOM     10  C   UNL     1       2.074  -0.700  -1.210  0.00  0.00    +0.072 A 
ATOM     11  C   UNL     1       2.860  -0.214  -0.178  0.00  0.00    +0.027 A 
ATOM     12  C   UNL     1       4.225  -0.439  -0.188  0.00  0.00    +0.002 A 
ATOM     13  C   UNL     1       4.803  -1.147  -1.225  0.00  0.00    +0.004 A 
ATOM     14  C   UNL     1       4.019  -1.644  -2.255  0.00  0.00    +0.047 A 
BRANCH   5  16
ATOM     15  C   UNL     1      -0.019   1.526   0.010  0.00  0.00    +0.024 C 
ATOM     16  C   UNL     1       0.002  -0.004   0.002  0.00  0.00    +0.102 C 
ENDBRANCH   5  16
ENDBRANCH   4   7
ENDBRANCH   1   4
BRANCH   1  17
ATOM     17  C   UNL     1      -0.376  -3.838  -6.229  0.00  0.00    -0.070 C 
BRANCH  17  18
ATOM     18  C   UNL     1       0.170  -5.140  -6.820  0.00  0.00    +0.078 C 
BRANCH  18  19
ATOM     19  C   UNL     1      -0.431  -5.363  -8.183  0.00  0.00    +0.219 C 
ATOM     20  O   UNL     1      -1.218  -4.561  -8.638  0.00  0.00    -0.275 OA
ATOM     21  N   UNL     1      -0.093  -6.455  -8.898  0.00  0.00    -0.240 N 
ATOM     22  C   UNL     1      -0.631  -6.655 -10.118  0.00  0.00    +0.306 C 
ATOM     23  O   UNL     1      -1.420  -5.851 -10.573  0.00  0.00    -0.252 OA
ATOM     24  N   UNL     1      -0.293  -7.747 -10.832  0.00  0.00    -0.302 N 
ATOM     25  C   UNL     1      -0.877  -7.964 -12.158  0.00  0.00    +0.129 C 
ATOM     26  H   UNL     1       0.537  -7.097  -8.534  0.00  0.00    +0.159 HD
ATOM     27  H   UNL     1       0.337  -8.389 -10.468  0.00  0.00    +0.150 HD
ENDBRANCH  18  19
ENDBRANCH  17  18
ENDBRANCH   1  17
TORSDOF 6
