REMARK  Name = ZINC66263233
REMARK  6 active torsions:
REMARK  status: ('A' for Active; 'I' for Inactive)
REMARK    1  A    between atoms: C_1  and  C_2
REMARK    2  A    between atoms: C_5  and  N_8
REMARK    3  A    between atoms: C_9  and  C_11
REMARK    4  A    between atoms: C_11  and  N_12
REMARK    5  A    between atoms: C_15  and  C_19
REMARK    6  A    between atoms: C_15  and  C_20
REMARK                            x       y       z     vdW  Elec       q    Type
REMARK                         _______ _______ _______ _____ _____    ______ ____
ROOT
ATOM      1  N   UNL     1       0.420  -6.845   2.495  0.00  0.00    -0.215 N 
ATOM      2  C   UNL     1       1.586  -6.997   3.154  0.00  0.00    +0.252 C 
ATOM      3  O   UNL     1       2.699  -6.758   2.736  0.00  0.00    -0.272 OA
ATOM      4  C   UNL     1       1.216  -7.527   4.525  0.00  0.00    +0.141 C 
ATOM      5  N   UNL     1      -0.253  -7.621   4.476  0.00  0.00    -0.281 N 
ATOM      6  C   UNL     1      -0.625  -7.197   3.254  0.00  0.00    +0.310 C 
ATOM      7  O   UNL     1      -1.780  -7.143   2.880  0.00  0.00    -0.252 OA
ATOM      8  C   UNL     1       1.657  -6.549   5.617  0.00  0.00    +0.047 C 
ATOM      9  H   UNL     1      -0.838  -7.926   5.186  0.00  0.00    +0.152 HD
ENDROOT
BRANCH   4  10
ATOM     10  C   UNL     1       1.827  -8.886   4.750  0.00  0.00    +0.023 A 
ATOM     11  C   UNL     1       1.365  -9.915   5.500  0.00  0.00    +0.015 A 
ATOM     12  C   UNL     1       2.101 -11.084   5.562  0.00  0.00    +0.028 A 
ATOM     13  C   UNL     1       3.265 -11.165   4.870  0.00  0.00    +0.078 A 
ATOM     14  S   UNL     1       3.344  -9.559   4.093  0.00  0.00    -0.079 S 
ATOM     15 CL   UNL     1       4.384 -12.488   4.762  0.00  0.00    -0.076 Cl
ENDBRANCH   4  10
BRANCH   1  16
ATOM     16  C   UNL     1       0.309  -6.349   1.121  0.00  0.00    +0.214 C 
BRANCH  16  18
ATOM     17  N   UNL     1       0.059  -4.170  -0.021  0.00  0.00    -0.284 N 
ATOM     18  C   UNL     1       0.175  -4.848   1.138  0.00  0.00    +0.235 C 
ATOM     19  O   UNL     1       0.173  -4.251   2.193  0.00  0.00    -0.274 OA
ATOM     20  H   UNL     1      -0.017  -4.651  -0.860  0.00  0.00    +0.155 HD
BRANCH  17  25
ATOM     21  C   UNL     1       0.008   1.503   0.007  0.00  0.00    +0.044 C 
ATOM     22  C   UNL     1       0.022  -0.004  -0.001  0.00  0.00    -0.050 A 
ATOM     23  C   UNL     1       0.777  -0.692   0.931  0.00  0.00    +0.005 A 
ATOM     24  C   UNL     1       0.791  -2.073   0.927  0.00  0.00    +0.023 A 
ATOM     25  C   UNL     1       0.046  -2.771  -0.014  0.00  0.00    +0.033 A 
ATOM     26  C   UNL     1      -0.712  -2.077  -0.948  0.00  0.00    +0.023 A 
ATOM     27  C   UNL     1      -0.726  -0.696  -0.936  0.00  0.00    +0.005 A 
ENDBRANCH  17  25
ENDBRANCH  16  18
ENDBRANCH   1  16
TORSDOF 4
