REMARK  Name = ZINC67188858
REMARK  10 active torsions:
REMARK  status: ('A' for Active; 'I' for Inactive)
REMARK    1  A    between atoms: C_1  and  C_2
REMARK    2  A    between atoms: N_8  and  C_9
REMARK    3  A    between atoms: C_9  and  C_10
REMARK    4  A    between atoms: C_10  and  C_11
REMARK    5  A    between atoms: C_11  and  C_12
REMARK    6  A    between atoms: C_12  and  N_13
REMARK    7  A    between atoms: N_13  and  C_14
REMARK    8  A    between atoms: C_14  and  C_15
REMARK    9  A    between atoms: N_17  and  C_24
REMARK   10  A    between atoms: N_20  and  C_23
REMARK                            x       y       z     vdW  Elec       q    Type
REMARK                         _______ _______ _______ _____ _____    ______ ____
ROOT
ATOM      1  N   UNL     1       0.374   0.346   7.326  0.00  0.00    +0.382 N 
ATOM      2  H   UNL     1       0.333   1.352   7.264  0.00  0.00    -0.085 HD
ATOM      3  H   UNL     1      -0.562  -0.025   7.403  0.00  0.00    -0.085 HD
ENDROOT
BRANCH   1   4
ATOM      4  C   UNL     1       1.017  -0.194   6.121  0.00  0.00    -0.082 C 
BRANCH   4   5
ATOM      5  C   UNL     1       0.207   0.209   4.887  0.00  0.00    -0.021 C 
BRANCH   5   6
ATOM      6  C   UNL     1       0.877  -0.353   3.631  0.00  0.00    -0.020 C 
BRANCH   6   7
ATOM      7  C   UNL     1       0.067   0.050   2.397  0.00  0.00    -0.079 C 
BRANCH   7  14
ATOM      8  C   UNL     1      -0.019   1.526   0.010  0.00  0.00    -0.013 C 
ATOM      9  C   UNL     1       0.002  -0.004   0.002  0.00  0.00    -0.072 C 
ATOM     10  C   UNL     1       0.717  -0.497  -1.258  0.00  0.00    -0.016 C 
ATOM     11  C   UNL     1       0.735  -2.028  -1.262  0.00  0.00    -0.003 C 
ATOM     12  C   UNL     1       1.410  -2.524   0.020  0.00  0.00    -0.019 C 
ATOM     13  C   UNL     1       0.669  -1.956   1.232  0.00  0.00    -0.078 C 
ATOM     14  N   UNL     1       0.711  -0.490   1.192  0.00  0.00    +0.381 N 
ATOM     15  H   UNL     1       1.671  -0.182   1.159  0.00  0.00    -0.081 HD
ENDBRANCH   7  14
ENDBRANCH   6   7
ENDBRANCH   5   6
ENDBRANCH   4   5
ENDBRANCH   1   4
BRANCH   1  16
ATOM     16  C   UNL     1       1.151  -0.041   8.511  0.00  0.00    -0.040 C 
BRANCH  16  17
ATOM     17  C   UNL     1       0.491   0.513   9.748  0.00  0.00    +0.016 A 
ATOM     18  C   UNL     1      -0.361  -0.248  10.467  0.00  0.00    +0.097 A 
ATOM     19  N   UNL     1      -0.952   0.270  11.587  0.00  0.00    -0.303 N 
ATOM     20  C   UNL     1      -0.691   1.530  11.979  0.00  0.00    +0.331 A 
ATOM     21  O   UNL     1      -1.227   1.971  12.977  0.00  0.00    -0.246 OA
ATOM     22  N   UNL     1       0.155   2.311  11.280  0.00  0.00    -0.264 N 
ATOM     23  C   UNL     1       0.762   1.835  10.174  0.00  0.00    +0.258 A 
ATOM     24  O   UNL     1       1.531   2.539   9.545  0.00  0.00    -0.267 OA
ATOM     25  C   UNL     1       0.421   3.680  11.728  0.00  0.00    +0.157 C 
ATOM     26  C   UNL     1      -1.877  -0.556  12.368  0.00  0.00    +0.153 C 
ENDBRANCH  16  17
ENDBRANCH   1  16
TORSDOF 7
