REMARK  Name = ZINC66648520
REMARK  6 active torsions:
REMARK  status: ('A' for Active; 'I' for Inactive)
REMARK    1  A    between atoms: C_1  and  C_2
REMARK    2  A    between atoms: N_8  and  C_9
REMARK    3  A    between atoms: C_12  and  C_15
REMARK    4  A    between atoms: C_21  and  C_23
REMARK    5  A    between atoms: N_25  and  C_26
REMARK    6  A    between atoms: N_25  and  C_27
REMARK                            x       y       z     vdW  Elec       q    Type
REMARK                         _______ _______ _______ _____ _____    ______ ____
ROOT
ATOM      1  C   UNL     1      -0.201  -0.525   2.477  0.00  0.00    +0.051 A 
ATOM      2  C   UNL     1       0.228   0.736   2.877  0.00  0.00    +0.027 A 
ATOM      3  C   UNL     1       0.154   1.102   4.202  0.00  0.00    +0.015 A 
ATOM      4  C   UNL     1      -0.352   0.205   5.146  0.00  0.00    +0.037 A 
ATOM      5  C   UNL     1      -0.782  -1.062   4.741  0.00  0.00    +0.015 A 
ATOM      6  C   UNL     1      -0.711  -1.419   3.413  0.00  0.00    +0.027 A 
ENDROOT
BRANCH   1  14
ATOM      7  C   UNL     1       1.259  -3.050   1.434  0.00  0.00    +0.065 C 
ATOM      8  C   UNL     1       0.518  -2.015   0.628  0.00  0.00    +0.041 A 
ATOM      9  C   UNL     1       0.360  -2.017  -0.692  0.00  0.00    +0.109 A 
ATOM     10  N   UNL     1      -0.379  -0.895  -1.035  0.00  0.00    -0.312 N 
ATOM     11  H   UNL     1      -0.645  -0.641  -1.933  0.00  0.00    +0.170 HD
ATOM     12  C   UNL     1      -0.663  -0.220   0.096  0.00  0.00    +0.331 A 
ATOM     13  O   UNL     1      -1.299   0.816   0.169  0.00  0.00    -0.246 OA
ATOM     14  N   UNL     1      -0.126  -0.893   1.132  0.00  0.00    -0.266 N 
ENDBRANCH   1  14
BRANCH   4  15
ATOM     15  C   UNL     1      -0.431   0.594   6.568  0.00  0.00    +0.248 C 
ATOM     16  O   UNL     1      -0.689   1.743   6.870  0.00  0.00    -0.270 OA
ATOM     17  N   UNL     1      -0.218  -0.325   7.530  0.00  0.00    -0.276 N 
ATOM     18  C   UNL     1       0.015  -1.750   7.208  0.00  0.00    +0.178 C 
ATOM     19  S   UNL     1       0.899  -2.321   8.726  0.00  0.00    -0.139 S 
ATOM     20  C   UNL     1       0.079  -1.150   9.897  0.00  0.00    +0.102 C 
ATOM     21  C   UNL     1      -0.198   0.034   8.938  0.00  0.00    +0.173 C 
BRANCH  21  22
ATOM     22  C   UNL     1       0.863   1.083   9.149  0.00  0.00    +0.236 C 
ATOM     23  O   UNL     1       1.522   1.477   8.211  0.00  0.00    -0.274 OA
ATOM     24  N   UNL     1       1.079   1.585  10.382  0.00  0.00    -0.306 N 
ATOM     25  C   UNL     1       2.111   2.605  10.587  0.00  0.00    +0.131 C 
ATOM     26  C   UNL     1       0.283   1.109  11.516  0.00  0.00    +0.131 C 
ENDBRANCH  21  22
ENDBRANCH   4  15
TORSDOF 3
