REMARK  Name = ZINC60941757
REMARK  3 active torsions:
REMARK  status: ('A' for Active; 'I' for Inactive)
REMARK    1  A    between atoms: C_3  and  C_7
REMARK    2  A    between atoms: C_7  and  S_8
REMARK    3  A    between atoms: S_8  and  N_11
REMARK                            x       y       z     vdW  Elec       q    Type
REMARK                         _______ _______ _______ _____ _____    ______ ____
ROOT
ATOM      1  S   UNL     1       4.206  -0.756  -1.668  0.00  0.00    +0.034 S 
ATOM      2  O   UNL     1       3.619  -2.022  -1.399  0.00  0.00    -0.158 OA
ATOM      3  O   UNL     1       4.254  -0.248  -2.994  0.00  0.00    -0.158 OA
ENDROOT
BRANCH   1   4
ATOM      4  N   UNL     1       5.792  -0.921  -1.221  0.00  0.00    -0.179 NA
ATOM      5  C   UNL     1       6.793  -0.067  -1.856  0.00  0.00    +0.118 C 
ATOM      6  C   UNL     1       7.772  -0.933  -2.657  0.00  0.00    +0.113 C 
ATOM      7  C   UNL     1       8.782  -1.529  -1.703  0.00  0.00    +0.214 C 
ATOM      8  O   UNL     1       9.928  -1.132  -1.713  0.00  0.00    -0.276 OA
ATOM      9  N   UNL     1       8.420  -2.490  -0.848  0.00  0.00    -0.314 N 
ATOM     10  C   UNL     1       7.039  -2.990  -0.823  0.00  0.00    +0.121 C 
ATOM     11  C   UNL     1       6.135  -1.912  -0.204  0.00  0.00    +0.128 C 
ATOM     12  H   UNL     1       9.076  -2.862  -0.237  0.00  0.00    +0.149 HD
ENDBRANCH   1   4
BRANCH   1  13
ATOM     13  C   UNL     1       3.533   0.497  -0.543  0.00  0.00    +0.216 C 
BRANCH  13  16
ATOM     14  C   UNL     1      -0.019   1.540   0.011  0.00  0.00    +0.031 C 
ATOM     15  C   UNL     1       1.494   1.890  -0.002  0.00  0.00    +0.035 C 
ATOM     16  C   UNL     1       2.056   0.734  -0.867  0.00  0.00    +0.141 C 
ATOM     17  O   UNL     1       1.275  -0.417  -0.510  0.00  0.00    -0.375 OA
ATOM     18  C   UNL     1       0.002  -0.004   0.002  0.00  0.00    +0.160 C 
ENDBRANCH  13  16
ENDBRANCH   1  13
TORSDOF 3
