REMARK  Name = ZINC06200961
REMARK  8 active torsions:
REMARK  status: ('A' for Active; 'I' for Inactive)
REMARK    1  A    between atoms: C_1  and  C_2
REMARK    2  A    between atoms: C_3  and  C_24
REMARK    3  A    between atoms: C_8  and  C_10
REMARK    4  A    between atoms: C_10  and  N_11
REMARK    5  A    between atoms: N_11  and  C_12
REMARK    6  A    between atoms: C_12  and  C_13
REMARK    7  A    between atoms: C_12  and  C_14
REMARK    8  A    between atoms: N_17  and  C_18
REMARK                            x       y       z     vdW  Elec       q    Type
REMARK                         _______ _______ _______ _____ _____    ______ ____
ROOT
ATOM      1  N   UNL     1       3.563   1.814  -0.011  0.00  0.00    -0.274 N 
ATOM      2  C   UNL     1       4.241   2.260   1.065  0.00  0.00    +0.303 C 
ATOM      3  O   UNL     1       5.227   2.955   0.916  0.00  0.00    -0.253 OA
ATOM      4  N   UNL     1       3.827   1.934   2.305  0.00  0.00    -0.296 N 
ATOM      5  H   UNL     1       3.084   1.321   2.424  0.00  0.00    +0.151 HD
ENDROOT
BRANCH   4   6
ATOM      6  C   UNL     1       4.498   2.506   3.476  0.00  0.00    +0.074 C 
ATOM      7  C   UNL     1       5.725   1.662   3.823  0.00  0.00    +0.022 C 
ATOM      8  C   UNL     1       6.426   2.260   5.045  0.00  0.00    +0.002 C 
ATOM      9  C   UNL     1       5.461   2.269   6.232  0.00  0.00    +0.000 C 
ATOM     10  C   UNL     1       4.233   3.114   5.885  0.00  0.00    +0.002 C 
ATOM     11  C   UNL     1       3.533   2.516   4.663  0.00  0.00    +0.022 C 
ENDBRANCH   4   6
BRANCH   1  12
ATOM     12  C   UNL     1       3.940   2.264  -1.353  0.00  0.00    +0.072 C 
ATOM     13  C   UNL     1       3.918   3.792  -1.404  0.00  0.00    +0.028 C 
ATOM     14  C   UNL     1       5.349   1.763  -1.681  0.00  0.00    +0.028 C 
ENDBRANCH   1  12
BRANCH   1  15
ATOM     15  C   UNL     1       2.448   0.879   0.162  0.00  0.00    +0.205 C 
BRANCH  15  23
ATOM     16  C   UNL     1      -2.768   5.028   0.839  0.00  0.00    +0.066 C 
ATOM     17  C   UNL     1      -2.568   3.535   0.831  0.00  0.00    +0.050 A 
ATOM     18  C   UNL     1      -3.619   2.693   0.989  0.00  0.00    +0.011 A 
ATOM     19  S   UNL     1      -2.794   1.111   0.896  0.00  0.00    -0.057 S 
ATOM     20  C   UNL     1      -1.181   1.710   0.665  0.00  0.00    +0.165 A 
ATOM     21  N   UNL     1      -1.365   3.016   0.678  0.00  0.00    -0.230 NA
ATOM     22  N   UNL     1       0.002   0.997   0.511  0.00  0.00    -0.263 N 
ATOM     23  C   UNL     1       1.166   1.653   0.335  0.00  0.00    +0.236 C 
ATOM     24  O   UNL     1       1.183   2.865   0.316  0.00  0.00    -0.274 OA
ATOM     25  C   UNL     1      -5.080   3.006   1.187  0.00  0.00    +0.053 C 
ATOM     26  H   UNL     1      -0.011   0.027   0.526  0.00  0.00    +0.157 HD
ENDBRANCH  15  23
ENDBRANCH   1  15
TORSDOF 4
