REMARK  Name = ZINC36650053
REMARK  10 active torsions:
REMARK  status: ('A' for Active; 'I' for Inactive)
REMARK    1  A    between atoms: C_1  and  C_2
REMARK    2  A    between atoms: C_4  and  C_28
REMARK    3  A    between atoms: C_8  and  N_27
REMARK    4  A    between atoms: C_9  and  C_11
REMARK    5  A    between atoms: C_11  and  O_13
REMARK    6  A    between atoms: O_13  and  C_14
REMARK    7  A    between atoms: C_14  and  C_15
REMARK    8  A    between atoms: N_17  and  C_18
REMARK    9  A    between atoms: C_18  and  C_19
REMARK   10  A    between atoms: C_19  and  C_20
REMARK                            x       y       z     vdW  Elec       q    Type
REMARK                         _______ _______ _______ _____ _____    ______ ____
ROOT
ATOM      1  C   UNL     1       1.979  -0.745   4.319  0.00  0.00    +0.348 C 
ATOM      2  O   UNL     1       2.116   0.412   4.672  0.00  0.00    -0.244 OA
ENDROOT
BRANCH   1  11
ATOM      3  C   UNL     1      -1.696   1.372   0.766  0.00  0.00    +0.044 C 
ATOM      4  C   UNL     1      -1.521  -0.123   0.688  0.00  0.00    -0.037 A 
ATOM      5  C   UNL     1      -2.240  -0.864  -0.221  0.00  0.00    +0.025 A 
ATOM      6  C   UNL     1      -2.078  -2.239  -0.290  0.00  0.00    +0.014 A 
ATOM      7  N   UNL     1      -1.231  -2.853   0.513  0.00  0.00    -0.353 N 
ATOM      8  C   UNL     1      -0.520  -2.189   1.399  0.00  0.00    +0.088 A 
ATOM      9  C   UNL     1      -0.609  -0.786   1.546  0.00  0.00    +0.030 A 
ATOM     10  C   UNL     1       0.254  -0.216   2.569  0.00  0.00    +0.055 A 
ATOM     11  C   UNL     1       1.067  -1.067   3.287  0.00  0.00    +0.119 A 
ATOM     12  S   UNL     1       0.683  -2.671   2.612  0.00  0.00    -0.062 S 
ATOM     13  C   UNL     1      -2.873  -3.037  -1.291  0.00  0.00    +0.063 C 
ATOM     14  H   UNL     1      -1.131  -3.816   0.450  0.00  0.00    +0.166 HD
BRANCH  10  15
ATOM     15  N   UNL     1       0.258   1.149   2.816  0.00  0.00    -0.356 N 
ATOM     16  H   UNL     1       0.106   1.774   2.090  0.00  0.00    +0.142 HD
ATOM     17  H   UNL     1       0.414   1.479   3.715  0.00  0.00    +0.142 HD
ENDBRANCH  10  15
ENDBRANCH   1  11
BRANCH   1  18
ATOM     18  O   UNL     1       2.697  -1.721   4.914  0.00  0.00    -0.451 OA
BRANCH  18  19
ATOM     19  C   UNL     1       3.599  -1.324   5.949  0.00  0.00    +0.328 C 
BRANCH  19  20
ATOM     20  C   UNL     1       4.308  -2.539   6.491  0.00  0.00    +0.251 C 
ATOM     21  O   UNL     1       4.064  -3.636   6.035  0.00  0.00    -0.272 OA
ATOM     22  N   UNL     1       5.212  -2.406   7.481  0.00  0.00    -0.312 N 
ATOM     23  H   UNL     1       5.407  -1.528   7.845  0.00  0.00    +0.149 HD
BRANCH  22  24
ATOM     24  C   UNL     1       5.901  -3.587   8.008  0.00  0.00    +0.109 C 
BRANCH  24  25
ATOM     25  C   UNL     1       6.866  -3.162   9.116  0.00  0.00    +0.054 C 
BRANCH  25  26
ATOM     26  C   UNL     1       7.575  -4.377   9.658  0.00  0.00    -0.046 A 
ATOM     27  C   UNL     1       7.029  -5.081  10.714  0.00  0.00    +0.006 A 
ATOM     28  C   UNL     1       7.677  -6.195  11.212  0.00  0.00    +0.038 A 
ATOM     29  C   UNL     1       8.875  -6.606  10.651  0.00  0.00    +0.123 A 
ATOM     30  C   UNL     1       9.421  -5.900   9.593  0.00  0.00    +0.038 A 
ATOM     31  C   UNL     1       8.768  -4.789   9.094  0.00  0.00    +0.006 A 
ATOM     32  F   UNL     1       9.510  -7.695  11.137  0.00  0.00    -0.205 F 
ENDBRANCH  25  26
ENDBRANCH  24  25
ENDBRANCH  22  24
ENDBRANCH  19  20
ENDBRANCH  18  19
ENDBRANCH   1  18
TORSDOF 8
