REMARK  Name = ZINC55065576
REMARK  4 active torsions:
REMARK  status: ('A' for Active; 'I' for Inactive)
REMARK    1  A    between atoms: C_1  and  C_2
REMARK    2  A    between atoms: C_14  and  C_23
REMARK    3  A    between atoms: N_24  and  N_25
REMARK    4  A    between atoms: N_25  and  C_26
REMARK                            x       y       z     vdW  Elec       q    Type
REMARK                         _______ _______ _______ _____ _____    ______ ____
ROOT
ATOM      1  C   UNL     1      -0.018   1.503   0.010  0.00  0.00    +0.035 C 
ATOM      2  C   UNL     1       0.002  -0.004   0.002  0.00  0.00    -0.029 C 
ATOM      3  C   UNL     1       0.569  -0.646  -0.989  0.00  0.00    -0.052 C 
ATOM      4  C   UNL     1       1.210   0.096  -2.126  0.00  0.00    +0.115 C 
ATOM      5  N   UNL     1       2.548  -0.434  -2.450  0.00  0.00    -0.294 NA
ATOM      6  C   UNL     1       2.727  -0.051  -3.896  0.00  0.00    +0.086 C 
ATOM      7  C   UNL     1       1.731  -1.005  -4.604  0.00  0.00    +0.034 C 
ATOM      8  C   UNL     1       1.778  -2.286  -3.742  0.00  0.00    +0.052 C 
ATOM      9  C   UNL     1       2.591  -1.914  -2.514  0.00  0.00    +0.074 C 
ATOM     10  C   UNL     1       2.063  -2.568  -1.249  0.00  0.00    +0.032 C 
ATOM     11  C   UNL     1       0.602  -2.153  -1.021  0.00  0.00    +0.050 C 
ATOM     12  C   UNL     1      -0.204  -2.681  -2.188  0.00  0.00    -0.003 C 
ATOM     13  C   UNL     1       0.406  -2.780  -3.381  0.00  0.00    +0.026 C 
ATOM     14  N   UNL     1       0.046  -3.614  -4.428  0.00  0.00    -0.317 N 
ATOM     15  C   UNL     1       1.202  -4.137  -4.993  0.00  0.00    +0.035 A 
ATOM     16  C   UNL     1       2.324  -3.388  -4.589  0.00  0.00    -0.013 A 
ATOM     17  C   UNL     1       3.601  -3.719  -4.975  0.00  0.00    +0.006 A 
ATOM     18  C   UNL     1       3.743  -4.814  -5.822  0.00  0.00    +0.000 A 
ATOM     19  C   UNL     1       2.648  -5.532  -6.258  0.00  0.00    +0.002 A 
ATOM     20  C   UNL     1       1.357  -5.213  -5.863  0.00  0.00    +0.023 A 
ATOM     21  H   UNL     1      -0.861  -3.802  -4.716  0.00  0.00    +0.152 HD
ENDROOT
BRANCH  12  22
ATOM     22  C   UNL     1      -1.606  -3.067  -2.024  0.00  0.00    +0.136 C 
ATOM     23  N   UNL     1      -2.279  -3.519  -3.042  0.00  0.00    -0.190 NA
BRANCH  23  24
ATOM     24  N   UNL     1      -3.622  -3.889  -2.885  0.00  0.00    -0.238 N 
ATOM     25  H   UNL     1      -4.049  -3.807  -2.018  0.00  0.00    +0.174 HD
BRANCH  24  26
ATOM     26  C   UNL     1      -4.343  -4.373  -3.976  0.00  0.00    +0.048 A 
ATOM     27  C   UNL     1      -3.731  -4.495  -5.218  0.00  0.00    +0.025 A 
ATOM     28  C   UNL     1      -4.449  -4.976  -6.295  0.00  0.00    +0.002 A 
ATOM     29  C   UNL     1      -5.775  -5.335  -6.139  0.00  0.00    +0.000 A 
ATOM     30  C   UNL     1      -6.388  -5.214  -4.905  0.00  0.00    +0.002 A 
ATOM     31  C   UNL     1      -5.675  -4.740  -3.822  0.00  0.00    +0.025 A 
ENDBRANCH  24  26
ENDBRANCH  23  24
ENDBRANCH  12  22
TORSDOF 3
