REMARK  Name = ZINC57589887
REMARK  10 active torsions:
REMARK  status: ('A' for Active; 'I' for Inactive)
REMARK    1  A    between atoms: C_1  and  C_2
REMARK    2  A    between atoms: C_2  and  O_3
REMARK    3  A    between atoms: O_3  and  C_4
REMARK    4  A    between atoms: C_4  and  C_6
REMARK    5  A    between atoms: N_9  and  C_12
REMARK    6  A    between atoms: C_12  and  C_14
REMARK    7  A    between atoms: C_12  and  C_28
REMARK    8  A    between atoms: C_17  and  C_27
REMARK    9  A    between atoms: C_20  and  C_26
REMARK   10  A    between atoms: N_32  and  C_33
REMARK                            x       y       z     vdW  Elec       q    Type
REMARK                         _______ _______ _______ _____ _____    ______ ____
ROOT
ATOM      1  C   UNL     1      -6.181  -4.743  -1.407  0.00  0.00    +0.162 C 
ENDROOT
BRANCH   1   2
ATOM      2  C   UNL     1      -5.988  -6.237  -1.411  0.00  0.00    +0.042 A 
ATOM      3  C   UNL     1      -6.676  -7.010  -0.534  0.00  0.00    +0.021 A 
ATOM      4  C   UNL     1      -6.466  -8.459  -0.565  0.00  0.00    +0.002 A 
ATOM      5  C   UNL     1      -7.147  -9.307   0.314  0.00  0.00    -0.041 A 
ATOM      6  C   UNL     1      -6.929 -10.655   0.260  0.00  0.00    +0.004 A 
ATOM      7  C   UNL     1      -6.038 -11.190  -0.660  0.00  0.00    +0.005 A 
ATOM      8  C   UNL     1      -5.356 -10.373  -1.536  0.00  0.00    -0.026 A 
ATOM      9  C   UNL     1      -5.562  -8.998  -1.500  0.00  0.00    +0.052 A 
ATOM     10  N   UNL     1      -4.894  -8.157  -2.365  0.00  0.00    -0.322 N 
ATOM     11  H   UNL     1      -4.271  -8.530  -3.008  0.00  0.00    +0.169 HD
ATOM     12  C   UNL     1      -5.097  -6.828  -2.332  0.00  0.00    +0.254 A 
ATOM     13  O   UNL     1      -4.493  -6.116  -3.115  0.00  0.00    -0.268 OA
ATOM     14  C   UNL     1      -4.391 -10.967  -2.529  0.00  0.00    +0.046 C 
ATOM     15  C   UNL     1      -8.116  -8.737   1.318  0.00  0.00    +0.044 C 
ENDBRANCH   1   2
BRANCH   1  19
ATOM     16  C   UNL     1      -2.881  -2.427   0.017  0.00  0.00    +0.100 C 
ATOM     17  C   UNL     1      -3.645  -1.965  -1.228  0.00  0.00    +0.030 C 
ATOM     18  C   UNL     1      -5.028  -2.621  -1.243  0.00  0.00    +0.086 C 
ATOM     19  N   UNL     1      -4.879  -4.081  -1.252  0.00  0.00    -0.289 NA
ATOM     20  C   UNL     1      -4.189  -4.552  -0.044  0.00  0.00    +0.086 C 
ATOM     21  C   UNL     1      -2.781  -3.954   0.007  0.00  0.00    +0.030 C 
BRANCH  16  22
ATOM     22  C   UNL     1      -1.496  -1.832   0.006  0.00  0.00    +0.310 C 
ATOM     23  O   UNL     1      -0.528  -2.555  -0.007  0.00  0.00    -0.251 OA
BRANCH  22  24
ATOM     24  O   UNL     1      -1.339  -0.499   0.012  0.00  0.00    -0.465 OA
BRANCH  24  26
ATOM     25  C   UNL     1      -0.019   1.526   0.010  0.00  0.00    +0.048 C 
ATOM     26  C   UNL     1       0.002  -0.004   0.002  0.00  0.00    +0.229 C 
ENDBRANCH  24  26
ENDBRANCH  22  24
ENDBRANCH  16  22
ENDBRANCH   1  19
BRANCH   1  27
ATOM     27  C   UNL     1      -6.812  -4.314  -2.706  0.00  0.00    +0.173 A 
ATOM     28  N   UNL     1      -6.221  -4.234  -3.874  0.00  0.00    -0.111 NA
ATOM     29  N   UNL     1      -7.092  -3.831  -4.733  0.00  0.00    -0.023 NA
ATOM     30  N   UNL     1      -8.222  -3.650  -4.144  0.00  0.00    -0.044 NA
ATOM     31  N   UNL     1      -8.092  -3.942  -2.895  0.00  0.00    -0.224 N 
BRANCH  31  32
ATOM     32  C   UNL     1      -9.139  -3.879  -1.872  0.00  0.00    +0.111 C 
ATOM     33  C   UNL     1     -10.331  -4.768  -2.280  0.00  0.00    +0.027 C 
ATOM     34  C   UNL     1     -11.575  -3.977  -1.805  0.00  0.00    +0.002 C 
ATOM     35  C   UNL     1     -11.182  -2.509  -2.104  0.00  0.00    +0.002 C 
ATOM     36  C   UNL     1      -9.679  -2.442  -1.760  0.00  0.00    +0.027 C 
ENDBRANCH  31  32
ENDBRANCH   1  27
TORSDOF 7
