REMARK  Name = ZINC40801275
REMARK  4 active torsions:
REMARK  status: ('A' for Active; 'I' for Inactive)
REMARK    1  A    between atoms: C_10  and  C_13
REMARK    2  A    between atoms: C_13  and  C_14
REMARK    3  A    between atoms: N_16  and  C_17
REMARK    4  A    between atoms: C_18  and  C_26
REMARK                            x       y       z     vdW  Elec       q    Type
REMARK                         _______ _______ _______ _____ _____    ______ ____
ROOT
ATOM      1  C   UNL     1       4.926  -0.948  -2.573  0.00  0.00    +0.222 C 
ATOM      2  O   UNL     1       5.741  -0.660  -1.722  0.00  0.00    -0.275 OA
ATOM      3  N   UNL     1       5.161  -0.638  -3.863  0.00  0.00    -0.279 N 
ATOM      4  H   UNL     1       4.510  -0.869  -4.544  0.00  0.00    +0.155 HD
ENDROOT
BRANCH   3   5
ATOM      5  C   UNL     1       6.335   0.012  -4.218  0.00  0.00    +0.090 A 
ATOM      6  C   UNL     1       6.739   0.411  -5.481  0.00  0.00    +0.084 A 
ATOM      7  C   UNL     1       8.024   1.080  -5.588  0.00  0.00    -0.018 A 
ATOM      8  C   UNL     1       8.669   1.227  -4.410  0.00  0.00    -0.004 A 
ATOM      9  S   UNL     1       7.588   0.502  -3.213  0.00  0.00    -0.077 S 
ATOM     10  C   UNL     1      10.004   1.869  -4.191  0.00  0.00    +0.043 C 
ATOM     11  C   UNL     1      10.705   2.001  -5.551  0.00  0.00    +0.005 C 
ATOM     12  C   UNL     1       9.722   2.604  -6.559  0.00  0.00    +0.005 C 
ATOM     13  C   UNL     1       8.627   1.587  -6.889  0.00  0.00    +0.037 C 
BRANCH   6  14
ATOM     14  C   UNL     1       5.924   0.174  -6.634  0.00  0.00    +0.102 C 
ATOM     15  N   UNL     1       5.277  -0.015  -7.549  0.00  0.00    -0.191 NA
ENDBRANCH   6  14
ENDBRANCH   3   5
BRANCH   1  16
ATOM     16  C   UNL     1       3.652  -1.654  -2.187  0.00  0.00    +0.150 C 
BRANCH  16  26
ATOM     17  C   UNL     1      -0.017   1.378   0.010  0.00  0.00    +0.002 A 
ATOM     18  C   UNL     1       1.169   2.090   0.002  0.00  0.00    +0.004 A 
ATOM     19  C   UNL     1       2.381   1.424  -0.007  0.00  0.00    +0.047 A 
ATOM     20  C   UNL     1       2.408   0.040  -0.011  0.00  0.00    +0.143 A 
ATOM     21  C   UNL     1       1.213  -0.677  -0.015  0.00  0.00    +0.076 A 
ATOM     22  C   UNL     1       0.002  -0.004   0.002  0.00  0.00    +0.027 A 
ATOM     23  N   UNL     1       1.249  -2.078  -0.054  0.00  0.00    -0.280 N 
ATOM     24  C   UNL     1       2.420  -2.700  -0.306  0.00  0.00    +0.259 C 
ATOM     25  O   UNL     1       2.494  -3.909  -0.237  0.00  0.00    -0.271 OA
ATOM     26  C   UNL     1       3.635  -1.887  -0.675  0.00  0.00    +0.268 C 
ATOM     27  O   UNL     1       3.593  -0.627  -0.002  0.00  0.00    -0.477 OA
ATOM     28  H   UNL     1       0.442  -2.594   0.098  0.00  0.00    +0.155 HD
ENDBRANCH  16  26
ENDBRANCH   1  16
TORSDOF 4
