REMARK  Name = ZINC08961928
REMARK  6 active torsions:
REMARK  status: ('A' for Active; 'I' for Inactive)
REMARK    1  A    between atoms: C_1  and  C_2
REMARK    2  A    between atoms: C_5  and  S_9
REMARK    3  A    between atoms: C_6  and  C_8
REMARK    4  A    between atoms: S_9  and  N_12
REMARK    5  A    between atoms: N_12  and  C_13
REMARK    6  A    between atoms: C_23  and  C_26
REMARK                            x       y       z     vdW  Elec       q    Type
REMARK                         _______ _______ _______ _____ _____    ______ ____
ROOT
ATOM      1  C   UNL     1      -1.143   3.059  -1.717  0.00  0.00    +0.049 A 
ATOM      2  C   UNL     1      -0.164   4.046  -1.677  0.00  0.00    +0.028 A 
ATOM      3  C   UNL     1      -0.475   5.353  -1.999  0.00  0.00    +0.048 A 
ATOM      4  C   UNL     1      -1.767   5.688  -2.366  0.00  0.00    +0.133 A 
ATOM      5  C   UNL     1      -2.760   4.697  -2.406  0.00  0.00    +0.080 A 
ATOM      6  C   UNL     1      -2.440   3.378  -2.086  0.00  0.00    +0.041 A 
ATOM      7  C   UNL     1      -4.133   5.075  -2.791  0.00  0.00    +0.248 C 
ATOM      8  O   UNL     1      -5.085   4.709  -2.128  0.00  0.00    -0.270 OA
ATOM      9  N   UNL     1      -4.315   5.837  -3.896  0.00  0.00    -0.308 N 
ATOM     10  C   UNL     1      -3.165   6.175  -4.737  0.00  0.00    +0.148 C 
ATOM     11  C   UNL     1      -2.307   7.244  -4.075  0.00  0.00    +0.187 C 
ATOM     12  O   UNL     1      -2.091   6.964  -2.697  0.00  0.00    -0.487 OA
ATOM     13  C   UNL     1      -3.008   8.598  -4.203  0.00  0.00    +0.053 C 
ATOM     14  H   UNL     1      -5.201   6.157  -4.128  0.00  0.00    +0.149 HD
ENDROOT
BRANCH   1  15
ATOM     15  N   UNL     1      -0.816   1.738  -1.391  0.00  0.00    -0.216 N 
ATOM     16  H   UNL     1      -1.117   1.010  -1.957  0.00  0.00    +0.174 HD
BRANCH  15  17
ATOM     17  S   UNL     1       0.084   1.418  -0.038  0.00  0.00    +0.073 S 
ATOM     18  O   UNL     1       0.153   0.003   0.079  0.00  0.00    -0.150 OA
ATOM     19  O   UNL     1       1.245   2.233  -0.121  0.00  0.00    -0.150 OA
BRANCH  17  24
ATOM     20  C   UNL     1      -3.072   3.388   4.712  0.00  0.00    +0.044 C 
ATOM     21  C   UNL     1      -2.284   2.896   3.526  0.00  0.00    -0.050 A 
ATOM     22  C   UNL     1      -1.082   3.495   3.197  0.00  0.00    +0.005 A 
ATOM     23  C   UNL     1      -0.357   3.041   2.112  0.00  0.00    +0.029 A 
ATOM     24  C   UNL     1      -0.838   1.993   1.349  0.00  0.00    +0.111 A 
ATOM     25  C   UNL     1      -2.039   1.393   1.678  0.00  0.00    -0.024 A 
ATOM     26  C   UNL     1      -2.762   1.845   2.766  0.00  0.00    +0.008 A 
ATOM     27  C   UNL     1      -2.560   0.247   0.850  0.00  0.00    +0.046 C 
ENDBRANCH  17  24
ENDBRANCH  15  17
ENDBRANCH   1  15
TORSDOF 3
