REMARK  Name = ZINC08964040
REMARK  7 active torsions:
REMARK  status: ('A' for Active; 'I' for Inactive)
REMARK    1  A    between atoms: C_1  and  N_2
REMARK    2  A    between atoms: C_9  and  C_11
REMARK    3  A    between atoms: C_11  and  C_13
REMARK    4  A    between atoms: C_11  and  N_57
REMARK    5  A    between atoms: C_13  and  N_14
REMARK    6  A    between atoms: C_15  and  C_17
REMARK    7  A    between atoms: N_19  and  C_20
REMARK                            x       y       z     vdW  Elec       q    Type
REMARK                         _______ _______ _______ _____ _____    ______ ____
ROOT
ATOM      1  C   UNL     1      -3.417   6.234  -0.943  0.00  0.00    -0.020 C 
ENDROOT
BRANCH   1  10
ATOM      2  C   UNL     1       2.059   4.065   1.734  0.00  0.00    +0.129 C 
ATOM      3  N   UNL     1       0.891   3.294   1.289  0.00  0.00    -0.332 N 
ATOM      4  C   UNL     1       1.241   2.405   0.161  0.00  0.00    +0.109 C 
ATOM      5  C   UNL     1      -0.077   2.334  -0.643  0.00  0.00    +0.056 C 
ATOM      6  C   UNL     1      -0.767   3.632  -0.273  0.00  0.00    -0.025 A 
ATOM      7  C   UNL     1      -0.143   4.140   0.861  0.00  0.00    +0.033 A 
ATOM      8  C   UNL     1      -0.593   5.344   1.399  0.00  0.00    +0.023 A 
ATOM      9  C   UNL     1      -1.647   6.015   0.815  0.00  0.00    +0.004 A 
ATOM     10  C   UNL     1      -2.265   5.498  -0.309  0.00  0.00    -0.059 A 
ATOM     11  C   UNL     1      -1.823   4.305  -0.851  0.00  0.00    +0.007 A 
ENDBRANCH   1  10
BRANCH   1  16
ATOM     12  C   UNL     1      -5.626   7.167  -0.519  0.00  0.00    -0.078 C 
ATOM     13  C   UNL     1      -6.697   6.973   0.583  0.00  0.00    -0.020 C 
ATOM     14  C   UNL     1      -6.335   5.593   1.179  0.00  0.00    -0.020 C 
ATOM     15  C   UNL     1      -4.854   5.375   0.818  0.00  0.00    -0.078 C 
ATOM     16  N   UNL     1      -4.428   6.578   0.102  0.00  0.00    +0.385 N 
ATOM     17  H   UNL     1      -4.015   7.247   0.762  0.00  0.00    -0.081 HD
ENDBRANCH   1  16
BRANCH   1  18
ATOM     18  C   UNL     1      -2.903   7.513  -1.607  0.00  0.00    +0.094 C 
BRANCH  18  19
ATOM     19  N   UNL     1      -3.975   8.114  -2.404  0.00  0.00    -0.309 N 
ATOM     20  C   UNL     1      -3.796   9.325  -2.968  0.00  0.00    +0.299 C 
ATOM     21  O   UNL     1      -2.748   9.917  -2.817  0.00  0.00    -0.265 OA
ATOM     22  H   UNL     1      -4.813   7.642  -2.525  0.00  0.00    +0.149 HD
BRANCH  20  23
ATOM     23  C   UNL     1      -4.889   9.939  -3.780  0.00  0.00    +0.303 C 
ATOM     24  O   UNL     1      -5.938   9.347  -3.932  0.00  0.00    -0.265 OA
ATOM     25  N   UNL     1      -4.711  11.149  -4.345  0.00  0.00    -0.278 N 
ATOM     26  H   UNL     1      -3.845  11.584  -4.298  0.00  0.00    +0.155 HD
BRANCH  25  27
ATOM     27  C   UNL     1      -5.774  11.779  -4.998  0.00  0.00    +0.034 A 
ATOM     28  C   UNL     1      -5.531  12.590  -6.101  0.00  0.00    +0.025 A 
ATOM     29  C   UNL     1      -6.584  13.207  -6.747  0.00  0.00    +0.022 A 
ATOM     30  C   UNL     1      -7.878  13.027  -6.291  0.00  0.00    +0.041 A 
ATOM     31  C   UNL     1      -8.122  12.225  -5.191  0.00  0.00    +0.022 A 
ATOM     32  C   UNL     1      -7.074  11.601  -4.543  0.00  0.00    +0.025 A 
ATOM     33 CL   UNL     1      -9.198  13.810  -7.103  0.00  0.00    -0.084 Cl
ENDBRANCH  25  27
ENDBRANCH  20  23
ENDBRANCH  18  19
ENDBRANCH   1  18
TORSDOF 6
