REMARK  Name = ZINC05145902
REMARK  7 active torsions:
REMARK  status: ('A' for Active; 'I' for Inactive)
REMARK    1  A    between atoms: C_1  and  C_2
REMARK    2  A    between atoms: C_7  and  C_8
REMARK    3  A    between atoms: N_10  and  C_11
REMARK    4  A    between atoms: C_12  and  C_22
REMARK    5  A    between atoms: C_17  and  C_21
REMARK    6  A    between atoms: C_25  and  O_27
REMARK    7  A    between atoms: O_27  and  C_28
REMARK                            x       y       z     vdW  Elec       q    Type
REMARK                         _______ _______ _______ _____ _____    ______ ____
ROOT
ATOM      1  C   UNL     1      -1.677  -4.804  -0.251  0.00  0.00    +0.085 A 
ATOM      2  C   UNL     1      -0.367  -4.351  -0.153  0.00  0.00    +0.069 A 
ATOM      3  C   UNL     1      -0.099  -2.983  -0.563  0.00  0.00    -0.023 A 
ATOM      4  C   UNL     1      -1.173  -2.292  -1.002  0.00  0.00    -0.004 A 
ATOM      5  S   UNL     1      -2.525  -3.428  -0.877  0.00  0.00    -0.077 S 
ATOM      6  C   UNL     1      -1.199  -0.875  -1.487  0.00  0.00    +0.046 C 
ATOM      7  C   UNL     1       0.245  -0.433  -1.768  0.00  0.00    -0.009 C 
ATOM      8  C   UNL     1       1.120  -0.820  -0.572  0.00  0.00    +0.008 C 
ATOM      9  C   UNL     1       1.282  -2.340  -0.516  0.00  0.00    +0.037 C 
ATOM     10  C   UNL     1       0.287   1.083  -1.965  0.00  0.00    +0.008 C 
ENDROOT
BRANCH   2  11
ATOM     11  C   UNL     1       0.702  -5.219   0.344  0.00  0.00    +0.255 C 
ATOM     12  O   UNL     1       0.959  -5.249   1.533  0.00  0.00    -0.270 OA
ATOM     13  N   UNL     1       1.402  -5.986  -0.515  0.00  0.00    -0.217 N 
ATOM     14  C   UNL     1       2.386  -6.785  -0.058  0.00  0.00    +0.407 C 
ATOM     15  O   UNL     1       2.642  -6.815   1.129  0.00  0.00    -0.226 OA
ATOM     16  H   UNL     1       1.197  -5.963  -1.463  0.00  0.00    +0.161 HD
BRANCH  14  17
ATOM     17  O   UNL     1       3.085  -7.551  -0.917  0.00  0.00    -0.453 OA
ATOM     18  C   UNL     1       4.130  -8.387  -0.354  0.00  0.00    +0.282 C 
ENDBRANCH  14  17
ENDBRANCH   2  11
BRANCH   1  21
ATOM     19  C   UNL     1      -3.495  -6.310  -0.089  0.00  0.00    +0.249 C 
ATOM     20  O   UNL     1      -4.235  -5.448  -0.521  0.00  0.00    -0.270 OA
ATOM     21  N   UNL     1      -2.182  -6.052   0.074  0.00  0.00    -0.275 N 
ATOM     22  H   UNL     1      -1.591  -6.740   0.419  0.00  0.00    +0.156 HD
BRANCH  19  29
ATOM     23  C   UNL     1      -6.351  -6.763  -0.175  0.00  0.00    +0.044 C 
ATOM     24  C   UNL     1      -5.410  -7.873   0.219  0.00  0.00    -0.038 A 
ATOM     25  C   UNL     1      -5.907  -9.120   0.538  0.00  0.00    +0.004 A 
ATOM     26  C   UNL     1      -5.045 -10.137   0.906  0.00  0.00    +0.000 A 
ATOM     27  C   UNL     1      -3.680  -9.914   0.951  0.00  0.00    +0.001 A 
ATOM     28  C   UNL     1      -3.170  -8.674   0.629  0.00  0.00    +0.013 A 
ATOM     29  C   UNL     1      -4.034  -7.642   0.257  0.00  0.00    +0.040 A 
ENDBRANCH  19  29
ENDBRANCH   1  21
TORSDOF 4
