REMARK  Name = ZINC14740758
REMARK  10 active torsions:
REMARK  status: ('A' for Active; 'I' for Inactive)
REMARK    1  A    between atoms: C_1  and  C_2
REMARK    2  A    between atoms: C_2  and  C_3
REMARK    3  A    between atoms: C_2  and  C_4
REMARK    4  A    between atoms: C_4  and  N_5
REMARK    5  A    between atoms: C_8  and  C_10
REMARK    6  A    between atoms: N_12  and  C_13
REMARK    7  A    between atoms: N_12  and  C_14
REMARK    8  A    between atoms: C_16  and  N_20
REMARK    9  A    between atoms: N_20  and  C_21
REMARK   10  A    between atoms: C_21  and  C_22
REMARK                            x       y       z     vdW  Elec       q    Type
REMARK                         _______ _______ _______ _____ _____    ______ ____
ROOT
ATOM      1  N   UNL     1       2.925   1.368   0.839  0.00  0.00    -0.267 N 
ATOM      2  C   UNL     1       3.115   1.963   2.028  0.00  0.00    +0.043 A 
ATOM      3  C   UNL     1       3.694   1.051   2.846  0.00  0.00    +0.007 A 
ATOM      4  C   UNL     1       3.844  -0.116   2.078  0.00  0.00    +0.151 A 
ATOM      5  N   UNL     1       3.357   0.154   0.879  0.00  0.00    -0.166 NA
ATOM      6  C   UNL     1       4.079   1.309   4.277  0.00  0.00    +0.058 C 
ATOM      7  C   UNL     1       4.096   2.829   4.503  0.00  0.00    +0.059 C 
ATOM      8  C   UNL     1       2.791   3.434   3.980  0.00  0.00    +0.025 C 
ATOM      9  C   UNL     1       2.769   3.369   2.448  0.00  0.00    +0.057 C 
ENDROOT
BRANCH   4  10
ATOM     10  C   UNL     1       4.431  -1.396   2.524  0.00  0.00    +0.267 C 
ATOM     11  O   UNL     1       4.927  -1.485   3.630  0.00  0.00    -0.268 OA
ATOM     12  N   UNL     1       4.418  -2.465   1.703  0.00  0.00    -0.302 N 
ATOM     13  C   UNL     1       4.946  -3.751   2.167  0.00  0.00    +0.132 C 
ATOM     14  C   UNL     1       3.876  -2.342   0.348  0.00  0.00    +0.132 C 
ENDBRANCH   4  10
BRANCH   7  15
ATOM     15  N   UNL     1       4.224   3.107   5.940  0.00  0.00    -0.309 NA
ATOM     16  H   UNL     1       3.229   3.081   6.408  0.00  0.00    +0.123 HD
BRANCH  15  17
ATOM     17  C   UNL     1       4.819   4.430   6.169  0.00  0.00    +0.122 C 
BRANCH  17  18
ATOM     18  C   UNL     1       4.934   4.679   7.651  0.00  0.00    +0.037 A 
ATOM     19  C   UNL     1       3.896   5.290   8.333  0.00  0.00    +0.131 A 
ATOM     20  C   UNL     1       4.001   5.514   9.695  0.00  0.00    +0.039 A 
ATOM     21  C   UNL     1       5.146   5.137  10.372  0.00  0.00    +0.006 A 
ATOM     22  C   UNL     1       6.185   4.532   9.691  0.00  0.00    +0.039 A 
ATOM     23  C   UNL     1       6.080   4.302   8.329  0.00  0.00    +0.131 A 
ATOM     24  F   UNL     1       7.096   3.711   7.664  0.00  0.00    -0.205 F 
ATOM     25  F   UNL     1       2.780   5.663   7.670  0.00  0.00    -0.205 F 
ENDBRANCH  17  18
ENDBRANCH  15  17
ENDBRANCH   7  15
BRANCH   1  26
ATOM     26  C   UNL     1       2.322   2.006  -0.334  0.00  0.00    +0.146 C 
BRANCH  26  28
ATOM     27  C   UNL     1       0.195   2.337  -1.602  0.00  0.00    +0.009 C 
ATOM     28  C   UNL     1       0.809   1.779  -0.317  0.00  0.00    +0.004 C 
ATOM     29  C   UNL     1       0.201   2.494   0.891  0.00  0.00    +0.009 C 
ENDBRANCH  26  28
ENDBRANCH   1  26
TORSDOF 6
