REMARK  Name = ZINC13270354
REMARK  7 active torsions:
REMARK  status: ('A' for Active; 'I' for Inactive)
REMARK    1  A    between atoms: C_1  and  C_2
REMARK    2  A    between atoms: C_5  and  S_10
REMARK    3  A    between atoms: C_7  and  C_8
REMARK    4  A    between atoms: S_10  and  N_13
REMARK    5  A    between atoms: N_13  and  C_14
REMARK    6  A    between atoms: C_14  and  C_16
REMARK    7  A    between atoms: C_14  and  C_22
REMARK                            x       y       z     vdW  Elec       q    Type
REMARK                         _______ _______ _______ _____ _____    ______ ____
ROOT
ATOM      1  C   UNL     1      -0.624   1.459   0.268  0.00  0.00    +0.172 C 
ENDROOT
BRANCH   1   2
ATOM      2  C   UNL     1      -0.818  -0.031   0.379  0.00  0.00    +0.129 A 
ATOM      3  C   UNL     1       0.039  -0.953  -0.080  0.00  0.00    +0.055 A 
ATOM      4  C   UNL     1      -0.549  -2.257   0.246  0.00  0.00    +0.020 A 
ATOM      5  C   UNL     1      -0.159  -3.581   0.045  0.00  0.00    +0.011 A 
ATOM      6  C   UNL     1      -0.962  -4.598   0.480  0.00  0.00    +0.001 A 
ATOM      7  C   UNL     1      -2.162  -4.321   1.120  0.00  0.00    +0.004 A 
ATOM      8  C   UNL     1      -2.564  -3.019   1.328  0.00  0.00    +0.047 A 
ATOM      9  C   UNL     1      -1.763  -1.971   0.894  0.00  0.00    +0.135 A 
ATOM     10  O   UNL     1      -1.879  -0.629   0.949  0.00  0.00    -0.458 OA
ENDBRANCH   1   2
BRANCH   1  11
ATOM     11  C   UNL     1      -1.435   1.986  -0.888  0.00  0.00    -0.022 A 
ATOM     12  C   UNL     1      -2.792   2.203  -0.739  0.00  0.00    +0.005 A 
ATOM     13  C   UNL     1      -3.534   2.691  -1.798  0.00  0.00    +0.000 A 
ATOM     14  C   UNL     1      -2.922   2.952  -3.010  0.00  0.00    +0.000 A 
ATOM     15  C   UNL     1      -1.566   2.730  -3.160  0.00  0.00    +0.000 A 
ATOM     16  C   UNL     1      -0.822   2.247  -2.100  0.00  0.00    +0.005 A 
ENDBRANCH   1  11
BRANCH   1  17
ATOM     17  N   UNL     1      -1.066   2.103   1.508  0.00  0.00    -0.175 NA
ATOM     18  H   UNL     1      -1.824   1.746   1.996  0.00  0.00    +0.149 HD
BRANCH  17  19
ATOM     19  S   UNL     1      -0.271   3.441   2.074  0.00  0.00    +0.059 S 
ATOM     20  O   UNL     1      -0.944   3.841   3.260  0.00  0.00    -0.153 OA
ATOM     21  O   UNL     1       1.115   3.130   2.052  0.00  0.00    -0.153 OA
BRANCH  19  26
ATOM     22  C   UNL     1      -1.085   7.850  -1.979  0.00  0.00    +0.044 C 
ATOM     23  C   UNL     1      -0.885   6.752  -0.966  0.00  0.00    -0.036 A 
ATOM     24  C   UNL     1       0.194   5.901  -1.074  0.00  0.00    +0.006 A 
ATOM     25  C   UNL     1       0.382   4.895  -0.142  0.00  0.00    +0.029 A 
ATOM     26  C   UNL     1      -0.516   4.729   0.897  0.00  0.00    +0.106 A 
ATOM     27  C   UNL     1      -1.600   5.574   1.017  0.00  0.00    +0.044 A 
ATOM     28  C   UNL     1      -1.793   6.594   0.083  0.00  0.00    +0.068 A 
BRANCH  28  29
ATOM     29  C   UNL     1      -2.952   7.503   0.205  0.00  0.00    +0.387 C 
ATOM     30  O   UNL     1      -3.056   8.457  -0.539  0.00  0.00    -0.241 OA
ATOM     31  O   UNL     1      -3.893   7.272   1.141  0.00  0.00    -0.241 OA
ENDBRANCH  28  29
ENDBRANCH  19  26
ENDBRANCH  17  19
ENDBRANCH   1  17
TORSDOF 6
