REMARK  Name = ZINC42270726
REMARK  4 active torsions:
REMARK  status: ('A' for Active; 'I' for Inactive)
REMARK    1  A    between atoms: C_6  and  C_7
REMARK    2  A    between atoms: C_7  and  N_8
REMARK    3  A    between atoms: N_8  and  S_9
REMARK    4  A    between atoms: S_9  and  C_12
REMARK                            x       y       z     vdW  Elec       q    Type
REMARK                         _______ _______ _______ _____ _____    ______ ____
ROOT
ATOM      1  N   UNL     1      -1.726  -1.017  -1.368  0.00  0.00    -0.185 NA
ATOM      2  H   UNL     1      -1.325  -0.518  -2.097  0.00  0.00    +0.148 HD
ENDROOT
BRANCH   1   3
ATOM      3  S   UNL     1      -2.898  -2.144  -1.682  0.00  0.00    +0.067 S 
ATOM      4  O   UNL     1      -3.112  -2.127  -3.087  0.00  0.00    -0.152 OA
ATOM      5  O   UNL     1      -2.525  -3.324  -0.983  0.00  0.00    -0.152 OA
BRANCH   3   6
ATOM      6  C   UNL     1      -4.387  -1.567  -0.938  0.00  0.00    +0.163 A 
ATOM      7  C   UNL     1      -5.369  -0.786  -1.456  0.00  0.00    +0.149 A 
ATOM      8  N   UNL     1      -6.387  -0.503  -0.667  0.00  0.00    -0.234 NA
ATOM      9  C   UNL     1      -6.445  -0.959   0.560  0.00  0.00    +0.169 A 
ATOM     10  S   UNL     1      -5.027  -1.855   0.704  0.00  0.00    -0.036 S 
ATOM     11 CL   UNL     1      -7.685  -0.705   1.748  0.00  0.00    -0.054 Cl
ENDBRANCH   3   6
ENDBRANCH   1   3
BRANCH   1  12
ATOM     12  C   UNL     1      -1.293  -0.775   0.010  0.00  0.00    +0.141 C 
BRANCH  12  18
ATOM     13  C   UNL     1      -0.017   1.378   0.010  0.00  0.00    +0.006 A 
ATOM     14  C   UNL     1       1.171   2.086   0.002  0.00  0.00    +0.015 A 
ATOM     15  C   UNL     1       2.378   1.411  -0.013  0.00  0.00    +0.018 A 
ATOM     16  C   UNL     1       2.396   0.027  -0.021  0.00  0.00    +0.015 A 
ATOM     17  C   UNL     1       1.208  -0.679  -0.013  0.00  0.00    +0.006 A 
ATOM     18  C   UNL     1       0.002  -0.004   0.002  0.00  0.00    -0.032 A 
ATOM     19 BR   UNL     1       4.003   2.378  -0.024  0.00  0.00    -0.050 Br
ENDBRANCH  12  18
ENDBRANCH   1  12
TORSDOF 4
