REMARK  Name = ZINC05170405
REMARK  6 active torsions:
REMARK  status: ('A' for Active; 'I' for Inactive)
REMARK    1  A    between atoms: C_1  and  C_2
REMARK    2  A    between atoms: C_3  and  C_27
REMARK    3  A    between atoms: C_11  and  C_13
REMARK    4  A    between atoms: C_13  and  S_14
REMARK    5  A    between atoms: S_14  and  C_15
REMARK    6  A    between atoms: C_18  and  C_20
REMARK                            x       y       z     vdW  Elec       q    Type
REMARK                         _______ _______ _______ _____ _____    ______ ____
ROOT
ATOM      1  C   UNL     1      -1.338   2.024   0.019  0.00  0.00    +0.153 C 
ENDROOT
BRANCH   1  12
ATOM      2  C   UNL     1       4.944  -0.317  -0.048  0.00  0.00    +0.045 C 
ATOM      3  C   UNL     1       3.551  -0.893  -0.037  0.00  0.00    -0.026 A 
ATOM      4  C   UNL     1       3.366  -2.222  -0.042  0.00  0.00    -0.008 A 
ATOM      5  S   UNL     1       1.591  -2.392  -0.026  0.00  0.00    -0.073 S 
ATOM      6  C   UNL     1       1.151  -0.673  -0.013  0.00  0.00    +0.116 A 
ATOM      7  C   UNL     1       2.395  -0.017  -0.021  0.00  0.00    +0.075 A 
ATOM      8  C   UNL     1       2.339   1.415  -0.012  0.00  0.00    +0.260 A 
ATOM      9  O   UNL     1       3.364   2.075  -0.018  0.00  0.00    -0.267 OA
ATOM     10  N   UNL     1       1.137   2.020   0.002  0.00  0.00    -0.310 N 
ATOM     11  H   UNL     1       1.091   3.019   0.008  0.00  0.00    +0.170 HD
ATOM     12  C   UNL     1      -0.016   1.302   0.009  0.00  0.00    +0.121 A 
ATOM     13  N   UNL     1       0.002  -0.004   0.002  0.00  0.00    -0.226 NA
ATOM     14  C   UNL     1       4.409  -3.311  -0.058  0.00  0.00    +0.052 C 
ENDBRANCH   1  12
BRANCH   1  15
ATOM     15  S   UNL     1      -2.686   0.816   0.019  0.00  0.00    -0.058 S 
BRANCH  15  16
ATOM     16  C   UNL     1      -4.072   1.903   0.032  0.00  0.00    +0.278 A 
ATOM     17  N   UNL     1      -4.030   3.215   0.044  0.00  0.00    -0.101 NA
ATOM     18  N   UNL     1      -5.229   3.682   0.048  0.00  0.00    -0.106 NA
ATOM     19  C   UNL     1      -6.083   2.688   0.046  0.00  0.00    +0.249 A 
ATOM     20  O   UNL     1      -5.369   1.541   0.036  0.00  0.00    -0.411 OA
BRANCH  19  21
ATOM     21  C   UNL     1      -7.557   2.801   0.054  0.00  0.00    +0.040 A 
ATOM     22  C   UNL     1      -8.348   1.650   0.046  0.00  0.00    +0.013 A 
ATOM     23  C   UNL     1      -9.723   1.762   0.059  0.00  0.00    +0.002 A 
ATOM     24  C   UNL     1     -10.319   3.011   0.069  0.00  0.00    +0.020 A 
ATOM     25  C   UNL     1      -9.541   4.156   0.072  0.00  0.00    +0.042 A 
ATOM     26  C   UNL     1      -8.163   4.058   0.064  0.00  0.00    +0.033 A 
ATOM     27 CL   UNL     1     -10.298   5.718   0.084  0.00  0.00    -0.084 Cl
ENDBRANCH  19  21
ENDBRANCH  15  16
ENDBRANCH   1  15
TORSDOF 4
