REMARK  Name = ZINC13199652
REMARK  7 active torsions:
REMARK  status: ('A' for Active; 'I' for Inactive)
REMARK    1  A    between atoms: C_3  and  C_6
REMARK    2  A    between atoms: C_6  and  N_7
REMARK    3  A    between atoms: N_7  and  C_8
REMARK    4  A    between atoms: N_7  and  S_16
REMARK    5  A    between atoms: S_16  and  C_19
REMARK    6  A    between atoms: C_22  and  O_27
REMARK    7  A    between atoms: C_23  and  C_25
REMARK                            x       y       z     vdW  Elec       q    Type
REMARK                         _______ _______ _______ _____ _____    ______ ____
ROOT
ATOM      1  N   UNL     1       3.034   0.544  -1.334  0.00  0.00    -0.167 NA
ENDROOT
BRANCH   1   2
ATOM      2  C   UNL     1       4.101   1.421  -1.822  0.00  0.00    +0.103 C 
ATOM      3  C   UNL     1       3.731   1.967  -3.211  0.00  0.00    +0.045 C 
ATOM      4  C   UNL     1       4.969   2.624  -3.867  0.00  0.00    +0.167 C 
ATOM      5  S   UNL     1       6.367   1.701  -3.107  0.00  0.00    -0.029 S 
ATOM      6  O   UNL     1       7.159   2.603  -2.348  0.00  0.00    -0.174 OA
ATOM      7  O   UNL     1       6.983   0.895  -4.103  0.00  0.00    -0.174 OA
ATOM      8  C   UNL     1       5.424   0.615  -1.955  0.00  0.00    +0.186 C 
ENDBRANCH   1   2
BRANCH   1   9
ATOM      9  S   UNL     1       2.371   0.800   0.162  0.00  0.00    +0.061 S 
ATOM     10  O   UNL     1       3.345   1.501   0.923  0.00  0.00    -0.153 OA
ATOM     11  O   UNL     1       1.825  -0.443   0.582  0.00  0.00    -0.153 OA
BRANCH   9  12
ATOM     12  C   UNL     1       1.012   1.900  -0.052  0.00  0.00    +0.107 A 
ATOM     13  C   UNL     1      -0.254   1.393  -0.300  0.00  0.00    +0.032 A 
ATOM     14  C   UNL     1      -1.326   2.245  -0.475  0.00  0.00    +0.048 A 
ATOM     15  C   UNL     1      -1.145   3.617  -0.391  0.00  0.00    +0.131 A 
ATOM     16  C   UNL     1       0.134   4.135  -0.140  0.00  0.00    +0.106 A 
ATOM     17  C   UNL     1       1.212   3.261   0.029  0.00  0.00    +0.047 A 
BRANCH  16  18
ATOM     18  C   UNL     1       0.340   5.592  -0.054  0.00  0.00    +0.390 C 
ATOM     19  O   UNL     1      -0.599   6.348  -0.201  0.00  0.00    -0.240 OA
ATOM     20  O   UNL     1       1.571   6.085   0.188  0.00  0.00    -0.240 OA
ENDBRANCH  16  18
BRANCH  15  21
ATOM     21  O   UNL     1      -2.198   4.455  -0.557  0.00  0.00    -0.506 OA
ATOM     22  H   UNL     1      -2.345   4.726  -1.474  0.00  0.00    +0.292 HD
ENDBRANCH  15  21
ENDBRANCH   9  12
ENDBRANCH   1   9
BRANCH   1  23
ATOM     23  C   UNL     1       2.553  -0.559  -2.169  0.00  0.00    +0.152 C 
BRANCH  23  26
ATOM     24  C   UNL     1       4.210  -3.750  -0.912  0.00  0.00    +0.008 A 
ATOM     25  C   UNL     1       3.315  -2.697  -0.933  0.00  0.00    +0.012 A 
ATOM     26  C   UNL     1       3.403  -1.780  -1.927  0.00  0.00    +0.005 A 
ATOM     27  S   UNL     1       4.791  -2.389  -2.870  0.00  0.00    -0.100 S 
ATOM     28  C   UNL     1       5.155  -3.829  -1.880  0.00  0.00    +0.045 A 
ENDBRANCH  23  26
ENDBRANCH   1  23
TORSDOF 7
