REMARK  Name = ZINC11024172
REMARK  9 active torsions:
REMARK  status: ('A' for Active; 'I' for Inactive)
REMARK    1  A    between atoms: C_1  and  C_2
REMARK    2  A    between atoms: C_2  and  C_41
REMARK    3  A    between atoms: C_9  and  C_21
REMARK    4  A    between atoms: C_17  and  C_19
REMARK    5  A    between atoms: C_17  and  C_20
REMARK    6  A    between atoms: N_23  and  C_24
REMARK    7  A    between atoms: C_24  and  C_25
REMARK    8  A    between atoms: N_33  and  C_34
REMARK    9  A    between atoms: C_34  and  C_35
REMARK                            x       y       z     vdW  Elec       q    Type
REMARK                         _______ _______ _______ _____ _____    ______ ____
ROOT
ATOM      1  C   UNL     1      -1.889  -5.122  -1.636  0.00  0.00    +0.245 C 
ATOM      2  O   UNL     1      -2.244  -5.827  -0.715  0.00  0.00    -0.273 OA
ATOM      3  N   UNL     1      -1.277  -3.948  -1.389  0.00  0.00    -0.306 N 
ATOM      4  H   UNL     1      -0.993  -3.384  -2.126  0.00  0.00    +0.149 HD
ENDROOT
BRANCH   1  11
ATOM      5  C   UNL     1      -1.786  -3.131  -5.669  0.00  0.00    +0.074 C 
ATOM      6  C   UNL     1      -0.810  -4.305  -5.566  0.00  0.00    +0.166 C 
ATOM      7  O   UNL     1      -1.474  -5.522  -5.958  0.00  0.00    -0.341 OA
ATOM      8  C   UNL     1      -0.922  -6.523  -5.085  0.00  0.00    +0.187 C 
ATOM      9  C   UNL     1      -0.787  -5.749  -3.750  0.00  0.00    +0.191 C 
ATOM     10  O   UNL     1      -0.361  -4.441  -4.210  0.00  0.00    -0.340 OA
ATOM     11  C   UNL     1      -2.134  -5.560  -3.057  0.00  0.00    +0.238 C 
ATOM     12  O   UNL     1      -2.933  -6.749  -3.040  0.00  0.00    -0.333 OA
ATOM     13  C   UNL     1      -3.193  -7.202  -4.359  0.00  0.00    +0.286 C 
ATOM     14  C   UNL     1      -1.827  -7.705  -4.901  0.00  0.00    +0.209 C 
ATOM     15  O   UNL     1      -2.214  -8.449  -6.048  0.00  0.00    -0.338 OA
ATOM     16  C   UNL     1      -3.548  -8.931  -5.769  0.00  0.00    +0.168 C 
ATOM     17  O   UNL     1      -3.976  -8.391  -4.494  0.00  0.00    -0.318 OA
ATOM     18  C   UNL     1      -4.503  -8.469  -6.872  0.00  0.00    +0.074 C 
ATOM     19  C   UNL     1      -3.541 -10.460  -5.705  0.00  0.00    +0.074 C 
ATOM     20  C   UNL     1       0.389  -4.055  -6.482  0.00  0.00    +0.074 C 
ENDBRANCH   1  11
BRANCH   3  21
ATOM     21  C   UNL     1      -1.039  -3.522  -0.007  0.00  0.00    +0.178 C 
BRANCH  21  22
ATOM     22  C   UNL     1      -0.345  -2.184  -0.006  0.00  0.00    +0.128 A 
ATOM     23  N   UNL     1       0.945  -2.014  -0.018  0.00  0.00    -0.231 NA
ATOM     24  C   UNL     1       1.230  -0.686  -0.013  0.00  0.00    +0.089 A 
ATOM     25  C   UNL     1       2.422   0.043  -0.020  0.00  0.00    +0.030 A 
ATOM     26  C   UNL     1       2.384   1.409  -0.012  0.00  0.00    +0.002 A 
ATOM     27  C   UNL     1       1.171   2.083   0.002  0.00  0.00    +0.002 A 
ATOM     28  C   UNL     1      -0.017   1.384   0.010  0.00  0.00    +0.028 A 
ATOM     29  C   UNL     1       0.002  -0.004   0.002  0.00  0.00    +0.069 A 
ATOM     30  N   UNL     1      -0.975  -0.979   0.006  0.00  0.00    -0.322 N 
BRANCH  30  31
ATOM     31  C   UNL     1      -2.423  -0.757   0.021  0.00  0.00    +0.158 C 
BRANCH  31  32
ATOM     32  C   UNL     1      -2.933  -0.673  -1.395  0.00  0.00    -0.028 A 
ATOM     33  C   UNL     1      -2.990   0.549  -2.038  0.00  0.00    +0.005 A 
ATOM     34  C   UNL     1      -3.454   0.625  -3.338  0.00  0.00    +0.000 A 
ATOM     35  C   UNL     1      -3.869  -0.520  -3.992  0.00  0.00    +0.000 A 
ATOM     36  C   UNL     1      -3.816  -1.742  -3.347  0.00  0.00    +0.000 A 
ATOM     37  C   UNL     1      -3.349  -1.818  -2.049  0.00  0.00    +0.005 A 
ENDBRANCH  31  32
ENDBRANCH  30  31
ENDBRANCH  21  22
ENDBRANCH   3  21
TORSDOF 5
