REMARK  Name = ZINC58988471
REMARK  10 active torsions:
REMARK  status: ('A' for Active; 'I' for Inactive)
REMARK    1  A    between atoms: C_2  and  C_3
REMARK    2  A    between atoms: C_3  and  C_4
REMARK    3  A    between atoms: C_8  and  C_11
REMARK    4  A    between atoms: C_9  and  O_10
REMARK    5  A    between atoms: N_12  and  N_13
REMARK    6  A    between atoms: C_14  and  C_16
REMARK    7  A    between atoms: C_16  and  S_17
REMARK    8  A    between atoms: S_17  and  C_18
REMARK    9  A    between atoms: C_21  and  C_24
REMARK   10  A    between atoms: N_22  and  N_23
REMARK                            x       y       z     vdW  Elec       q    Type
REMARK                         _______ _______ _______ _____ _____    ______ ____
ROOT
ATOM      1  N   UNL     1       1.023  -6.817  -0.817  0.00  0.00    -0.206 N 
ATOM      2  C   UNL     1       1.618  -7.192   0.332  0.00  0.00    +0.242 C 
ATOM      3  O   UNL     1       1.643  -6.433   1.278  0.00  0.00    -0.273 OA
ATOM      4  H   UNL     1       1.002  -7.425  -1.573  0.00  0.00    +0.177 HD
ENDROOT
BRANCH   1   6
ATOM      5  C   UNL     1      -0.140  -5.190  -2.028  0.00  0.00    +0.142 C 
ATOM      6  N   UNL     1       0.433  -5.551  -0.920  0.00  0.00    -0.188 NA
BRANCH   5  11
ATOM      7  C   UNL     1      -1.318  -1.726  -1.159  0.00  0.00    -0.002 A 
ATOM      8  C   UNL     1      -1.926  -1.349  -2.342  0.00  0.00    +0.007 A 
ATOM      9  C   UNL     1      -1.956  -2.216  -3.421  0.00  0.00    +0.001 A 
ATOM     10  C   UNL     1      -1.377  -3.465  -3.326  0.00  0.00    +0.013 A 
ATOM     11  C   UNL     1      -0.759  -3.857  -2.136  0.00  0.00    +0.036 A 
ATOM     12  C   UNL     1      -0.728  -2.974  -1.048  0.00  0.00    +0.129 A 
BRANCH  12  13
ATOM     13  O   UNL     1      -0.125  -3.343   0.112  0.00  0.00    -0.506 OA
ATOM     14  H   UNL     1      -0.714  -3.785   0.738  0.00  0.00    +0.292 HD
ENDBRANCH  12  13
BRANCH   7  15
ATOM     15  C   UNL     1      -1.293  -0.775   0.010  0.00  0.00    +0.065 C 
BRANCH  15  17
ATOM     16  C   UNL     1      -0.016   1.306   0.009  0.00  0.00    +0.004 C 
ATOM     17  C   UNL     1       0.002  -0.004   0.002  0.00  0.00    -0.030 C 
ENDBRANCH  15  17
ENDBRANCH   7  15
ENDBRANCH   5  11
ENDBRANCH   1   6
BRANCH   2  18
ATOM     18  C   UNL     1       2.252  -8.555   0.443  0.00  0.00    +0.174 C 
BRANCH  18  19
ATOM     19  S   UNL     1       2.963  -8.758   2.100  0.00  0.00    -0.075 S 
BRANCH  19  20
ATOM     20  C   UNL     1       3.656 -10.378   2.071  0.00  0.00    +0.209 A 
ATOM     21  N   UNL     1       3.643 -11.213   1.056  0.00  0.00    -0.121 NA
ATOM     22  N   UNL     1       4.237 -12.306   1.377  0.00  0.00    -0.127 NA
ATOM     23  C   UNL     1       4.665 -12.237   2.616  0.00  0.00    +0.182 A 
ATOM     24  N   UNL     1       4.311 -10.997   3.097  0.00  0.00    -0.224 N 
BRANCH  23  25
ATOM     25  C   UNL     1       5.395 -13.290   3.354  0.00  0.00    +0.021 A 
ATOM     26  C   UNL     1       5.511 -13.219   4.743  0.00  0.00    +0.013 A 
ATOM     27  C   UNL     1       6.193 -14.205   5.426  0.00  0.00    +0.016 A 
ATOM     28  C   UNL     1       6.763 -15.261   4.736  0.00  0.00    +0.018 A 
ATOM     29  C   UNL     1       6.651 -15.336   3.358  0.00  0.00    +0.016 A 
ATOM     30  C   UNL     1       5.966 -14.361   2.665  0.00  0.00    +0.013 A 
ATOM     31 BR   UNL     1       7.697 -16.608   5.680  0.00  0.00    -0.050 Br
ENDBRANCH  23  25
BRANCH  24  32
ATOM     32  N   UNL     1       4.560 -10.492   4.341  0.00  0.00    -0.295 N 
ATOM     33  H   UNL     1       3.809 -10.714   4.978  0.00  0.00    +0.163 HD
ATOM     34  H   UNL     1       5.444 -10.824   4.696  0.00  0.00    +0.163 HD
ENDBRANCH  24  32
ENDBRANCH  19  20
ENDBRANCH  18  19
ENDBRANCH   2  18
TORSDOF 10
