REMARK  Name = ZINC16455229
REMARK  6 active torsions:
REMARK  status: ('A' for Active; 'I' for Inactive)
REMARK    1  A    between atoms: C_1  and  C_2
REMARK    2  A    between atoms: C_5  and  N_9
REMARK    3  A    between atoms: C_10  and  C_12
REMARK    4  A    between atoms: C_12  and  N_13
REMARK    5  A    between atoms: C_16  and  C_20
REMARK    6  A    between atoms: C_16  and  C_21
REMARK                            x       y       z     vdW  Elec       q    Type
REMARK                         _______ _______ _______ _____ _____    ______ ____
ROOT
ATOM      1  N   UNL     1      -0.232  -6.825  -2.574  0.00  0.00    -0.215 N 
ATOM      2  C   UNL     1      -1.394  -7.000  -3.234  0.00  0.00    +0.251 C 
ATOM      3  O   UNL     1      -2.513  -6.796  -2.814  0.00  0.00    -0.272 OA
ATOM      4  C   UNL     1      -1.011  -7.503  -4.612  0.00  0.00    +0.135 C 
ATOM      5  N   UNL     1       0.461  -7.559  -4.563  0.00  0.00    -0.281 N 
ATOM      6  C   UNL     1       0.821  -7.140  -3.337  0.00  0.00    +0.310 C 
ATOM      7  O   UNL     1       1.975  -7.060  -2.962  0.00  0.00    -0.252 OA
ATOM      8  C   UNL     1      -1.594  -8.896  -4.857  0.00  0.00    +0.047 C 
ATOM      9  H   UNL     1       1.054  -7.840  -5.277  0.00  0.00    +0.152 HD
ENDROOT
BRANCH   4  10
ATOM     10  C   UNL     1      -1.470  -6.539  -5.675  0.00  0.00    -0.015 A 
ATOM     11  C   UNL     1      -2.598  -5.767  -5.467  0.00  0.00    +0.009 A 
ATOM     12  C   UNL     1      -3.019  -4.883  -6.442  0.00  0.00    +0.039 A 
ATOM     13  C   UNL     1      -2.312  -4.770  -7.627  0.00  0.00    +0.123 A 
ATOM     14  C   UNL     1      -1.183  -5.543  -7.834  0.00  0.00    +0.039 A 
ATOM     15  C   UNL     1      -0.760  -6.424  -6.856  0.00  0.00    +0.009 A 
ATOM     16  F   UNL     1      -2.724  -3.905  -8.580  0.00  0.00    -0.205 F 
ENDBRANCH   4  10
BRANCH   1  17
ATOM     17  C   UNL     1      -0.134  -6.344  -1.194  0.00  0.00    +0.214 C 
BRANCH  17  19
ATOM     18  N   UNL     1       0.059  -4.172  -0.025  0.00  0.00    -0.282 N 
ATOM     19  C   UNL     1      -0.040  -4.840  -1.192  0.00  0.00    +0.235 C 
ATOM     20  O   UNL     1      -0.054  -4.230  -2.240  0.00  0.00    -0.274 OA
ATOM     21  H   UNL     1       0.150  -4.662   0.807  0.00  0.00    +0.155 HD
BRANCH  18  26
ATOM     22  C   UNL     1      -0.065   1.502   0.016  0.00  0.00    +0.044 C 
ATOM     23  C   UNL     1      -0.031  -0.005   0.006  0.00  0.00    -0.048 A 
ATOM     24  C   UNL     1      -0.622  -0.701  -1.033  0.00  0.00    +0.005 A 
ATOM     25  C   UNL     1      -0.593  -2.082  -1.046  0.00  0.00    +0.026 A 
ATOM     26  C   UNL     1       0.029  -2.772  -0.015  0.00  0.00    +0.069 A 
ATOM     27  C   UNL     1       0.622  -2.070   1.029  0.00  0.00    +0.145 A 
ATOM     28  C   UNL     1       0.594  -0.688   1.033  0.00  0.00    +0.043 A 
ATOM     29  F   UNL     1       1.228  -2.738   2.035  0.00  0.00    -0.204 F 
ENDBRANCH  18  26
ENDBRANCH  17  19
ENDBRANCH   1  17
TORSDOF 4
