REMARK  Name = ZINC64155748
REMARK  4 active torsions:
REMARK  status: ('A' for Active; 'I' for Inactive)
REMARK    1  A    between atoms: C_1  and  C_2
REMARK    2  A    between atoms: C_5  and  C_15
REMARK    3  A    between atoms: C_6  and  C_14
REMARK    4  A    between atoms: N_21  and  C_22
REMARK                            x       y       z     vdW  Elec       q    Type
REMARK                         _______ _______ _______ _____ _____    ______ ____
ROOT
ATOM      1  C   UNL     1       3.033  -2.014  -1.186  0.00  0.00    +0.076 C 
ATOM      2  N   UNL     1       3.042  -2.087  -2.477  0.00  0.00    -0.176 NA
ATOM      3  N   UNL     1       3.991  -2.715  -3.266  0.00  0.00    -0.259 N 
ATOM      4  C   UNL     1       4.795  -3.657  -2.827  0.00  0.00    +0.149 C 
ATOM      5  S   UNL     1       4.679  -4.156  -1.135  0.00  0.00    -0.085 S 
ATOM      6  C   UNL     1       4.101  -2.632  -0.322  0.00  0.00    +0.134 C 
ATOM      7  N   UNL     1       5.711  -4.245  -3.669  0.00  0.00    -0.321 N 
ATOM      8  H   UNL     1       5.768  -3.965  -4.596  0.00  0.00    +0.148 HD
ATOM      9  H   UNL     1       4.067  -2.445  -4.194  0.00  0.00    +0.191 HD
ENDROOT
BRANCH   1  13
ATOM     10  C   UNL     1       0.779   0.972   1.794  0.00  0.00    +0.029 C 
ATOM     11  C   UNL     1       0.568   0.388   0.396  0.00  0.00    +0.083 C 
ATOM     12  C   UNL     1       1.922   0.174  -0.308  0.00  0.00    +0.061 C 
ATOM     13  C   UNL     1       1.973  -1.317  -0.556  0.00  0.00    -0.005 C 
ATOM     14  C   UNL     1       0.850  -1.869  -0.080  0.00  0.00    +0.016 C 
ATOM     15  N   UNL     1      -0.014  -0.958   0.483  0.00  0.00    -0.269 N 
ATOM     16  C   UNL     1      -1.253  -1.264   1.050  0.00  0.00    +0.241 A 
ATOM     17  N   UNL     1      -1.790  -2.485   1.134  0.00  0.00    -0.202 NA
ATOM     18  H   UNL     1      -3.982  -0.776   2.476  0.00  0.00    +0.190 HD
ATOM     19  C   UNL     1      -2.957  -2.416   1.722  0.00  0.00    +0.217 A 
ATOM     20  N   UNL     1      -3.195  -1.130   2.033  0.00  0.00    -0.264 N 
ATOM     21  N   UNL     1      -2.078  -0.401   1.594  0.00  0.00    -0.136 NA
ATOM     22  C   UNL     1       0.559  -3.345  -0.156  0.00  0.00    +0.061 C 
ENDBRANCH   1  13
BRANCH   7  23
ATOM     23  C   UNL     1       6.601  -5.294  -3.166  0.00  0.00    +0.072 C 
ATOM     24  C   UNL     1       7.830  -4.653  -2.517  0.00  0.00    +0.022 C 
ATOM     25  C   UNL     1       8.759  -5.748  -1.991  0.00  0.00    +0.002 C 
ATOM     26  C   UNL     1       9.203  -6.641  -3.152  0.00  0.00    +0.000 C 
ATOM     27  C   UNL     1       7.975  -7.282  -3.801  0.00  0.00    +0.002 C 
ATOM     28  C   UNL     1       7.046  -6.186  -4.327  0.00  0.00    +0.022 C 
ENDBRANCH   7  23
TORSDOF 2
