REMARK  Name = ZINC57311927
REMARK  10 active torsions:
REMARK  status: ('A' for Active; 'I' for Inactive)
REMARK    1  A    between atoms: C_1  and  C_2
REMARK    2  A    between atoms: C_4  and  C_29
REMARK    3  A    between atoms: C_6  and  C_19
REMARK    4  A    between atoms: N_9  and  C_11
REMARK    5  A    between atoms: C_22  and  O_27
REMARK    6  A    between atoms: C_23  and  O_25
REMARK    7  A    between atoms: O_25  and  C_26
REMARK    8  A    between atoms: O_27  and  C_28
REMARK    9  A    between atoms: N_31  and  C_32
REMARK   10  A    between atoms: C_38  and  C_40
REMARK                            x       y       z     vdW  Elec       q    Type
REMARK                         _______ _______ _______ _____ _____    ______ ____
ROOT
ATOM      1  C   UNL     1      -0.197   1.498   0.022  0.00  0.00    +0.068 C 
ATOM      2  C   UNL     1      -0.146  -0.008   0.012  0.00  0.00    +0.070 A 
ATOM      3  C   UNL     1      -0.162  -0.824  -1.139  0.00  0.00    +0.054 A 
ATOM      4  C   UNL     1      -0.223  -0.557  -2.526  0.00  0.00    +0.051 A 
ATOM      5  C   UNL     1      -0.220  -1.639  -3.399  0.00  0.00    +0.042 A 
ATOM      6  C   UNL     1      -0.156  -2.936  -2.879  0.00  0.00    +0.074 A 
ATOM      7  N   UNL     1      -0.100  -3.155  -1.576  0.00  0.00    -0.228 NA
ATOM      8  C   UNL     1      -0.100  -2.162  -0.699  0.00  0.00    +0.160 A 
ATOM      9  N   UNL     1      -0.050  -2.116   0.670  0.00  0.00    -0.241 N 
ATOM     10  N   UNL     1      -0.075  -0.773   1.063  0.00  0.00    -0.174 NA
ENDROOT
BRANCH   9  11
ATOM     11  C   UNL     1       0.023  -3.273   1.567  0.00  0.00    +0.132 C 
ATOM     12  C   UNL     1       1.303  -3.183   2.413  0.00  0.00    +0.051 C 
ATOM     13  C   UNL     1       1.202  -4.232   3.557  0.00  0.00    +0.168 C 
ATOM     14  S   UNL     1      -0.568  -4.041   4.034  0.00  0.00    -0.029 S 
ATOM     15  O   UNL     1      -1.143  -5.329   4.199  0.00  0.00    -0.174 OA
ATOM     16  O   UNL     1      -0.663  -3.092   5.088  0.00  0.00    -0.174 OA
ATOM     17  C   UNL     1      -1.219  -3.286   2.490  0.00  0.00    +0.192 C 
ENDBRANCH   9  11
BRANCH   6  18
ATOM     18  C   UNL     1      -0.153  -4.090  -3.809  0.00  0.00    +0.004 A 
ATOM     19  C   UNL     1      -0.206  -3.878  -5.186  0.00  0.00    +0.014 A 
ATOM     20  C   UNL     1      -0.202  -4.953  -6.051  0.00  0.00    +0.050 A 
ATOM     21  C   UNL     1      -0.145  -6.246  -5.554  0.00  0.00    +0.162 A 
ATOM     22  C   UNL     1      -0.091  -6.465  -4.179  0.00  0.00    +0.162 A 
ATOM     23  C   UNL     1      -0.090  -5.390  -3.308  0.00  0.00    +0.059 A 
BRANCH  22  24
ATOM     24  O   UNL     1      -0.035  -7.734  -3.694  0.00  0.00    -0.491 OA
ATOM     25  C   UNL     1       0.018  -7.883  -2.273  0.00  0.00    +0.277 C 
ENDBRANCH  22  24
BRANCH  21  26
ATOM     26  O   UNL     1      -0.142  -7.303  -6.409  0.00  0.00    -0.491 OA
ATOM     27  C   UNL     1      -0.199  -7.006  -7.806  0.00  0.00    +0.277 C 
ENDBRANCH  21  26
ENDBRANCH   6  18
BRANCH   4  28
ATOM     28  C   UNL     1      -0.290   0.831  -3.034  0.00  0.00    +0.245 C 
ATOM     29  O   UNL     1       0.354   1.707  -2.491  0.00  0.00    -0.270 OA
ATOM     30  N   UNL     1      -1.065   1.123  -4.096  0.00  0.00    -0.308 N 
ATOM     31  H   UNL     1      -1.579   0.423  -4.529  0.00  0.00    +0.149 HD
BRANCH  30  32
ATOM     32  C   UNL     1      -1.131   2.498  -4.599  0.00  0.00    +0.076 C 
ATOM     33  C   UNL     1      -2.179   3.281  -3.805  0.00  0.00    +0.022 C 
ATOM     34  C   UNL     1      -3.545   2.613  -3.966  0.00  0.00    +0.002 C 
ATOM     35  C   UNL     1      -3.934   2.597  -5.446  0.00  0.00    +0.000 C 
ATOM     36  C   UNL     1      -2.887   1.814  -6.240  0.00  0.00    +0.005 C 
ATOM     37  C   UNL     1      -1.520   2.482  -6.079  0.00  0.00    +0.006 C 
ATOM     38  C   UNL     1      -0.472   1.698  -6.872  0.00  0.00    +0.009 C 
ENDBRANCH  30  32
ENDBRANCH   4  28
TORSDOF 6
