REMARK  Name = ZINC11934878
REMARK  9 active torsions:
REMARK  status: ('A' for Active; 'I' for Inactive)
REMARK    1  A    between atoms: C_1  and  C_2
REMARK    2  A    between atoms: C_5  and  N_8
REMARK    3  A    between atoms: C_10  and  C_20
REMARK    4  A    between atoms: C_11  and  C_13
REMARK    5  A    between atoms: C_17  and  C_19
REMARK    6  A    between atoms: C_20  and  N_53
REMARK    7  A    between atoms: C_21  and  N_53
REMARK    8  A    between atoms: C_22  and  C_23
REMARK    9  A    between atoms: C_22  and  N_53
REMARK                            x       y       z     vdW  Elec       q    Type
REMARK                         _______ _______ _______ _____ _____    ______ ____
ROOT
ATOM      1  N   UNL     1       0.426   7.439   0.403  0.00  0.00    -0.239 N 
ATOM      2  C   UNL     1      -0.694   7.433  -0.367  0.00  0.00    +0.116 A 
ATOM      3  C   UNL     1      -1.022   6.146  -0.611  0.00  0.00    -0.018 A 
ATOM      4  C   UNL     1      -0.070   5.328   0.030  0.00  0.00    +0.094 A 
ATOM      5  N   UNL     1       0.794   6.109   0.642  0.00  0.00    -0.166 NA
ENDROOT
BRANCH   1  10
ATOM      6  C   UNL     1       3.127  12.046   2.323  0.00  0.00    +0.044 C 
ATOM      7  C   UNL     1       2.409  10.823   1.813  0.00  0.00    -0.050 A 
ATOM      8  C   UNL     1       2.888   9.563   2.123  0.00  0.00    +0.005 A 
ATOM      9  C   UNL     1       2.233   8.440   1.657  0.00  0.00    +0.028 A 
ATOM     10  C   UNL     1       1.093   8.577   0.877  0.00  0.00    +0.065 A 
ATOM     11  C   UNL     1       0.618   9.843   0.562  0.00  0.00    +0.028 A 
ATOM     12  C   UNL     1       1.274  10.963   1.036  0.00  0.00    +0.005 A 
ENDBRANCH   1  10
BRANCH   4  13
ATOM     13  C   UNL     1      -0.050   3.844   0.023  0.00  0.00    +0.003 A 
ATOM     14  C   UNL     1      -1.246   3.128   0.030  0.00  0.00    +0.010 A 
ATOM     15  C   UNL     1      -1.221   1.749   0.017  0.00  0.00    +0.001 A 
ATOM     16  C   UNL     1      -0.013   1.076   0.008  0.00  0.00    +0.003 A 
ATOM     17  C   UNL     1       1.177   1.781   0.000  0.00  0.00    -0.050 A 
ATOM     18  C   UNL     1       1.164   3.161   0.008  0.00  0.00    +0.013 A 
ATOM     19  C   UNL     1       2.490   1.041  -0.016  0.00  0.00    +0.044 C 
ENDBRANCH   4  13
BRANCH   3  20
ATOM     20  C   UNL     1      -2.196   5.668  -1.425  0.00  0.00    -0.039 C 
BRANCH  20  22
ATOM     21  C   UNL     1      -3.816   6.426   0.207  0.00  0.00    -0.095 C 
ATOM     22  N   UNL     1      -3.275   5.249  -0.506  0.00  0.00    +0.385 N 
ATOM     23  H   UNL     1      -2.891   4.590   0.181  0.00  0.00    -0.081 HD
BRANCH  22  24
ATOM     24  C   UNL     1      -4.353   4.579  -1.264  0.00  0.00    -0.001 C 
BRANCH  24  25
ATOM     25  C   UNL     1      -5.327   3.970  -0.289  0.00  0.00    +0.115 A 
ATOM     26  N   UNL     1      -6.449   3.252  -0.623  0.00  0.00    -0.295 N 
ATOM     27  H   UNL     1      -6.747   3.051  -1.524  0.00  0.00    +0.172 HD
ATOM     28  C   UNL     1      -7.064   2.873   0.515  0.00  0.00    +0.341 A 
ATOM     29  O   UNL     1      -8.089   2.220   0.598  0.00  0.00    -0.245 OA
ATOM     30  N   UNL     1      -6.335   3.349   1.546  0.00  0.00    -0.227 N 
ATOM     31  H   UNL     1      -6.531   3.236   2.490  0.00  0.00    +0.194 HD
ATOM     32  N   UNL     1      -5.241   4.035   1.001  0.00  0.00    -0.159 NA
ENDBRANCH  24  25
ENDBRANCH  22  24
ENDBRANCH  20  22
ENDBRANCH   3  20
TORSDOF 6
