REMARK  Name = ZINC32089560
REMARK  3 active torsions:
REMARK  status: ('A' for Active; 'I' for Inactive)
REMARK    1  A    between atoms: C_10  and  O_27
REMARK    2  A    between atoms: N_16  and  C_17
REMARK    3  A    between atoms: C_20  and  C_23
REMARK                            x       y       z     vdW  Elec       q    Type
REMARK                         _______ _______ _______ _____ _____    ______ ____
ROOT
ATOM      1  C   UNL     1      -0.017   1.375   0.010  0.00  0.00    +0.003 A 
ATOM      2  C   UNL     1       1.149   2.125   0.003  0.00  0.00    +0.024 A 
ATOM      3  C   UNL     1       2.358   1.428  -0.013  0.00  0.00    +0.039 A 
ATOM      4  C   UNL     1       2.364   0.027  -0.021  0.00  0.00    +0.012 A 
ATOM      5  C   UNL     1       1.200  -0.713  -0.013  0.00  0.00    +0.047 A 
ATOM      6  C   UNL     1       0.002  -0.004   0.002  0.00  0.00    +0.020 A 
ATOM      7 CL   UNL     1       1.228  -2.448  -0.023  0.00  0.00    -0.083 Cl
ATOM      8  C   UNL     1       3.801  -0.383  -0.039  0.00  0.00    +0.113 C 
ATOM      9  C   UNL     1       4.161  -1.206   1.196  0.00  0.00    +0.121 C 
ATOM     10  C   UNL     1       3.774  -2.648   1.028  0.00  0.00    +0.191 C 
ATOM     11  N   UNL     1       3.779  -3.264  -0.116  0.00  0.00    -0.197 NA
ATOM     12  C   UNL     1       4.103  -2.576  -1.248  0.00  0.00    +0.164 A 
ATOM     13  C   UNL     1       4.129  -1.185  -1.267  0.00  0.00    +0.036 A 
ATOM     14  C   UNL     1       4.486  -0.786  -2.541  0.00  0.00    +0.142 A 
ATOM     15  N   UNL     1       4.662  -1.858  -3.280  0.00  0.00    -0.173 NA
ATOM     16  N   UNL     1       4.418  -2.996  -2.494  0.00  0.00    -0.214 N 
ATOM     17  C   UNL     1       4.567   0.921  -0.041  0.00  0.00    +0.233 C 
ATOM     18  O   UNL     1       5.773   1.050  -0.056  0.00  0.00    -0.274 OA
ATOM     19  N   UNL     1       3.653   1.915  -0.023  0.00  0.00    -0.284 N 
ATOM     20  H   UNL     1       3.878   2.858  -0.019  0.00  0.00    +0.155 HD
ENDROOT
BRANCH  16  21
ATOM     21  C   UNL     1       4.489  -4.328  -2.924  0.00  0.00    +0.068 A 
ATOM     22  C   UNL     1       4.937  -5.316  -2.057  0.00  0.00    +0.028 A 
ATOM     23  C   UNL     1       5.005  -6.627  -2.484  0.00  0.00    +0.014 A 
ATOM     24  C   UNL     1       4.628  -6.957  -3.772  0.00  0.00    +0.055 A 
ATOM     25  C   UNL     1       4.181  -5.976  -4.638  0.00  0.00    +0.014 A 
ATOM     26  C   UNL     1       4.105  -4.663  -4.215  0.00  0.00    +0.028 A 
BRANCH  24  27
ATOM     27  C   UNL     1       4.704  -8.389  -4.235  0.00  0.00    +0.417 C 
ATOM     28  F   UNL     1       3.491  -9.032  -3.965  0.00  0.00    -0.166 F 
ATOM     29  F   UNL     1       4.953  -8.422  -5.611  0.00  0.00    -0.166 F 
ATOM     30  F   UNL     1       5.739  -9.044  -3.558  0.00  0.00    -0.166 F 
ENDBRANCH  24  27
ENDBRANCH  16  21
BRANCH  10  31
ATOM     31  O   UNL     1       3.401  -3.340   2.123  0.00  0.00    -0.495 OA
ATOM     32  H   UNL     1       3.164  -4.261   1.945  0.00  0.00    +0.293 HD
ENDBRANCH  10  31
TORSDOF 3
