REMARK  Name = ZINC32589152
REMARK  6 active torsions:
REMARK  status: ('A' for Active; 'I' for Inactive)
REMARK    1  A    between atoms: C_1  and  C_2
REMARK    2  A    between atoms: C_9  and  N_14
REMARK    3  A    between atoms: N_14  and  S_15
REMARK    4  A    between atoms: S_15  and  C_18
REMARK    5  A    between atoms: C_21  and  O_25
REMARK    6  A    between atoms: O_25  and  C_26
REMARK                            x       y       z     vdW  Elec       q    Type
REMARK                         _______ _______ _______ _____ _____    ______ ____
ROOT
ATOM      1  N   UNL     1       1.240  -2.128   0.015  0.00  0.00    -0.216 N 
ATOM      2  H   UNL     1       0.575  -2.720   0.660  0.00  0.00    +0.174 HD
ENDROOT
BRANCH   1  10
ATOM      3  C   UNL     1       1.255   5.603  -0.297  0.00  0.00    +0.062 C 
ATOM      4  C   UNL     1       1.530   4.132  -0.615  0.00  0.00    +0.256 C 
ATOM      5  C   UNL     1       0.481   3.620  -1.569  0.00  0.00    +0.258 C 
ATOM      6  O   UNL     1      -0.057   4.380  -2.347  0.00  0.00    -0.271 OA
ATOM      7  N   UNL     1       0.139   2.312  -1.553  0.00  0.00    -0.279 N 
ATOM      8  C   UNL     1       0.755   1.462  -0.624  0.00  0.00    +0.078 A 
ATOM      9  C   UNL     1       0.691   0.087  -0.773  0.00  0.00    +0.051 A 
ATOM     10  C   UNL     1       1.302  -0.738   0.161  0.00  0.00    +0.050 A 
ATOM     11  C   UNL     1       1.976  -0.183   1.242  0.00  0.00    +0.028 A 
ATOM     12  C   UNL     1       2.040   1.190   1.391  0.00  0.00    +0.049 A 
ATOM     13  C   UNL     1       1.433   2.015   0.461  0.00  0.00    +0.143 A 
ATOM     14  O   UNL     1       1.492   3.369   0.594  0.00  0.00    -0.478 OA
ATOM     15  H   UNL     1      -0.612   1.931  -2.261  0.00  0.00    +0.155 HD
ENDBRANCH   1  10
BRANCH   1  16
ATOM     16  S   UNL     1       2.167  -2.882  -1.132  0.00  0.00    +0.072 S 
ATOM     17  O   UNL     1       1.927  -4.276  -0.996  0.00  0.00    -0.150 OA
ATOM     18  O   UNL     1       1.950  -2.186  -2.352  0.00  0.00    -0.150 OA
BRANCH  16  19
ATOM     19  C   UNL     1       3.853  -2.617  -0.695  0.00  0.00    +0.111 A 
ATOM     20  C   UNL     1       4.510  -1.482  -1.134  0.00  0.00    +0.032 A 
ATOM     21  C   UNL     1       5.831  -1.269  -0.789  0.00  0.00    +0.050 A 
ATOM     22  C   UNL     1       6.503  -2.199  -0.010  0.00  0.00    +0.155 A 
ATOM     23  C   UNL     1       5.843  -3.341   0.426  0.00  0.00    +0.167 A 
ATOM     24  C   UNL     1       4.519  -3.547   0.082  0.00  0.00    +0.071 A 
ATOM     25  F   UNL     1       6.494  -4.250   1.185  0.00  0.00    -0.202 F 
BRANCH  22  26
ATOM     26  O   UNL     1       7.804  -1.994   0.326  0.00  0.00    -0.492 OA
ATOM     27  C   UNL     1       8.418  -0.797  -0.158  0.00  0.00    +0.277 C 
ENDBRANCH  22  26
ENDBRANCH  16  19
ENDBRANCH   1  16
TORSDOF 4
