REMARK  Name = ZINC04340312
REMARK  7 active torsions:
REMARK  status: ('A' for Active; 'I' for Inactive)
REMARK    1  A    between atoms: C_1  and  C_2
REMARK    2  A    between atoms: C_5  and  N_8
REMARK    3  A    between atoms: N_19  and  C1*_20
REMARK    4  A    between atoms: C2*_22  and  O2*_32
REMARK    5  A    between atoms: C3*_24  and  O3*_31
REMARK    6  A    between atoms: C4*_26  and  C5*_29
REMARK    7  A    between atoms: C5*_29  and  O5*_30
REMARK                            x       y       z     vdW  Elec       q    Type
REMARK                         _______ _______ _______ _____ _____    ______ ____
ROOT
ATOM      1  N   UNL     1       3.703  -3.178  -0.051  0.00  0.00    -0.285 N 
ATOM      2  C   UNL     1       2.956  -2.014  -0.047  0.00  0.00    +0.204 A 
ATOM      3  N   UNL     1       1.648  -1.956  -0.057  0.00  0.00    -0.207 NA
ATOM      4  C   UNL     1       1.257  -0.658  -0.050  0.00  0.00    +0.174 A 
ATOM      5  C   UNL     1      -0.000  -0.006  -0.054  0.00  0.00    +0.279 A 
ATOM      6  O   UNL     1      -1.037  -0.647  -0.068  0.00  0.00    -0.265 OA
ATOM      7  N   UNL     1      -0.019   1.345  -0.044  0.00  0.00    -0.312 N 
ATOM      8  H   UNL     1      -0.894   1.830  -0.047  0.00  0.00    +0.170 HD
ATOM      9  C   UNL     1       1.142   2.048  -0.029  0.00  0.00    +0.201 A 
ATOM     10  N   UNL     1       2.307   1.462  -0.025  0.00  0.00    -0.218 NA
ATOM     11  C   UNL     1       2.413   0.127  -0.034  0.00  0.00    +0.171 A 
ATOM     12  N   UNL     1       3.471  -0.747  -0.033  0.00  0.00    -0.267 N 
ATOM     13  H   UNL     1       4.669  -3.134  -0.126  0.00  0.00    +0.155 HD
ENDROOT
BRANCH   1  18
ATOM     14  C   UNL     1       1.117  -8.208   0.376  0.00  0.00    +0.044 C 
ATOM     15  C   UNL     1       1.804  -6.872   0.263  0.00  0.00    -0.050 A 
ATOM     16  C   UNL     1       3.039  -6.781  -0.353  0.00  0.00    +0.005 A 
ATOM     17  C   UNL     1       3.671  -5.558  -0.459  0.00  0.00    +0.023 A 
ATOM     18  C   UNL     1       3.065  -4.418   0.054  0.00  0.00    +0.034 A 
ATOM     19  C   UNL     1       1.827  -4.513   0.677  0.00  0.00    +0.023 A 
ATOM     20  C   UNL     1       1.198  -5.739   0.774  0.00  0.00    +0.005 A 
ENDBRANCH   1  18
BRANCH  12  21
ATOM     21  C1* UNL     1       4.891  -0.389  -0.018  0.00  0.00    +0.255 C 
ATOM     22  C2* UNL     1       5.300   0.132   1.378  0.00  0.00    +0.195 C 
ATOM     23  C3* UNL     1       6.306   1.266   1.073  0.00  0.00    +0.178 C 
ATOM     24  C4* UNL     1       6.387   1.293  -0.469  0.00  0.00    +0.177 C 
ATOM     25  O4* UNL     1       5.141   0.716  -0.914  0.00  0.00    -0.346 OA
BRANCH  23  26
ATOM     26  O3* UNL     1       5.824   2.516   1.570  0.00  0.00    -0.386 OA
ATOM     27  H3* UNL     1       6.390   3.270   1.355  0.00  0.00    +0.210 HD
ENDBRANCH  23  26
BRANCH  22  28
ATOM     28  O2* UNL     1       4.162   0.645   2.073  0.00  0.00    -0.385 OA
ATOM     29  H2* UNL     1       4.362   0.986   2.956  0.00  0.00    +0.210 HD
ENDBRANCH  22  28
BRANCH  24  30
ATOM     30  C5* UNL     1       6.517   2.732  -0.972  0.00  0.00    +0.190 C 
BRANCH  30  31
ATOM     31  O5* UNL     1       6.634   2.731  -2.396  0.00  0.00    -0.392 OA
ATOM     32  H5* UNL     1       6.720   3.612  -2.784  0.00  0.00    +0.210 HD
ENDBRANCH  30  31
ENDBRANCH  24  30
ENDBRANCH  12  21
TORSDOF 6
