REMARK  Name = ZINC52524835
REMARK  8 active torsions:
REMARK  status: ('A' for Active; 'I' for Inactive)
REMARK    1  A    between atoms: C_1  and  C_2
REMARK    2  A    between atoms: C_4  and  C_27
REMARK    3  A    between atoms: N_6  and  C_8
REMARK    4  A    between atoms: C_8  and  C_9
REMARK    5  A    between atoms: C_9  and  N_10
REMARK    6  A    between atoms: N_13  and  C_14
REMARK    7  A    between atoms: C_14  and  C_15
REMARK    8  A    between atoms: C_19  and  N_21
REMARK                            x       y       z     vdW  Elec       q    Type
REMARK                         _______ _______ _______ _____ _____    ______ ____
ROOT
ATOM      1  N   UNL     1       1.198  -2.551   4.899  0.00  0.00    -0.301 N 
ATOM      2  C   UNL     1       0.624  -2.318   6.096  0.00  0.00    +0.300 C 
ATOM      3  O   UNL     1      -0.426  -1.708   6.158  0.00  0.00    -0.253 OA
ATOM      4  N   UNL     1       1.213  -2.762   7.224  0.00  0.00    -0.295 N 
ATOM      5  H   UNL     1       2.035  -3.038   4.849  0.00  0.00    +0.150 HD
ATOM      6  H   UNL     1       2.050  -3.249   7.174  0.00  0.00    +0.151 HD
ENDROOT
BRANCH   1   7
ATOM      7  C   UNL     1       0.557  -2.069   3.673  0.00  0.00    +0.087 C 
BRANCH   7   8
ATOM      8  C   UNL     1       1.408  -2.463   2.464  0.00  0.00    -0.060 C 
BRANCH   8  14
ATOM      9  C   UNL     1      -0.019   1.526   0.010  0.00  0.00    +0.005 C 
ATOM     10  C   UNL     1       0.002  -0.004   0.002  0.00  0.00    -0.031 C 
ATOM     11  C   UNL     1       0.724  -0.499  -1.255  0.00  0.00    +0.003 C 
ATOM     12  C   UNL     1       0.808  -2.027  -1.215  0.00  0.00    -0.031 C 
ATOM     13  C   UNL     1       1.518  -2.460   0.070  0.00  0.00    -0.076 C 
ATOM     14  N   UNL     1       0.765  -1.980   1.235  0.00  0.00    +0.381 N 
ATOM     15  C   UNL     1       0.742  -0.512   1.241  0.00  0.00    -0.076 C 
ATOM     16  C   UNL     1       1.595  -2.527  -2.428  0.00  0.00    +0.005 C 
ATOM     17  H   UNL     1      -0.180  -2.330   1.191  0.00  0.00    -0.082 HD
ENDBRANCH   8  14
ENDBRANCH   7   8
ENDBRANCH   1   7
BRANCH   4  18
ATOM     18  C   UNL     1       0.589  -2.509   8.525  0.00  0.00    +0.141 C 
BRANCH  18  19
ATOM     19  C   UNL     1       1.442  -3.104   9.616  0.00  0.00    -0.029 A 
ATOM     20  C   UNL     1       1.231  -4.409  10.022  0.00  0.00    +0.005 A 
ATOM     21  C   UNL     1       2.012  -4.958  11.022  0.00  0.00    +0.002 A 
ATOM     22  C   UNL     1       3.004  -4.205  11.619  0.00  0.00    +0.023 A 
ATOM     23  C   UNL     1       3.217  -2.895  11.213  0.00  0.00    +0.040 A 
ATOM     24  C   UNL     1       2.436  -2.347  10.204  0.00  0.00    +0.028 A 
BRANCH  23  25
ATOM     25  N   UNL     1       4.222  -2.129  11.815  0.00  0.00    -0.234 N 
ATOM     26  C   UNL     1       5.135  -2.577  12.886  0.00  0.00    +0.158 C 
ATOM     27  C   UNL     1       6.227  -1.481  12.865  0.00  0.00    +0.253 C 
ATOM     28  O   UNL     1       5.521  -0.365  12.288  0.00  0.00    -0.448 OA
ATOM     29  C   UNL     1       4.534  -0.853  11.518  0.00  0.00    +0.407 C 
ATOM     30  O   UNL     1       3.978  -0.210  10.649  0.00  0.00    -0.226 OA
ENDBRANCH  23  25
ENDBRANCH  18  19
ENDBRANCH   4  18
TORSDOF 6
