REMARK  Name = ZINC00780874
REMARK  5 active torsions:
REMARK  status: ('A' for Active; 'I' for Inactive)
REMARK    1  A    between atoms: C_1  and  O_2
REMARK    2  A    between atoms: O_2  and  C_3
REMARK    3  A    between atoms: C_3  and  C_5
REMARK    4  A    between atoms: C_9  and  N_10
REMARK    5  A    between atoms: C_11  and  C_13
REMARK                            x       y       z     vdW  Elec       q    Type
REMARK                         _______ _______ _______ _____ _____    ______ ____
ROOT
ATOM      1  N   UNL     1      -2.316  -0.345   3.836  0.00  0.00    -0.277 N 
ATOM      2  C   UNL     1      -3.279  -0.941   4.566  0.00  0.00    +0.247 C 
ATOM      3  O   UNL     1      -3.679  -0.418   5.585  0.00  0.00    -0.273 OA
ATOM      4  H   UNL     1      -1.996  -0.763   3.021  0.00  0.00    +0.155 HD
ENDROOT
BRANCH   2   5
ATOM      5  C   UNL     1      -3.857  -2.258   4.119  0.00  0.00    +0.244 C 
ATOM      6  C   UNL     1      -4.487  -2.096   2.758  0.00  0.00    +0.247 C 
ATOM      7  O   UNL     1      -3.825  -2.297   1.762  0.00  0.00    -0.273 OA
ATOM      8  N   UNL     1      -5.779  -1.730   2.640  0.00  0.00    -0.282 N 
ATOM      9  C   UNL     1      -6.604  -1.629   3.766  0.00  0.00    +0.055 A 
ATOM     10  C   UNL     1      -7.860  -1.052   3.671  0.00  0.00    +0.025 A 
ATOM     11  C   UNL     1      -8.654  -0.941   4.797  0.00  0.00    +0.002 A 
ATOM     12  C   UNL     1      -8.202  -1.402   6.020  0.00  0.00    +0.002 A 
ATOM     13  C   UNL     1      -6.951  -1.984   6.124  0.00  0.00    +0.025 A 
ATOM     14  C   UNL     1      -6.153  -2.101   4.999  0.00  0.00    +0.050 A 
ATOM     15  N   UNL     1      -4.885  -2.695   5.075  0.00  0.00    -0.324 N 
ATOM     16  H   UNL     1      -6.141  -1.534   1.762  0.00  0.00    +0.155 HD
ATOM     17  H   UNL     1      -4.691  -3.375   5.740  0.00  0.00    +0.147 HD
ENDBRANCH   2   5
BRANCH   1  22
ATOM     18  C   UNL     1      -0.796   1.628   3.636  0.00  0.00    +0.091 A 
ATOM     19  C   UNL     1      -0.418   2.877   4.277  0.00  0.00    -0.021 A 
ATOM     20  C   UNL     1      -1.079   3.159   5.421  0.00  0.00    -0.004 A 
ATOM     21  S   UNL     1      -2.186   1.798   5.653  0.00  0.00    -0.077 S 
ATOM     22  C   UNL     1      -1.784   0.867   4.248  0.00  0.00    +0.086 A 
ATOM     23  C   UNL     1      -0.901   4.365   6.292  0.00  0.00    +0.043 C 
ATOM     24  C   UNL     1       0.410   5.059   5.896  0.00  0.00    +0.005 C 
ATOM     25  C   UNL     1       0.453   5.199   4.371  0.00  0.00    +0.005 C 
ATOM     26  C   UNL     1       0.641   3.825   3.728  0.00  0.00    +0.037 C 
BRANCH  18  27
ATOM     27  C   UNL     1      -0.164   1.192   2.390  0.00  0.00    +0.342 C 
ATOM     28  O   UNL     1       0.839   0.504   2.424  0.00  0.00    -0.245 OA
BRANCH  27  30
ATOM     29  C   UNL     1      -0.013   1.086   0.008  0.00  0.00    +0.280 C 
ATOM     30  O   UNL     1      -0.692   1.554   1.203  0.00  0.00    -0.464 OA
ENDBRANCH  27  30
ENDBRANCH  18  27
ENDBRANCH   1  22
TORSDOF 4
