REMARK  Name = ZINC05042265
REMARK  5 active torsions:
REMARK  status: ('A' for Active; 'I' for Inactive)
REMARK    1  A    between atoms: C_3  and  C_8
REMARK    2  A    between atoms: C_5  and  O_7
REMARK    3  A    between atoms: C_11  and  C_22
REMARK    4  A    between atoms: C_17  and  N_21
REMARK    5  A    between atoms: C_18  and  C_19
REMARK                            x       y       z     vdW  Elec       q    Type
REMARK                         _______ _______ _______ _____ _____    ______ ____
ROOT
ATOM      1  C   UNL     1       3.671   2.190  -0.021  0.00  0.00    +0.102 C 
ATOM      2  C   UNL     1       3.724   3.078  -1.238  0.00  0.00    +0.058 A 
ATOM      3  C   UNL     1       3.911   2.733  -2.570  0.00  0.00    +0.173 A 
ATOM      4  N   UNL     1       3.883   3.834  -3.283  0.00  0.00    -0.167 NA
ATOM      5  N   UNL     1       3.676   4.919  -2.417  0.00  0.00    -0.246 N 
ATOM      6  H   UNL     1       3.611   5.852  -2.674  0.00  0.00    +0.192 HD
ATOM      7  C   UNL     1       3.582   4.435  -1.167  0.00  0.00    +0.223 A 
ATOM      8  O   UNL     1       3.385   5.091   0.003  0.00  0.00    -0.423 OA
ATOM      9  C   UNL     1       3.604   4.409   1.146  0.00  0.00    +0.200 C 
ATOM     10  C   UNL     1       3.747   3.065   1.205  0.00  0.00    +0.098 C 
ENDROOT
BRANCH   1  13
ATOM     11  C   UNL     1      -0.017   1.377   0.010  0.00  0.00    +0.004 A 
ATOM     12  C   UNL     1       1.171   2.086   0.002  0.00  0.00    +0.005 A 
ATOM     13  C   UNL     1       2.379   1.415  -0.013  0.00  0.00    -0.031 A 
ATOM     14  C   UNL     1       2.403   0.033  -0.021  0.00  0.00    +0.050 A 
ATOM     15  C   UNL     1       1.214  -0.680  -0.013  0.00  0.00    +0.117 A 
ATOM     16  C   UNL     1       0.002  -0.004   0.002  0.00  0.00    +0.045 A 
BRANCH  15  17
ATOM     17  O   UNL     1       1.235  -2.039  -0.021  0.00  0.00    -0.507 OA
ATOM     18  H   UNL     1       1.249  -2.437   0.860  0.00  0.00    +0.292 HD
ENDBRANCH  15  17
ENDBRANCH   1  13
BRANCH   3  19
ATOM     19  C   UNL     1       4.111   1.338  -3.103  0.00  0.00    +0.436 C 
ATOM     20  F   UNL     1       2.869   0.776  -3.418  0.00  0.00    -0.164 F 
ATOM     21  F   UNL     1       4.905   1.389  -4.254  0.00  0.00    -0.164 F 
ATOM     22  F   UNL     1       4.745   0.554  -2.133  0.00  0.00    -0.164 F 
ENDBRANCH   3  19
BRANCH   9  23
ATOM     23  N   UNL     1       3.685   5.119   2.318  0.00  0.00    -0.328 N 
ATOM     24  H   UNL     1       3.586   6.084   2.308  0.00  0.00    +0.145 HD
ATOM     25  H   UNL     1       3.841   4.656   3.156  0.00  0.00    +0.145 HD
ENDBRANCH   9  23
BRANCH  10  26
ATOM     26  C   UNL     1       3.980   2.451   2.477  0.00  0.00    +0.101 C 
ATOM     27  N   UNL     1       4.165   1.964   3.486  0.00  0.00    -0.191 NA
ENDBRANCH  10  26
TORSDOF 5
