REMARK  Name = ZINC55597631
REMARK  6 active torsions:
REMARK  status: ('A' for Active; 'I' for Inactive)
REMARK    1  A    between atoms: C_1  and  O_2
REMARK    2  A    between atoms: O_2  and  C_3
REMARK    3  A    between atoms: C_6  and  S_13
REMARK    4  A    between atoms: S_13  and  N_16
REMARK    5  A    between atoms: N_16  and  C_17
REMARK    6  A    between atoms: C_21  and  N_23
REMARK                            x       y       z     vdW  Elec       q    Type
REMARK                         _______ _______ _______ _____ _____    ______ ____
ROOT
ATOM      1  S   UNL     1      -5.158  -2.731   0.019  0.00  0.00    +0.073 S 
ATOM      2  O   UNL     1      -5.169  -3.798   0.956  0.00  0.00    -0.150 OA
ATOM      3  O   UNL     1      -5.987  -1.585   0.159  0.00  0.00    -0.150 OA
ENDROOT
BRANCH   1   7
ATOM      4  C   UNL     1      -0.876  -1.177  -0.173  0.00  0.00    +0.128 A 
ATOM      5  C   UNL     1      -1.934  -0.329  -0.003  0.00  0.00    +0.048 A 
ATOM      6  C   UNL     1      -3.238  -0.813   0.054  0.00  0.00    +0.033 A 
ATOM      7  C   UNL     1      -3.498  -2.145  -0.058  0.00  0.00    +0.116 A 
ATOM      8  C   UNL     1      -2.438  -3.050  -0.234  0.00  0.00    +0.012 A 
ATOM      9  C   UNL     1      -1.109  -2.562  -0.298  0.00  0.00    +0.026 A 
ATOM     10  C   UNL     1      -0.051  -3.466  -0.479  0.00  0.00    +0.012 A 
ATOM     11  C   UNL     1      -0.314  -4.797  -0.596  0.00  0.00    +0.001 A 
ATOM     12  C   UNL     1      -1.621  -5.277  -0.538  0.00  0.00    +0.001 A 
ATOM     13  C   UNL     1      -2.671  -4.431  -0.353  0.00  0.00    +0.010 A 
BRANCH   4  15
ATOM     14  C   UNL     1       0.547   0.725  -0.092  0.00  0.00    +0.277 C 
ATOM     15  O   UNL     1       0.390  -0.690  -0.227  0.00  0.00    -0.495 OA
ENDBRANCH   4  15
ENDBRANCH   1   7
BRANCH   1  16
ATOM     16  N   UNL     1      -5.512  -3.393  -1.457  0.00  0.00    -0.216 N 
ATOM     17  H   UNL     1      -5.741  -4.333  -1.525  0.00  0.00    +0.174 HD
BRANCH  16  18
ATOM     18  C   UNL     1      -5.481  -2.598  -2.605  0.00  0.00    +0.050 A 
ATOM     19  C   UNL     1      -6.075  -1.341  -2.597  0.00  0.00    +0.024 A 
ATOM     20  C   UNL     1      -6.044  -0.554  -3.732  0.00  0.00    +0.004 A 
ATOM     21  C   UNL     1      -5.424  -1.013  -4.878  0.00  0.00    +0.024 A 
ATOM     22  C   UNL     1      -4.830  -2.268  -4.893  0.00  0.00    +0.040 A 
ATOM     23  C   UNL     1      -4.853  -3.059  -3.753  0.00  0.00    +0.048 A 
BRANCH  22  24
ATOM     24  N   UNL     1      -4.202  -2.732  -6.055  0.00  0.00    -0.254 N 
ATOM     25  C   UNL     1      -4.199  -2.044  -7.354  0.00  0.00    +0.134 C 
ATOM     26  C   UNL     1      -3.378  -2.978  -8.264  0.00  0.00    +0.125 C 
ATOM     27  N   UNL     1      -3.006  -4.093  -7.381  0.00  0.00    -0.297 N 
ATOM     28  C   UNL     1      -3.505  -3.871  -6.158  0.00  0.00    +0.307 C 
ATOM     29  O   UNL     1      -3.344  -4.636  -5.227  0.00  0.00    -0.252 OA
ATOM     30  H   UNL     1      -2.480  -4.865  -7.642  0.00  0.00    +0.150 HD
ENDBRANCH  22  24
ENDBRANCH  16  18
ENDBRANCH   1  16
TORSDOF 5
