REMARK  Name = ZINC36115690
REMARK  9 active torsions:
REMARK  status: ('A' for Active; 'I' for Inactive)
REMARK    1  A    between atoms: C_1  and  C_2
REMARK    2  A    between atoms: C_2  and  C_3
REMARK    3  A    between atoms: C_2  and  N_4
REMARK    4  A    between atoms: N_4  and  C_5
REMARK    5  A    between atoms: C_5  and  C_6
REMARK    6  A    between atoms: C_16  and  C_18
REMARK    7  A    between atoms: C_18  and  O_19
REMARK    8  A    between atoms: O_19  and  C_20
REMARK    9  A    between atoms: C_27  and  C_29
REMARK                            x       y       z     vdW  Elec       q    Type
REMARK                         _______ _______ _______ _____ _____    ______ ____
ROOT
ATOM      1  C   UNL     1      -2.413  -1.672   2.063  0.00  0.00    +0.234 C 
ATOM      2  O   UNL     1      -1.503  -1.502   2.845  0.00  0.00    -0.274 OA
ATOM      3  N   UNL     1      -3.360  -2.596   2.321  0.00  0.00    -0.289 N 
ATOM      4  C   UNL     1      -4.466  -2.815   1.377  0.00  0.00    +0.114 C 
ATOM      5  C   UNL     1      -5.778  -2.416   2.069  0.00  0.00    +0.061 C 
ATOM      6  C   UNL     1      -5.763  -2.946   3.466  0.00  0.00    -0.004 A 
ATOM      7  C   UNL     1      -4.693  -3.391   4.180  0.00  0.00    -0.014 A 
ATOM      8  C   UNL     1      -4.947  -3.830   5.479  0.00  0.00    +0.013 A 
ATOM      9  C   UNL     1      -6.208  -3.805   5.967  0.00  0.00    +0.046 A 
ATOM     10  S   UNL     1      -7.125  -3.142   4.585  0.00  0.00    -0.101 S 
ATOM     11  C   UNL     1      -3.298  -3.402   3.548  0.00  0.00    +0.144 C 
ENDROOT
BRANCH   1  12
ATOM     12  C   UNL     1      -2.487  -0.851   0.801  0.00  0.00    +0.204 C 
BRANCH  12  13
ATOM     13  N   UNL     1      -1.352   0.074   0.754  0.00  0.00    -0.286 N 
ATOM     14  C   UNL     1      -1.462   1.305   1.293  0.00  0.00    +0.247 C 
ATOM     15  O   UNL     1      -2.518   1.903   1.231  0.00  0.00    -0.270 OA
BRANCH  14  16
ATOM     16  C   UNL     1      -0.299   1.926   1.961  0.00  0.00    +0.040 A 
ATOM     17  C   UNL     1       0.997   1.607   1.552  0.00  0.00    +0.013 A 
ATOM     18  C   UNL     1       2.079   2.190   2.178  0.00  0.00    +0.004 A 
ATOM     19  C   UNL     1       1.884   3.090   3.210  0.00  0.00    +0.038 A 
ATOM     20  C   UNL     1       0.601   3.411   3.623  0.00  0.00    +0.124 A 
ATOM     21  C   UNL     1      -0.491   2.838   2.999  0.00  0.00    +0.051 A 
ATOM     22  F   UNL     1       0.417   4.290   4.632  0.00  0.00    -0.205 F 
ENDBRANCH  14  16
BRANCH  13  24
ATOM     23  C   UNL     1       0.464   0.823  -0.704  0.00  0.00    +0.028 C 
ATOM     24  C   UNL     1      -0.097  -0.338   0.121  0.00  0.00    +0.071 C 
ATOM     25  C   UNL     1       0.914  -0.732   1.200  0.00  0.00    +0.028 C 
ENDBRANCH  13  24
ENDBRANCH  12  13
ENDBRANCH   1  12
BRANCH  11  26
ATOM     26  C   UNL     1      -2.892  -4.837   3.205  0.00  0.00    +0.256 C 
BRANCH  26  27
ATOM     27  O   UNL     1      -3.913  -5.444   2.409  0.00  0.00    -0.490 OA
BRANCH  27  28
ATOM     28  C   UNL     1      -3.707  -6.728   2.015  0.00  0.00    +0.121 A 
ATOM     29  C   UNL     1      -2.549  -7.393   2.393  0.00  0.00    +0.047 A 
ATOM     30  C   UNL     1      -2.341  -8.698   1.992  0.00  0.00    +0.023 A 
ATOM     31  C   UNL     1      -3.287  -9.343   1.214  0.00  0.00    +0.041 A 
ATOM     32  C   UNL     1      -4.442  -8.682   0.837  0.00  0.00    +0.023 A 
ATOM     33  C   UNL     1      -4.656  -7.378   1.241  0.00  0.00    +0.047 A 
ATOM     34 CL   UNL     1      -3.023 -10.984   0.712  0.00  0.00    -0.084 Cl
ENDBRANCH  27  28
ENDBRANCH  26  27
ENDBRANCH  11  26
TORSDOF 7
