REMARK  Name = ZINC02878710
REMARK  8 active torsions:
REMARK  status: ('A' for Active; 'I' for Inactive)
REMARK    1  A    between atoms: C_1  and  C_2
REMARK    2  A    between atoms: C_2  and  C_3
REMARK    3  A    between atoms: C_3  and  O_4
REMARK    4  A    between atoms: O_4  and  C_5
REMARK    5  A    between atoms: C_8  and  N_11
REMARK    6  A    between atoms: C_15  and  N_19
REMARK    7  A    between atoms: N_19  and  C_20
REMARK    8  A    between atoms: C_23  and  O_27
REMARK                            x       y       z     vdW  Elec       q    Type
REMARK                         _______ _______ _______ _____ _____    ______ ____
ROOT
ATOM      1  N   UNL     1      -6.308  -4.540   0.037  0.00  0.00    -0.209 N 
ATOM      2  C   UNL     1      -7.471  -3.886   0.139  0.00  0.00    +0.228 C 
ATOM      3  O   UNL     1      -7.594  -2.683   0.234  0.00  0.00    -0.275 OA
ATOM      4  C   UNL     1      -8.608  -4.884   0.117  0.00  0.00    +0.128 C 
ATOM      5  C   UNL     1      -7.893  -6.244  -0.017  0.00  0.00    +0.166 C 
ATOM      6  C   UNL     1      -6.427  -5.870  -0.062  0.00  0.00    +0.247 C 
ATOM      7  O   UNL     1      -5.506  -6.652  -0.169  0.00  0.00    -0.273 OA
ENDROOT
BRANCH   1  11
ATOM      8  C   UNL     1      -2.617  -2.595   0.012  0.00  0.00    +0.121 A 
ATOM      9  C   UNL     1      -3.068  -3.241  -1.130  0.00  0.00    +0.047 A 
ATOM     10  C   UNL     1      -4.290  -3.885  -1.122  0.00  0.00    +0.027 A 
ATOM     11  C   UNL     1      -5.066  -3.886   0.029  0.00  0.00    +0.044 A 
ATOM     12  C   UNL     1      -4.614  -3.240   1.171  0.00  0.00    +0.027 A 
ATOM     13  C   UNL     1      -3.390  -2.601   1.164  0.00  0.00    +0.047 A 
BRANCH   8  14
ATOM     14  O   UNL     1      -1.414  -1.962   0.004  0.00  0.00    -0.492 OA
BRANCH  14  15
ATOM     15  C   UNL     1      -0.671  -1.996  -1.216  0.00  0.00    +0.229 C 
BRANCH  15  17
ATOM     16  C   UNL     1       1.440  -1.273  -2.340  0.00  0.00    +0.007 C 
ATOM     17  C   UNL     1       0.644  -1.236  -1.034  0.00  0.00    +0.038 C 
ENDBRANCH  15  17
ENDBRANCH  14  15
ENDBRANCH   8  14
ENDBRANCH   1  11
BRANCH   5  18
ATOM     18  N   UNL     1      -8.290  -6.916  -1.256  0.00  0.00    -0.332 N 
ATOM     19  H   UNL     1      -8.610  -6.395  -2.010  0.00  0.00    +0.147 HD
BRANCH  18  20
ATOM     20  C   UNL     1      -8.210  -8.309  -1.353  0.00  0.00    +0.031 A 
ATOM     21  C   UNL     1      -7.759  -9.056  -0.273  0.00  0.00    +0.046 A 
ATOM     22  C   UNL     1      -7.680 -10.433  -0.369  0.00  0.00    +0.085 A 
ATOM     23  C   UNL     1      -8.051 -11.069  -1.546  0.00  0.00    +0.153 A 
ATOM     24  C   UNL     1      -8.502 -10.323  -2.626  0.00  0.00    +0.085 A 
ATOM     25  C   UNL     1      -8.588  -8.947  -2.528  0.00  0.00    +0.046 A 
ATOM     26 CL   UNL     1      -8.965 -11.119  -4.097  0.00  0.00    -0.080 Cl
ATOM     27 CL   UNL     1      -7.116 -11.366   0.981  0.00  0.00    -0.080 Cl
BRANCH  23  28
ATOM     28  O   UNL     1      -7.973 -12.423  -1.640  0.00  0.00    -0.504 OA
ATOM     29  H   UNL     1      -8.779 -12.884  -1.369  0.00  0.00    +0.292 HD
ENDBRANCH  23  28
ENDBRANCH  18  20
ENDBRANCH   5  18
TORSDOF 7
