REMARK  Name = ZINC67088883
REMARK  4 active torsions:
REMARK  status: ('A' for Active; 'I' for Inactive)
REMARK    1  A    between atoms: C_1  and  C_2
REMARK    2  A    between atoms: N_11  and  C_15
REMARK    3  A    between atoms: C_15  and  C_16
REMARK    4  A    between atoms: N_18  and  C_19
REMARK                            x       y       z     vdW  Elec       q    Type
REMARK                         _______ _______ _______ _____ _____    ______ ____
ROOT
ATOM      1  C   UNL     1      -0.028   1.529   0.024  0.00  0.00    +0.010 C 
ATOM      2  C   UNL     1      -0.014  -0.001   0.026  0.00  0.00    +0.018 C 
ATOM      3  C   UNL     1      -1.453  -0.524   0.040  0.00  0.00    +0.006 C 
ATOM      4  C   UNL     1      -1.438  -2.054   0.063  0.00  0.00    +0.000 C 
ATOM      5  C   UNL     1      -0.716  -2.541   1.321  0.00  0.00    +0.003 C 
ATOM      6  C   UNL     1       0.726  -2.025   1.312  0.00  0.00    +0.035 C 
ATOM      7  C   UNL     1       0.721  -0.501   1.265  0.00  0.00    +0.115 C 
ATOM      8  C   UNL     1       2.135   0.032   1.291  0.00  0.00    +0.247 C 
ATOM      9  O   UNL     1       3.009  -0.166   0.475  0.00  0.00    -0.273 OA
ATOM     10  N   UNL     1       2.219   0.776   2.413  0.00  0.00    -0.215 N 
ATOM     11  C   UNL     1       1.063   0.783   3.088  0.00  0.00    +0.310 C 
ATOM     12  O   UNL     1       0.893   1.383   4.131  0.00  0.00    -0.252 OA
ATOM     13  N   UNL     1       0.110   0.049   2.482  0.00  0.00    -0.285 N 
ATOM     14  H   UNL     1      -0.800  -0.088   2.789  0.00  0.00    +0.151 HD
ENDROOT
BRANCH  10  15
ATOM     15  C   UNL     1       3.426   1.488   2.841  0.00  0.00    +0.214 C 
BRANCH  15  16
ATOM     16  C   UNL     1       3.421   2.879   2.259  0.00  0.00    +0.235 C 
ATOM     17  O   UNL     1       2.501   3.239   1.556  0.00  0.00    -0.274 OA
ATOM     18  N   UNL     1       4.441   3.721   2.519  0.00  0.00    -0.282 N 
ATOM     19  H   UNL     1       5.144   3.457   3.132  0.00  0.00    +0.155 HD
BRANCH  18  20
ATOM     20  C   UNL     1       4.484   4.979   1.904  0.00  0.00    +0.072 A 
ATOM     21  C   UNL     1       3.306   5.669   1.649  0.00  0.00    +0.026 A 
ATOM     22  C   UNL     1       3.350   6.909   1.042  0.00  0.00    +0.005 A 
ATOM     23  C   UNL     1       4.565   7.466   0.688  0.00  0.00    +0.041 A 
ATOM     24  C   UNL     1       5.743   6.783   0.941  0.00  0.00    +0.160 A 
ATOM     25  C   UNL     1       5.705   5.541   1.554  0.00  0.00    +0.179 A 
ATOM     26  F   UNL     1       6.854   4.876   1.807  0.00  0.00    -0.201 F 
ATOM     27  F   UNL     1       6.929   7.329   0.594  0.00  0.00    -0.202 F 
ENDBRANCH  18  20
ENDBRANCH  15  16
ENDBRANCH  10  15
TORSDOF 3
