REMARK  Name = ZINC15056527
REMARK  5 active torsions:
REMARK  status: ('A' for Active; 'I' for Inactive)
REMARK    1  A    between atoms: C_6  and  N_11
REMARK    2  A    between atoms: C_12  and  C_14
REMARK    3  A    between atoms: C_14  and  O_15
REMARK    4  A    between atoms: O_15  and  C_16
REMARK    5  A    between atoms: C_21  and  C_22
REMARK                            x       y       z     vdW  Elec       q    Type
REMARK                         _______ _______ _______ _____ _____    ______ ____
ROOT
ATOM      1  O   UNL     1       8.352   3.246   0.536  0.00  0.00    -0.482 OA
ENDROOT
BRANCH   1   2
ATOM      2  C   UNL     1       9.608   3.757   0.592  0.00  0.00    +0.128 A 
ATOM      3  C   UNL     1       9.799   5.125   0.705  0.00  0.00    +0.048 A 
ATOM      4  C   UNL     1      11.078   5.644   0.761  0.00  0.00    +0.023 A 
ATOM      5  C   UNL     1      12.180   4.805   0.706  0.00  0.00    +0.042 A 
ATOM      6  C   UNL     1      12.011   3.441   0.594  0.00  0.00    +0.031 A 
ATOM      7  C   UNL     1      10.720   2.901   0.541  0.00  0.00    +0.019 A 
ATOM      8 CL   UNL     1      13.780   5.474   0.778  0.00  0.00    -0.084 Cl
BRANCH   7   9
ATOM      9  C   UNL     1      10.531   1.450   0.428  0.00  0.00    +0.032 C 
ATOM     10  C   UNL     1      11.553   0.663   0.005  0.00  0.00    +0.080 C 
ATOM     11  C   UNL     1      11.666  -0.809  -0.006  0.00  0.00    +0.258 C 
ATOM     12  O   UNL     1      10.767  -1.522   0.401  0.00  0.00    -0.269 OA
ATOM     13  N   UNL     1      12.791  -1.314  -0.482  0.00  0.00    -0.243 N 
ATOM     14  C   UNL     1      13.784  -0.520  -0.934  0.00  0.00    +0.283 C 
ATOM     15  O   UNL     1      14.862  -0.846  -1.394  0.00  0.00    -0.262 OA
ATOM     16  S   UNL     1      13.130   1.125  -0.700  0.00  0.00    -0.026 S 
ATOM     17  H   UNL     1      12.906  -2.276  -0.507  0.00  0.00    +0.159 HD
ENDBRANCH   7   9
ENDBRANCH   1   2
BRANCH   1  18
ATOM     18  C   UNL     1       7.269   4.177   0.599  0.00  0.00    +0.324 C 
BRANCH  18  20
ATOM     19  N   UNL     1       4.797   4.110   0.564  0.00  0.00    -0.283 N 
ATOM     20  C   UNL     1       5.961   3.432   0.523  0.00  0.00    +0.255 C 
ATOM     21  O   UNL     1       5.957   2.223   0.426  0.00  0.00    -0.272 OA
ATOM     22  H   UNL     1       4.800   5.080   0.572  0.00  0.00    +0.155 HD
BRANCH  19  28
ATOM     23  C   UNL     1      -1.065   1.787   1.403  0.00  0.00    +0.001 A 
ATOM     24  C   UNL     1      -0.935   2.965   2.136  0.00  0.00    +0.001 A 
ATOM     25  C   UNL     1       0.230   3.670   2.129  0.00  0.00    +0.008 A 
ATOM     26  C   UNL     1       1.321   3.202   1.376  0.00  0.00    -0.016 A 
ATOM     27  C   UNL     1       2.537   3.904   1.345  0.00  0.00    +0.031 A 
ATOM     28  C   UNL     1       3.584   3.414   0.597  0.00  0.00    +0.034 A 
ATOM     29  C   UNL     1       3.446   2.227  -0.133  0.00  0.00    +0.024 A 
ATOM     30  C   UNL     1       2.280   1.530  -0.120  0.00  0.00    +0.010 A 
ATOM     31  C   UNL     1       1.191   2.001   0.634  0.00  0.00    -0.018 A 
ATOM     32  C   UNL     1      -0.028   1.302   0.667  0.00  0.00    +0.008 A 
ENDBRANCH  19  28
ENDBRANCH  18  20
ENDBRANCH   1  18
TORSDOF 5
