REMARK  Name = ZINC62255571
REMARK  8 active torsions:
REMARK  status: ('A' for Active; 'I' for Inactive)
REMARK    1  A    between atoms: C_1  and  C_2
REMARK    2  A    between atoms: C_5  and  C_7
REMARK    3  A    between atoms: C_8  and  C_13
REMARK    4  A    between atoms: C_13  and  N_14
REMARK    5  A    between atoms: N_14  and  C_15
REMARK    6  A    between atoms: C_15  and  C_16
REMARK    7  A    between atoms: C_20  and  C_22
REMARK    8  A    between atoms: C_22  and  N_23
REMARK                            x       y       z     vdW  Elec       q    Type
REMARK                         _______ _______ _______ _____ _____    ______ ____
ROOT
ATOM      1  C   UNL     1       4.782  -0.135  -1.389  0.00  0.00    -0.046 C 
ENDROOT
BRANCH   1   2
ATOM      2  C   UNL     1       5.425   0.869  -0.467  0.00  0.00    -0.064 A 
ATOM      3  C   UNL     1       4.693   1.944   0.003  0.00  0.00    +0.002 A 
ATOM      4  C   UNL     1       5.282   2.865   0.849  0.00  0.00    +0.001 A 
ATOM      5  C   UNL     1       6.603   2.711   1.225  0.00  0.00    +0.005 A 
ATOM      6  C   UNL     1       7.335   1.636   0.756  0.00  0.00    -0.028 A 
ATOM      7  C   UNL     1       6.744   0.713  -0.086  0.00  0.00    +0.007 A 
BRANCH   6   8
ATOM      8  C   UNL     1       8.775   1.469   1.166  0.00  0.00    +0.158 C 
BRANCH   8   9
ATOM      9  N   UNL     1       8.845   0.667   2.391  0.00  0.00    -0.326 N 
ATOM     10  C   UNL     1       8.907   1.144   3.664  0.00  0.00    +0.200 A 
ATOM     11  N   UNL     1       8.957   0.156   4.509  0.00  0.00    -0.236 NA
ATOM     12  C   UNL     1       8.931  -1.023   3.835  0.00  0.00    +0.089 A 
ATOM     13  C   UNL     1       8.853  -0.711   2.467  0.00  0.00    +0.069 A 
ATOM     14  C   UNL     1       8.805  -1.732   1.528  0.00  0.00    +0.028 A 
ATOM     15  C   UNL     1       8.832  -3.046   1.945  0.00  0.00    +0.002 A 
ATOM     16  C   UNL     1       8.906  -3.353   3.296  0.00  0.00    +0.002 A 
ATOM     17  C   UNL     1       8.960  -2.362   4.234  0.00  0.00    +0.030 A 
ENDBRANCH   8   9
ENDBRANCH   6   8
ENDBRANCH   1   2
BRANCH   1  18
ATOM     18  N   UNL     1       4.170  -1.207  -0.595  0.00  0.00    +0.384 N 
ATOM     19  H   UNL     1       3.469  -0.815   0.016  0.00  0.00    -0.085 HD
ATOM     20  H   UNL     1       4.880  -1.664  -0.042  0.00  0.00    -0.085 HD
BRANCH  18  21
ATOM     21  C   UNL     1       3.543  -2.186  -1.494  0.00  0.00    -0.042 C 
BRANCH  21  23
ATOM     22  C   UNL     1       1.667  -3.226  -0.023  0.00  0.00    +0.129 A 
ATOM     23  C   UNL     1       2.915  -3.287  -0.678  0.00  0.00    -0.016 A 
ATOM     24  C   UNL     1       3.445  -4.506  -0.446  0.00  0.00    +0.107 A 
ATOM     25  N   UNL     1       2.578  -5.199   0.324  0.00  0.00    -0.284 N 
ATOM     26  H   UNL     1       2.702  -6.107   0.644  0.00  0.00    +0.188 HD
ATOM     27  N   UNL     1       1.472  -4.380   0.583  0.00  0.00    -0.171 NA
BRANCH  22  32
ATOM     28  C   UNL     1      -0.018   1.503   0.010  0.00  0.00    +0.086 C 
ATOM     29  C   UNL     1       0.002  -0.004   0.002  0.00  0.00    +0.103 A 
ATOM     30  C   UNL     1      -1.081  -0.804   0.003  0.00  0.00    +0.045 A 
ATOM     31  C   UNL     1      -0.613  -2.134  -0.007  0.00  0.00    +0.052 A 
ATOM     32  C   UNL     1       0.745  -2.070  -0.013  0.00  0.00    +0.155 A 
ATOM     33  O   UNL     1       1.104  -0.772  -0.013  0.00  0.00    -0.458 OA
ENDBRANCH  22  32
ENDBRANCH  21  23
ENDBRANCH  18  21
ENDBRANCH   1  18
TORSDOF 7
