REMARK  Name = ZINC04288282
REMARK  8 active torsions:
REMARK  status: ('A' for Active; 'I' for Inactive)
REMARK    1  A    between atoms: C_2  and  C_3
REMARK    2  A    between atoms: C_3  and  N_4
REMARK    3  A    between atoms: C_8  and  C_10
REMARK    4  A    between atoms: C_10  and  O_11
REMARK    5  A    between atoms: O_11  and  C_12
REMARK    6  A    between atoms: C_12  and  C_14
REMARK    7  A    between atoms: C_14  and  N_15
REMARK    8  A    between atoms: C_16  and  C_18
REMARK                            x       y       z     vdW  Elec       q    Type
REMARK                         _______ _______ _______ _____ _____    ______ ____
ROOT
ATOM      1  C   UNL     1       3.107  10.133   0.029  0.00  0.00    +0.325 C 
ATOM      2  O   UNL     1       1.901  10.204   0.041  0.00  0.00    -0.249 OA
ENDROOT
BRANCH   1   3
ATOM      3  O   UNL     1       3.845  11.254   0.028  0.00  0.00    -0.454 OA
BRANCH   3   4
ATOM      4  C   UNL     1       3.127  12.516   0.042  0.00  0.00    +0.328 C 
BRANCH   4   9
ATOM      5  N   UNL     1       4.114  17.221   0.059  0.00  0.00    -0.296 N 
ATOM      6  C   UNL     1       4.555  15.947   0.048  0.00  0.00    +0.306 C 
ATOM      7  O   UNL     1       5.749  15.718   0.035  0.00  0.00    -0.252 OA
ATOM      8  N   UNL     1       3.673  14.929   0.050  0.00  0.00    -0.237 N 
ATOM      9  C   UNL     1       4.114  13.655   0.039  0.00  0.00    +0.258 C 
ATOM     10  O   UNL     1       5.304  13.426   0.026  0.00  0.00    -0.272 OA
ATOM     11  H   UNL     1       3.162  17.404   0.069  0.00  0.00    +0.151 HD
ATOM     12  H   UNL     1       2.720  15.112   0.061  0.00  0.00    +0.159 HD
BRANCH   5  13
ATOM     13  C   UNL     1       5.073  18.328   0.056  0.00  0.00    +0.132 C 
BRANCH  13  15
ATOM     14  C   UNL     1       4.579  20.524   1.003  0.00  0.00    +0.005 C 
ATOM     15  C   UNL     1       4.328  19.638   0.071  0.00  0.00    -0.016 C 
ENDBRANCH  13  15
ENDBRANCH   5  13
ENDBRANCH   4   9
ENDBRANCH   3   4
ENDBRANCH   1   3
BRANCH   1  16
ATOM     16  C   UNL     1       3.782   8.786   0.015  0.00  0.00    +0.225 C 
BRANCH  16  17
ATOM     17  N   UNL     1       2.767   7.730   0.019  0.00  0.00    -0.300 N 
ATOM     18  C   UNL     1       3.140   6.435   0.008  0.00  0.00    +0.253 C 
ATOM     19  O   UNL     1       4.321   6.143  -0.006  0.00  0.00    -0.270 OA
ATOM     20  H   UNL     1       1.825   7.963   0.029  0.00  0.00    +0.150 HD
BRANCH  18  21
ATOM     21  C   UNL     1       2.122   5.377   0.011  0.00  0.00    +0.093 A 
ATOM     22  C   UNL     1       2.301   4.028   0.002  0.00  0.00    +0.068 A 
ATOM     23  C   UNL     1       1.184   3.173   0.008  0.00  0.00    +0.008 A 
ATOM     24  C   UNL     1       1.164   1.754   0.000  0.00  0.00    +0.010 A 
ATOM     25  C   UNL     1      -0.013   1.076   0.008  0.00  0.00    +0.001 A 
ATOM     26  C   UNL     1      -1.235   1.737   0.017  0.00  0.00    +0.001 A 
ATOM     27  C   UNL     1      -1.261   3.117   0.030  0.00  0.00    +0.016 A 
ATOM     28  C   UNL     1      -0.075   3.819   0.023  0.00  0.00    +0.021 A 
ATOM     29  S   UNL     1       0.346   5.544   0.029  0.00  0.00    -0.082 S 
ATOM     30 CL   UNL     1       3.905   3.364  -0.017  0.00  0.00    -0.082 Cl
ENDBRANCH  18  21
ENDBRANCH  16  17
ENDBRANCH   1  16
TORSDOF 8
