REMARK  Name = ZINC39446283
REMARK  6 active torsions:
REMARK  status: ('A' for Active; 'I' for Inactive)
REMARK    1  A    between atoms: C_1  and  C_2
REMARK    2  A    between atoms: C_3  and  C_14
REMARK    3  A    between atoms: C_4  and  C_8
REMARK    4  A    between atoms: C_14  and  O_16
REMARK    5  A    between atoms: O_16  and  C_17
REMARK    6  A    between atoms: C_17  and  C_18
REMARK                            x       y       z     vdW  Elec       q    Type
REMARK                         _______ _______ _______ _____ _____    ______ ____
ROOT
ATOM      1  C   UNL     1      -2.178  -0.193  -0.438  0.00  0.00    +0.341 C 
ATOM      2  O   UNL     1      -2.255   1.007  -0.622  0.00  0.00    -0.245 OA
ENDROOT
BRANCH   1   5
ATOM      3  C   UNL     1       0.160   1.440   0.585  0.00  0.00    +0.089 C 
ATOM      4  C   UNL     1       0.055  -0.064   0.594  0.00  0.00    +0.134 C 
ATOM      5  C   UNL     1      -1.003  -0.749   0.124  0.00  0.00    +0.100 C 
ATOM      6  C   UNL     1      -0.707  -2.225   0.307  0.00  0.00    +0.163 C 
ATOM      7  N   UNL     1       0.760  -2.235   0.543  0.00  0.00    -0.144 NA
ATOM      8  O   UNL     1       1.012  -0.883   1.069  0.00  0.00    -0.410 OA
ATOM      9  H   UNL     1       1.264  -2.385  -0.318  0.00  0.00    +0.168 HD
BRANCH   6  10
ATOM     10  C   UNL     1      -1.057  -3.000  -0.937  0.00  0.00    -0.023 A 
ATOM     11  C   UNL     1      -0.271  -2.883  -2.068  0.00  0.00    +0.005 A 
ATOM     12  C   UNL     1      -0.592  -3.593  -3.210  0.00  0.00    +0.000 A 
ATOM     13  C   UNL     1      -1.700  -4.420  -3.220  0.00  0.00    +0.000 A 
ATOM     14  C   UNL     1      -2.486  -4.538  -2.089  0.00  0.00    +0.000 A 
ATOM     15  C   UNL     1      -2.162  -3.831  -0.946  0.00  0.00    +0.005 A 
ENDBRANCH   6  10
ENDBRANCH   1   5
BRANCH   1  16
ATOM     16  O   UNL     1      -3.211  -0.995  -0.768  0.00  0.00    -0.453 OA
BRANCH  16  17
ATOM     17  C   UNL     1      -4.396  -0.359  -1.254  0.00  0.00    +0.306 C 
BRANCH  17  18
ATOM     18  C   UNL     1      -5.453  -1.400  -1.516  0.00  0.00    +0.148 A 
ATOM     19  N   UNL     1      -6.636  -0.999  -2.051  0.00  0.00    -0.307 N 
ATOM     20  H   UNL     1      -6.788  -0.064  -2.257  0.00  0.00    +0.170 HD
ATOM     21  C   UNL     1      -7.600  -1.919  -2.296  0.00  0.00    +0.266 A 
ATOM     22  O   UNL     1      -8.672  -1.591  -2.776  0.00  0.00    -0.267 OA
ATOM     23  C   UNL     1      -7.332  -3.252  -1.983  0.00  0.00    +0.102 A 
ATOM     24  C   UNL     1      -6.099  -3.641  -1.430  0.00  0.00    +0.085 A 
ATOM     25  N   UNL     1      -5.188  -2.634  -1.226  0.00  0.00    -0.230 NA
ATOM     26  C   UNL     1      -5.962  -5.010  -1.164  0.00  0.00    +0.036 A 
ATOM     27  C   UNL     1      -6.974  -5.860  -1.439  0.00  0.00    +0.048 A 
ATOM     28  S   UNL     1      -8.227  -4.778  -2.106  0.00  0.00    -0.090 S 
ENDBRANCH  17  18
ENDBRANCH  16  17
ENDBRANCH   1  16
TORSDOF 5
