REMARK  Name = ZINC41817133
REMARK  3 active torsions:
REMARK  status: ('A' for Active; 'I' for Inactive)
REMARK    1  A    between atoms: C_6  and  O_7
REMARK    2  A    between atoms: O_7  and  C_8
REMARK    3  A    between atoms: C_8  and  C_9
REMARK                            x       y       z     vdW  Elec       q    Type
REMARK                         _______ _______ _______ _____ _____    ______ ____
ROOT
ATOM      1  C   UNL     1      -2.375   0.063   0.026  0.00  0.00    +0.324 C 
ENDROOT
BRANCH   1   2
ATOM      2  C   UNL     1      -3.558  -0.871   0.032  0.00  0.00    +0.256 C 
ATOM      3  O   UNL     1      -3.383  -2.071   0.024  0.00  0.00    -0.272 OA
ATOM      4  N   UNL     1      -4.810  -0.373   0.047  0.00  0.00    -0.262 N 
ATOM      5  C   UNL     1      -5.901  -1.234   0.053  0.00  0.00    +0.165 A 
ATOM      6  N   UNL     1      -5.904  -2.550   0.052  0.00  0.00    -0.229 NA
ATOM      7  C   UNL     1      -7.040  -3.251   0.059  0.00  0.00    +0.054 A 
ATOM      8  C   UNL     1      -8.159  -2.505   0.087  0.00  0.00    +0.014 A 
ATOM      9  S   UNL     1      -7.542  -0.848   0.071  0.00  0.00    -0.057 S 
ATOM     10  C   UNL     1      -9.582  -2.997   0.161  0.00  0.00    +0.044 C 
ATOM     11  C   UNL     1      -9.887  -3.688  -1.182  0.00  0.00    +0.005 C 
ATOM     12  C   UNL     1      -9.280  -5.071  -1.204  0.00  0.00    +0.001 C 
ATOM     13  C   UNL     1      -7.781  -5.153  -1.321  0.00  0.00    +0.006 C 
ATOM     14  C   UNL     1      -7.083  -4.778  -0.009  0.00  0.00    +0.056 C 
ATOM     15  H   UNL     1      -4.950   0.587   0.054  0.00  0.00    +0.157 HD
ENDBRANCH   1   2
BRANCH   1  16
ATOM     16  O   UNL     1      -1.166  -0.700   0.010  0.00  0.00    -0.483 OA
BRANCH  16  22
ATOM     17  C   UNL     1      -0.017   1.383   0.010  0.00  0.00    +0.047 A 
ATOM     18  C   UNL     1       1.169   2.090   0.002  0.00  0.00    +0.027 A 
ATOM     19  C   UNL     1       2.381   1.413  -0.013  0.00  0.00    +0.037 A 
ATOM     20  C   UNL     1       2.399   0.024  -0.020  0.00  0.00    -0.022 A 
ATOM     21  C   UNL     1       1.213  -0.682  -0.013  0.00  0.00    +0.051 A 
ATOM     22  C   UNL     1       0.002  -0.004   0.002  0.00  0.00    +0.122 A 
ATOM     23  C   UNL     1       3.715  -0.709  -0.035  0.00  0.00    +0.046 C 
ATOM     24  C   UNL     1       4.736   0.091  -0.845  0.00  0.00    +0.101 C 
ATOM     25  C   UNL     1       4.729   1.529  -0.402  0.00  0.00    +0.218 C 
ATOM     26  O   UNL     1       5.767   2.157  -0.389  0.00  0.00    -0.275 OA
ATOM     27  N   UNL     1       3.586   2.126  -0.020  0.00  0.00    -0.285 N 
ATOM     28  H   UNL     1       3.596   3.057   0.251  0.00  0.00    +0.155 HD
ENDBRANCH  16  22
ENDBRANCH   1  16
TORSDOF 3
