REMARK  Name = ZINC05758592
REMARK  9 active torsions:
REMARK  status: ('A' for Active; 'I' for Inactive)
REMARK    1  A    between atoms: C_1  and  O_2
REMARK    2  A    between atoms: O_2  and  C_3
REMARK    3  A    between atoms: C_5  and  C_10
REMARK    4  A    between atoms: C_8  and  O_9
REMARK    5  A    between atoms: C_10  and  C_12
REMARK    6  A    between atoms: C_10  and  C_22
REMARK    7  A    between atoms: C_23  and  C_32
REMARK    8  A    between atoms: C_32  and  C_33
REMARK    9  A    between atoms: C_33  and  N_56
REMARK                            x       y       z     vdW  Elec       q    Type
REMARK                         _______ _______ _______ _____ _____    ______ ____
ROOT
ATOM      1  C   UNL     1       3.676   3.969  -0.012  0.00  0.00    +0.098 C 
ENDROOT
BRANCH   1   2
ATOM      2  C   UNL     1       2.186   4.197   0.004  0.00  0.00    -0.009 A 
ATOM      3  C   UNL     1       1.560   5.385   0.016  0.00  0.00    +0.088 A 
ATOM      4  N   UNL     1       0.205   5.198   0.028  0.00  0.00    -0.360 N 
ATOM      5  H   UNL     1      -0.455   5.909   0.038  0.00  0.00    +0.165 HD
ATOM      6  C   UNL     1      -0.082   3.852   0.024  0.00  0.00    +0.047 A 
ATOM      7  C   UNL     1       1.147   3.166   0.008  0.00  0.00    +0.004 A 
ATOM      8  C   UNL     1       1.165   1.770   0.000  0.00  0.00    +0.010 A 
ATOM      9  C   UNL     1      -0.013   1.076   0.008  0.00  0.00    +0.001 A 
ATOM     10  C   UNL     1      -1.227   1.748   0.017  0.00  0.00    +0.002 A 
ATOM     11  C   UNL     1      -1.268   3.125   0.031  0.00  0.00    +0.026 A 
ENDBRANCH   1   2
BRANCH   1  12
ATOM     12  C   UNL     1       4.268   4.602  -1.245  0.00  0.00    +0.032 A 
ATOM     13  C   UNL     1       4.941   3.944  -2.202  0.00  0.00    -0.020 A 
ATOM     14  C   UNL     1       5.335   4.934  -3.207  0.00  0.00    +0.003 A 
ATOM     15  C   UNL     1       6.040   4.868  -4.410  0.00  0.00    +0.010 A 
ATOM     16  C   UNL     1       6.247   6.005  -5.138  0.00  0.00    +0.001 A 
ATOM     17  C   UNL     1       5.763   7.227  -4.691  0.00  0.00    +0.002 A 
ATOM     18  C   UNL     1       5.064   7.315  -3.507  0.00  0.00    +0.026 A 
ATOM     19  C   UNL     1       4.842   6.170  -2.749  0.00  0.00    +0.047 A 
ATOM     20  N   UNL     1       4.194   5.932  -1.558  0.00  0.00    -0.357 N 
ATOM     21  H   UNL     1       3.753   6.608  -1.019  0.00  0.00    +0.166 HD
BRANCH  13  22
ATOM     22  C   UNL     1       5.234   2.466  -2.236  0.00  0.00    +0.018 C 
BRANCH  22  23
ATOM     23  C   UNL     1       4.099   1.737  -2.959  0.00  0.00    -0.082 C 
BRANCH  23  26
ATOM     24  H   UNL     1       4.532  -0.065  -2.062  0.00  0.00    -0.090 HD
ATOM     25  H   UNL     1       3.650  -0.207  -3.465  0.00  0.00    -0.090 HD
ATOM     26  N   UNL     1       4.407   0.297  -3.006  0.00  0.00    +0.378 N 
ATOM     27  H   UNL     1       5.274   0.154  -3.536  0.00  0.00    -0.090 HD
ENDBRANCH  23  26
ENDBRANCH  22  23
ENDBRANCH  13  22
ENDBRANCH   1  12
BRANCH   1  30
ATOM     28  C   UNL     1       5.551   4.365   3.243  0.00  0.00    +0.162 A 
ATOM     29  C   UNL     1       4.984   3.797   2.114  0.00  0.00    +0.054 A 
ATOM     30  C   UNL     1       4.292   4.588   1.216  0.00  0.00    -0.030 A 
ATOM     31  C   UNL     1       4.168   5.947   1.439  0.00  0.00    +0.008 A 
ATOM     32  C   UNL     1       4.727   6.519   2.567  0.00  0.00    +0.049 A 
ATOM     33  C   UNL     1       5.422   5.732   3.471  0.00  0.00    +0.158 A 
BRANCH  28  35
ATOM     34  C   UNL     1       6.324   2.194   3.829  0.00  0.00    +0.277 C 
ATOM     35  O   UNL     1       6.233   3.588   4.128  0.00  0.00    -0.491 OA
ENDBRANCH  28  35
BRANCH  33  36
ATOM     36  O   UNL     1       5.978   6.294   4.578  0.00  0.00    -0.503 OA
ATOM     37  H   UNL     1       6.885   6.601   4.449  0.00  0.00    +0.292 HD
ENDBRANCH  33  36
ENDBRANCH   1  30
TORSDOF 8
