REMARK  Name = ZINC13499637
REMARK  11 active torsions:
REMARK  status: ('A' for Active; 'I' for Inactive)
REMARK    1  A    between atoms: C_1  and  C_2
REMARK    2  A    between atoms: C_2  and  C_3
REMARK    3  A    between atoms: C_3  and  C_4
REMARK    4  A    between atoms: C_4  and  C_6
REMARK    5  A    between atoms: C_4  and  N_78
REMARK    6  A    between atoms: N_10  and  C_11
REMARK    7  A    between atoms: C_17  and  C_18
REMARK    8  A    between atoms: C_17  and  N_78
REMARK    9  A    between atoms: C_23  and  C_31
REMARK   10  A    between atoms: C_24  and  C_30
REMARK   11  A    between atoms: C_32  and  N_78
REMARK                            x       y       z     vdW  Elec       q    Type
REMARK                         _______ _______ _______ _____ _____    ______ ____
ROOT
ATOM      1  N   UNL     1       1.046  -1.959   1.151  0.00  0.00    +0.391 N 
ATOM      2  H   UNL     1       1.601  -1.966   0.287  0.00  0.00    -0.080 HD
ENDROOT
BRANCH   1   3
ATOM      3  C   UNL     1       0.744  -0.559   1.516  0.00  0.00    -0.067 C 
ATOM      4  C   UNL     1       2.052   0.233   1.566  0.00  0.00    -0.015 C 
ATOM      5  C   UNL     1       1.752   1.690   1.920  0.00  0.00    -0.002 C 
ATOM      6  C   UNL     1       1.066   1.753   3.286  0.00  0.00    -0.000 C 
ATOM      7  C   UNL     1      -0.242   0.961   3.236  0.00  0.00    -0.002 C 
ATOM      8  C   UNL     1       0.057  -0.497   2.882  0.00  0.00    -0.015 C 
ENDBRANCH   1   3
BRANCH   1   9
ATOM      9  C   UNL     1       1.828  -2.604   2.228  0.00  0.00    +0.003 C 
BRANCH   9  10
ATOM     10  C   UNL     1       0.939  -2.934   3.399  0.00  0.00    +0.138 A 
ATOM     11  N   UNL     1      -0.261  -3.458   3.347  0.00  0.00    -0.115 NA
ATOM     12  N   UNL     1      -0.690  -3.590   4.555  0.00  0.00    -0.023 NA
ATOM     13  N   UNL     1       0.202  -3.156   5.375  0.00  0.00    -0.044 NA
ATOM     14  N   UNL     1       1.222  -2.744   4.701  0.00  0.00    -0.228 N 
BRANCH  14  15
ATOM     15  C   UNL     1       2.455  -2.175   5.250  0.00  0.00    +0.111 C 
ATOM     16  C   UNL     1       3.126  -3.199   6.167  0.00  0.00    +0.027 C 
ATOM     17  C   UNL     1       4.414  -2.605   6.740  0.00  0.00    +0.002 C 
ATOM     18  C   UNL     1       4.082  -1.344   7.540  0.00  0.00    +0.000 C 
ATOM     19  C   UNL     1       3.412  -0.320   6.623  0.00  0.00    +0.002 C 
ATOM     20  C   UNL     1       2.123  -0.914   6.050  0.00  0.00    +0.027 C 
ENDBRANCH  14  15
ENDBRANCH   9  10
BRANCH   9  21
ATOM     21  C   UNL     1       2.450  -3.890   1.681  0.00  0.00    -0.008 C 
BRANCH  21  23
ATOM     22  C   UNL     1       3.987  -4.831  -0.050  0.00  0.00    +0.004 C 
ATOM     23  C   UNL     1       3.454  -3.542   0.579  0.00  0.00    -0.005 C 
ENDBRANCH  21  23
ENDBRANCH   9  21
ENDBRANCH   1   9
BRANCH   1  24
ATOM     24  C   UNL     1      -0.209  -2.705   0.923  0.00  0.00    -0.036 C 
BRANCH  24  25
ATOM     25  C   UNL     1      -0.737  -2.353  -0.445  0.00  0.00    +0.001 A 
ATOM     26  C   UNL     1      -0.417  -3.126  -1.512  0.00  0.00    +0.017 A 
ATOM     27  C   UNL     1      -0.945  -2.758  -2.826  0.00  0.00    -0.001 A 
ATOM     28  C   UNL     1      -0.650  -3.517  -3.963  0.00  0.00    +0.010 A 
ATOM     29  C   UNL     1      -1.159  -3.147  -5.176  0.00  0.00    +0.004 A 
ATOM     30  C   UNL     1      -1.968  -2.024  -5.289  0.00  0.00    -0.046 A 
ATOM     31  C   UNL     1      -2.272  -1.261  -4.182  0.00  0.00    -0.024 A 
ATOM     32  C   UNL     1      -1.765  -1.619  -2.937  0.00  0.00    +0.052 A 
ATOM     33  N   UNL     1      -2.053  -0.875  -1.813  0.00  0.00    -0.322 N 
ATOM     34  H   UNL     1      -2.618  -0.090  -1.891  0.00  0.00    +0.169 HD
ATOM     35  C   UNL     1      -1.567  -1.224  -0.609  0.00  0.00    +0.251 A 
ATOM     36  O   UNL     1      -1.847  -0.546   0.364  0.00  0.00    -0.268 OA
ATOM     37  C   UNL     1      -3.150  -0.044  -4.320  0.00  0.00    +0.046 C 
ATOM     38  C   UNL     1      -2.518  -1.635  -6.637  0.00  0.00    +0.044 C 
ENDBRANCH  24  25
ENDBRANCH   1  24
TORSDOF 8
