REMARK  Name = ZINC21755378
REMARK  12 active torsions:
REMARK  status: ('A' for Active; 'I' for Inactive)
REMARK    1  A    between atoms: C_1  and  C_2
REMARK    2  A    between atoms: C_5  and  O_34
REMARK    3  A    between atoms: C_6  and  S_8
REMARK    4  A    between atoms: S_8  and  N_11
REMARK    5  A    between atoms: N_11  and  C_12
REMARK    6  A    between atoms: C_12  and  C_13
REMARK    7  A    between atoms: C_13  and  C_15
REMARK    8  A    between atoms: C_13  and  N_24
REMARK    9  A    between atoms: C_18  and  N_21
REMARK   10  A    between atoms: N_21  and  C_22
REMARK   11  A    between atoms: N_21  and  C_23
REMARK   12  A    between atoms: O_34  and  C_35
REMARK                            x       y       z     vdW  Elec       q    Type
REMARK                         _______ _______ _______ _____ _____    ______ ____
ROOT
ATOM      1  C   UNL     1      -0.013   1.086   0.008  0.00  0.00    -0.021 C 
ENDROOT
BRANCH   1   2
ATOM      2  N   UNL     1      -0.837   1.762  -1.003  0.00  0.00    +0.388 N 
ATOM      3  C   UNL     1      -0.363   1.455  -2.361  0.00  0.00    -0.073 C 
ATOM      4  C   UNL     1      -1.447   1.866  -3.358  0.00  0.00    +0.017 C 
ATOM      5  C   UNL     1      -1.890   3.280  -3.082  0.00  0.00    -0.048 A 
ATOM      6  C   UNL     1      -2.591   3.958  -4.068  0.00  0.00    +0.004 A 
ATOM      7  C   UNL     1      -3.018   5.253  -3.854  0.00  0.00    +0.000 A 
ATOM      8  C   UNL     1      -2.746   5.878  -2.651  0.00  0.00    +0.000 A 
ATOM      9  C   UNL     1      -2.048   5.204  -1.669  0.00  0.00    +0.002 A 
ATOM     10  C   UNL     1      -1.616   3.903  -1.883  0.00  0.00    -0.061 A 
ATOM     11  C   UNL     1      -0.850   3.212  -0.786  0.00  0.00    -0.042 C 
ATOM     12  H   UNL     1      -1.866   1.389  -0.897  0.00  0.00    -0.080 HD
ENDBRANCH   1   2
BRANCH   1  13
ATOM     13  C   UNL     1       1.436   1.443  -0.204  0.00  0.00    -0.060 A 
ATOM     14  C   UNL     1       1.893   2.703   0.137  0.00  0.00    +0.004 A 
ATOM     15  C   UNL     1       3.221   3.032  -0.050  0.00  0.00    +0.023 A 
ATOM     16  C   UNL     1       4.096   2.099  -0.593  0.00  0.00    +0.029 A 
ATOM     17  C   UNL     1       3.632   0.837  -0.940  0.00  0.00    +0.023 A 
ATOM     18  C   UNL     1       2.304   0.512  -0.745  0.00  0.00    +0.004 A 
BRANCH  16  19
ATOM     19  N   UNL     1       5.438   2.431  -0.790  0.00  0.00    -0.336 N 
ATOM     20  C   UNL     1       6.359   1.446  -1.363  0.00  0.00    +0.129 C 
ATOM     21  C   UNL     1       5.925   3.763  -0.424  0.00  0.00    +0.129 C 
ENDBRANCH  16  19
ENDBRANCH   1  13
BRANCH   1  22
ATOM     22  C   UNL     1      -0.449   1.533   1.405  0.00  0.00    +0.095 C 
BRANCH  22  23
ATOM     23  N   UNL     1      -1.885   1.294   1.567  0.00  0.00    -0.191 NA
ATOM     24  H   UNL     1      -2.540   1.256   0.684  0.00  0.00    +0.148 HD
BRANCH  23  25
ATOM     25  S   UNL     1      -2.565   1.329   3.077  0.00  0.00    +0.062 S 
ATOM     26  O   UNL     1      -3.955   1.092   2.902  0.00  0.00    -0.153 OA
ATOM     27  O   UNL     1      -1.751   0.512   3.907  0.00  0.00    -0.153 OA
BRANCH  25  33
ATOM     28  C   UNL     1      -4.646   5.862   4.634  0.00  0.00    +0.044 C 
ATOM     29  C   UNL     1      -3.413   5.032   4.385  0.00  0.00    -0.048 A 
ATOM     30  C   UNL     1      -2.161   5.564   4.633  0.00  0.00    +0.007 A 
ATOM     31  C   UNL     1      -1.030   4.806   4.405  0.00  0.00    +0.048 A 
ATOM     32  C   UNL     1      -1.151   3.506   3.934  0.00  0.00    +0.146 A 
ATOM     33  C   UNL     1      -2.408   2.977   3.681  0.00  0.00    +0.147 A 
ATOM     34  C   UNL     1      -3.536   3.740   3.910  0.00  0.00    +0.035 A 
BRANCH  32  35
ATOM     35  O   UNL     1      -0.039   2.755   3.715  0.00  0.00    -0.493 OA
ATOM     36  C   UNL     1       1.222   3.366   3.997  0.00  0.00    +0.277 C 
ENDBRANCH  32  35
ENDBRANCH  25  33
ENDBRANCH  23  25
ENDBRANCH  22  23
ENDBRANCH   1  22
TORSDOF 8
