REMARK  Name = ZINC03316135
REMARK  10 active torsions:
REMARK  status: ('A' for Active; 'I' for Inactive)
REMARK    1  A    between atoms: C_1  and  C_2
REMARK    2  A    between atoms: C_7  and  C_9
REMARK    3  A    between atoms: C_7  and  C_10
REMARK    4  A    between atoms: C_13  and  C_15
REMARK    5  A    between atoms: C_15  and  S_16
REMARK    6  A    between atoms: S_16  and  C_17
REMARK    7  A    between atoms: C_20  and  C_23
REMARK    8  A    between atoms: N_21  and  N_22
REMARK    9  A    between atoms: C_28  and  O_29
REMARK   10  A    between atoms: O_29  and  C_30
REMARK                            x       y       z     vdW  Elec       q    Type
REMARK                         _______ _______ _______ _____ _____    ______ ____
ROOT
ATOM      1  C   UNL     1       2.775  -3.194  -5.810  0.00  0.00    +0.209 A 
ATOM      2  N   UNL     1       3.374  -2.025  -5.785  0.00  0.00    -0.121 NA
ATOM      3  N   UNL     1       4.209  -1.936  -6.758  0.00  0.00    -0.127 NA
ATOM      4  C   UNL     1       4.194  -3.042  -7.464  0.00  0.00    +0.185 A 
ATOM      5  N   UNL     1       3.278  -3.885  -6.876  0.00  0.00    -0.224 N 
ENDROOT
BRANCH   4   6
ATOM      6  C   UNL     1       5.009  -3.331  -8.662  0.00  0.00    +0.062 A 
ATOM      7  C   UNL     1       4.414  -3.877  -9.801  0.00  0.00    +0.015 A 
ATOM      8  C   UNL     1       5.181  -4.144 -10.916  0.00  0.00    +0.001 A 
ATOM      9  C   UNL     1       6.538  -3.873 -10.911  0.00  0.00    +0.004 A 
ATOM     10  C   UNL     1       7.138  -3.333  -9.789  0.00  0.00    +0.046 A 
ATOM     11  C   UNL     1       6.381  -3.053  -8.664  0.00  0.00    +0.131 A 
BRANCH  11  12
ATOM     12  O   UNL     1       6.969  -2.516  -7.563  0.00  0.00    -0.494 OA
ATOM     13  C   UNL     1       8.373  -2.259  -7.637  0.00  0.00    +0.277 C 
ENDBRANCH  11  12
ENDBRANCH   4   6
BRANCH   5  14
ATOM     14  N   UNL     1       2.942  -5.147  -7.275  0.00  0.00    -0.295 N 
ATOM     15  H   UNL     1       2.233  -5.122  -7.994  0.00  0.00    +0.163 HD
ATOM     16  H   UNL     1       3.755  -5.656  -7.587  0.00  0.00    +0.163 HD
ENDBRANCH   5  14
BRANCH   1  17
ATOM     17  S   UNL     1       1.554  -3.767  -4.676  0.00  0.00    -0.075 S 
BRANCH  17  18
ATOM     18  C   UNL     1       1.342  -2.383  -3.523  0.00  0.00    +0.173 C 
BRANCH  18  30
ATOM     19  C   UNL     1      -0.261   1.608  -0.180  0.00  0.00    +0.013 C 
ATOM     20  C   UNL     1      -0.096   0.083  -0.091  0.00  0.00    -0.014 C 
ATOM     21  C   UNL     1      -1.461  -0.657  -0.035  0.00  0.00    +0.030 C 
ATOM     22  C   UNL     1      -1.000  -2.079  -0.442  0.00  0.00    +0.077 C 
ATOM     23  C   UNL     1      -0.297  -2.690   0.767  0.00  0.00    +0.029 C 
ATOM     24  C   UNL     1       0.853  -1.853   1.298  0.00  0.00    -0.033 C 
ATOM     25  C   UNL     1       0.708  -0.352   1.133  0.00  0.00    +0.014 C 
ATOM     26  C   UNL     1       0.962  -2.139   2.817  0.00  0.00    +0.011 C 
ATOM     27  C   UNL     1       2.173  -2.328   0.673  0.00  0.00    +0.011 C 
ATOM     28  N   UNL     1      -0.013  -1.864  -1.519  0.00  0.00    -0.297 N 
ATOM     29  C   UNL     1       0.549  -0.513  -1.362  0.00  0.00    +0.114 C 
ATOM     30  C   UNL     1       0.310  -2.746  -2.486  0.00  0.00    +0.226 C 
ATOM     31  O   UNL     1      -0.229  -3.832  -2.522  0.00  0.00    -0.275 OA
ENDBRANCH  18  30
ENDBRANCH  17  18
ENDBRANCH   1  17
TORSDOF 6
