REMARK  Name = ZINC51755482
REMARK  10 active torsions:
REMARK  status: ('A' for Active; 'I' for Inactive)
REMARK    1  A    between atoms: C_1  and  C_2
REMARK    2  A    between atoms: C_5  and  C_11
REMARK    3  A    between atoms: C_6  and  C_10
REMARK    4  A    between atoms: C_7  and  O_8
REMARK    5  A    between atoms: O_8  and  C_9
REMARK    6  A    between atoms: C_11  and  N_12
REMARK    7  A    between atoms: N_15  and  C_16
REMARK    8  A    between atoms: C_16  and  C_17
REMARK    9  A    between atoms: C_17  and  C_19
REMARK   10  A    between atoms: C_17  and  N_24
REMARK                            x       y       z     vdW  Elec       q    Type
REMARK                         _______ _______ _______ _____ _____    ______ ____
ROOT
ATOM      1  N   UNL     1       1.360  -4.862  -1.293  0.00  0.00    -0.294 N 
ATOM      2  C   UNL     1       1.703  -6.166  -1.298  0.00  0.00    +0.300 C 
ATOM      3  O   UNL     1       0.903  -7.003  -1.667  0.00  0.00    -0.253 OA
ATOM      4  N   UNL     1       2.933  -6.540  -0.894  0.00  0.00    -0.301 N 
ATOM      5  H   UNL     1       1.998  -4.194  -0.999  0.00  0.00    +0.151 HD
ATOM      6  H   UNL     1       3.571  -5.872  -0.600  0.00  0.00    +0.150 HD
ENDROOT
BRANCH   1   7
ATOM      7  C   UNL     1       0.023  -4.455  -1.733  0.00  0.00    +0.161 C 
BRANCH   7  12
ATOM      8  C   UNL     1      -0.424   1.258  -1.454  0.00  0.00    +0.049 C 
ATOM      9  C   UNL     1      -0.321  -0.245  -1.490  0.00  0.00    +0.010 A 
ATOM     10  C   UNL     1       0.132  -0.888  -2.624  0.00  0.00    +0.118 A 
ATOM     11  N   UNL     1       0.227  -2.203  -2.663  0.00  0.00    -0.258 NA
ATOM     12  C   UNL     1      -0.104  -2.957  -1.631  0.00  0.00    +0.065 A 
ATOM     13  C   UNL     1      -0.565  -2.390  -0.461  0.00  0.00    +0.014 A 
ATOM     14  C   UNL     1      -0.674  -1.004  -0.377  0.00  0.00    +0.129 A 
ATOM     15  C   UNL     1      -0.941  -3.258   0.712  0.00  0.00    +0.049 C 
BRANCH  14  16
ATOM     16  O   UNL     1      -1.119  -0.409   0.759  0.00  0.00    -0.494 OA
ATOM     17  C   UNL     1      -2.528  -0.197   0.871  0.00  0.00    +0.277 C 
ENDBRANCH  14  16
ENDBRANCH   7  12
ENDBRANCH   1   7
BRANCH   4  18
ATOM     18  C   UNL     1       3.306  -7.957  -0.899  0.00  0.00    +0.098 C 
BRANCH  18  19
ATOM     19  C   UNL     1       4.783  -8.097  -0.525  0.00  0.00    +0.016 C 
BRANCH  19  20
ATOM     20  N   UNL     1       5.601  -7.306  -1.454  0.00  0.00    +0.387 N 
ATOM     21  C   UNL     1       5.311  -7.719  -2.832  0.00  0.00    -0.078 C 
ATOM     22  C   UNL     1       6.099  -6.844  -3.808  0.00  0.00    -0.019 C 
ATOM     23  C   UNL     1       7.597  -7.002  -3.531  0.00  0.00    -0.004 C 
ATOM     24  C   UNL     1       7.877  -6.640  -2.070  0.00  0.00    -0.019 C 
ATOM     25  C   UNL     1       7.022  -7.523  -1.158  0.00  0.00    -0.078 C 
ATOM     26  H   UNL     1       5.381  -6.328  -1.345  0.00  0.00    -0.081 HD
ENDBRANCH  19  20
BRANCH  19  27
ATOM     27  C   UNL     1       5.187  -9.546  -0.608  0.00  0.00    +0.093 A 
ATOM     28  C   UNL     1       5.454 -10.350   0.437  0.00  0.00    +0.043 A 
ATOM     29  C   UNL     1       5.789 -11.616  -0.095  0.00  0.00    +0.041 A 
ATOM     30  C   UNL     1       5.706 -11.511  -1.434  0.00  0.00    +0.195 A 
ATOM     31  O   UNL     1       5.335 -10.257  -1.738  0.00  0.00    -0.469 OA
ENDBRANCH  19  27
ENDBRANCH  18  19
ENDBRANCH   4  18
TORSDOF 7
