REMARK  Name = ZINC12690058
REMARK  9 active torsions:
REMARK  status: ('A' for Active; 'I' for Inactive)
REMARK    1  A    between atoms: C_1  and  C_2
REMARK    2  A    between atoms: C_2  and  C_3
REMARK    3  A    between atoms: C_3  and  C_4
REMARK    4  A    between atoms: N_10  and  C_11
REMARK    5  A    between atoms: C_11  and  C_12
REMARK    6  A    between atoms: N_14  and  N_15
REMARK    7  A    between atoms: C_16  and  C_18
REMARK    8  A    between atoms: C_19  and  C_29
REMARK    9  A    between atoms: C_21  and  C_23
REMARK                            x       y       z     vdW  Elec       q    Type
REMARK                         _______ _______ _______ _____ _____    ______ ____
ROOT
ATOM      1  N   UNL     1       2.763   3.839  -0.004  0.00  0.00    -0.230 N 
ATOM      2  C   UNL     1       1.488   3.404   0.005  0.00  0.00    +0.269 C 
ATOM      3  O   UNL     1       0.571   4.204   0.018  0.00  0.00    -0.268 OA
ATOM      4  H   UNL     1       3.493   3.201  -0.014  0.00  0.00    +0.173 HD
ENDROOT
BRANCH   2   5
ATOM      5  C   UNL     1       1.204   1.965   0.001  0.00  0.00    +0.098 A 
ATOM      6  C   UNL     1      -0.016   1.301   0.009  0.00  0.00    +0.058 A 
ATOM      7  N   UNL     1       0.002  -0.004   0.002  0.00  0.00    -0.243 NA
ATOM      8  C   UNL     1       1.141  -0.683  -0.013  0.00  0.00    +0.109 A 
ATOM      9  S   UNL     1       2.333   0.580  -0.017  0.00  0.00    -0.062 S 
ATOM     10  C   UNL     1      -1.316   2.062   0.020  0.00  0.00    +0.067 C 
BRANCH   8  11
ATOM     11  C   UNL     1       1.344  -2.147  -0.022  0.00  0.00    +0.007 A 
ATOM     12  C   UNL     1       0.245  -3.008  -0.010  0.00  0.00    +0.010 A 
ATOM     13  C   UNL     1       0.442  -4.373  -0.024  0.00  0.00    +0.001 A 
ATOM     14  C   UNL     1       1.726  -4.890  -0.039  0.00  0.00    +0.000 A 
ATOM     15  C   UNL     1       2.819  -4.043  -0.046  0.00  0.00    +0.001 A 
ATOM     16  C   UNL     1       2.636  -2.675  -0.037  0.00  0.00    +0.010 A 
ENDBRANCH   8  11
ENDBRANCH   2   5
BRANCH   1  19
ATOM     17  C   UNL     1       4.309   5.650  -0.010  0.00  0.00    +0.249 C 
ATOM     18  O   UNL     1       5.222   4.852  -0.022  0.00  0.00    -0.272 OA
ATOM     19  N   UNL     1       3.034   5.214  -0.000  0.00  0.00    -0.233 N 
ATOM     20  H   UNL     1       2.303   5.852   0.010  0.00  0.00    +0.173 HD
BRANCH  17  21
ATOM     21  C   UNL     1       4.600   7.128  -0.005  0.00  0.00    +0.222 C 
BRANCH  21  28
ATOM     22  C   UNL     1       6.854   7.457   1.089  0.00  0.00    +0.132 A 
ATOM     23  N   UNL     1       8.076   7.633   0.700  0.00  0.00    -0.159 NA
ATOM     24  N   UNL     1       8.091   7.645  -0.702  0.00  0.00    -0.254 N 
ATOM     25  H   UNL     1       8.870   7.763  -1.268  0.00  0.00    +0.191 HD
ATOM     26  C   UNL     1       6.820   7.461  -1.117  0.00  0.00    +0.176 A 
ATOM     27  S   UNL     1       6.285   7.392  -2.742  0.00  0.00    -0.011 S 
ATOM     28  N   UNL     1       6.050   7.341  -0.018  0.00  0.00    -0.298 N 
BRANCH  22  29
ATOM     29  C   UNL     1       6.391   7.388   2.521  0.00  0.00    +0.076 C 
BRANCH  29  31
ATOM     30  C   UNL     1       5.973   5.867   4.459  0.00  0.00    +0.004 C 
ATOM     31  C   UNL     1       6.443   5.937   3.005  0.00  0.00    +0.004 C 
ENDBRANCH  29  31
ENDBRANCH  22  29
ENDBRANCH  21  28
ENDBRANCH  17  21
ENDBRANCH   1  19
TORSDOF 7
