REMARK  Name = ZINC67252018
REMARK  10 active torsions:
REMARK  status: ('A' for Active; 'I' for Inactive)
REMARK    1  A    between atoms: C_1  and  N_2
REMARK    2  A    between atoms: N_2  and  C_3
REMARK    3  A    between atoms: N_2  and  S_4
REMARK    4  A    between atoms: S_4  and  C_7
REMARK    5  A    between atoms: C_10  and  C_12
REMARK    6  A    between atoms: C_12  and  N_13
REMARK    7  A    between atoms: N_13  and  C_14
REMARK    8  A    between atoms: C_14  and  C_15
REMARK    9  A    between atoms: C_20  and  O_25
REMARK   10  A    between atoms: O_25  and  C_26
REMARK                            x       y       z     vdW  Elec       q    Type
REMARK                         _______ _______ _______ _____ _____    ______ ____
ROOT
ATOM      1  N   UNL     1      -4.800  -1.452  -5.563  0.00  0.00    +0.385 N 
ATOM      2  H   UNL     1      -4.730  -2.444  -5.395  0.00  0.00    -0.085 HD
ATOM      3  H   UNL     1      -5.367  -1.028  -4.844  0.00  0.00    -0.085 HD
ENDROOT
BRANCH   1   4
ATOM      4  C   UNL     1      -3.458  -0.856  -5.543  0.00  0.00    -0.039 C 
BRANCH   4   8
ATOM      5  C   UNL     1      -1.884  -1.109  -1.669  0.00  0.00    +0.143 A 
ATOM      6  C   UNL     1      -1.575  -2.141  -2.492  0.00  0.00    +0.036 A 
ATOM      7  C   UNL     1      -2.055  -2.133  -3.788  0.00  0.00    +0.011 A 
ATOM      8  C   UNL     1      -2.822  -1.094  -4.198  0.00  0.00    -0.025 A 
ATOM      9  S   UNL     1      -2.890  -0.082  -2.728  0.00  0.00    -0.075 S 
BRANCH   5  10
ATOM     10  S   UNL     1      -1.421  -0.852   0.011  0.00  0.00    +0.067 S 
ATOM     11  O   UNL     1      -1.127  -2.132   0.552  0.00  0.00    -0.152 OA
ATOM     12  O   UNL     1      -2.401   0.008   0.576  0.00  0.00    -0.152 OA
BRANCH  10  14
ATOM     13  C   UNL     1      -0.018   1.461   0.010  0.00  0.00    +0.131 C 
ATOM     14  N   UNL     1       0.002  -0.004   0.002  0.00  0.00    -0.182 NA
ATOM     15  C   UNL     1       1.281  -0.719  -0.014  0.00  0.00    +0.131 C 
ENDBRANCH  10  14
ENDBRANCH   5  10
ENDBRANCH   4   8
ENDBRANCH   1   4
BRANCH   1  16
ATOM     16  C   UNL     1      -5.420  -1.220  -6.875  0.00  0.00    -0.046 C 
BRANCH  16  17
ATOM     17  C   UNL     1      -6.797  -1.832  -6.895  0.00  0.00    -0.064 A 
ATOM     18  C   UNL     1      -6.954  -3.155  -7.305  0.00  0.00    +0.002 A 
ATOM     19  C   UNL     1      -8.184  -3.737  -7.335  0.00  0.00    +0.009 A 
ATOM     20  C   UNL     1      -9.314  -2.996  -6.947  0.00  0.00    -0.014 A 
ATOM     21  C   UNL     1     -10.598  -3.564  -6.965  0.00  0.00    +0.054 A 
ATOM     22  C   UNL     1     -11.674  -2.814  -6.581  0.00  0.00    +0.121 A 
ATOM     23  C   UNL     1     -11.513  -1.487  -6.171  0.00  0.00    +0.046 A 
ATOM     24  C   UNL     1     -10.283  -0.908  -6.143  0.00  0.00    +0.012 A 
ATOM     25  C   UNL     1      -9.154  -1.651  -6.530  0.00  0.00    -0.017 A 
ATOM     26  C   UNL     1      -7.867  -1.086  -6.508  0.00  0.00    +0.010 A 
BRANCH  22  27
ATOM     27  O   UNL     1     -12.916  -3.365  -6.599  0.00  0.00    -0.495 OA
ATOM     28  C   UNL     1     -14.001  -2.531  -6.186  0.00  0.00    +0.277 C 
ENDBRANCH  22  27
ENDBRANCH  16  17
ENDBRANCH   1  16
TORSDOF 7
