REMARK  Name = ZINC44165026
REMARK  14 active torsions:
REMARK  status: ('A' for Active; 'I' for Inactive)
REMARK    1  A    between atoms: C_1  and  C_2
REMARK    2  A    between atoms: C_2  and  C_4
REMARK    3  A    between atoms: C_2  and  N_10
REMARK    4  A    between atoms: C_11  and  C_13
REMARK    5  A    between atoms: C_18  and  C_21
REMARK    6  A    between atoms: C_23  and  C_32
REMARK    7  A    between atoms: C_24  and  O_31
REMARK    8  A    between atoms: C_25  and  C_27
REMARK    9  A    between atoms: C_27  and  C_28
REMARK   10  A    between atoms: C_27  and  C_29
REMARK   11  A    between atoms: C_27  and  C_30
REMARK   12  A    between atoms: C_32  and  C_33
REMARK   13  A    between atoms: C_32  and  C_34
REMARK   14  A    between atoms: C_32  and  C_35
REMARK                            x       y       z     vdW  Elec       q    Type
REMARK                         _______ _______ _______ _____ _____    ______ ____
ROOT
ATOM      1  C   UNL     1       0.780  -1.133   3.576  0.00  0.00    +0.027 C 
ATOM      2  C   UNL     1       1.243  -2.575   3.339  0.00  0.00    +0.062 C 
ATOM      3  S   UNL     1      -0.221  -3.590   2.965  0.00  0.00    -0.163 S 
ATOM      4  C   UNL     1      -1.363  -3.153   4.313  0.00  0.00    +0.058 C 
ATOM      5  C   UNL     1      -1.437  -1.624   4.404  0.00  0.00    -0.030 C 
ATOM      6  N   UNL     1      -0.117  -1.084   4.732  0.00  0.00    +0.392 N 
ATOM      7  H   UNL     1       0.284  -1.623   5.485  0.00  0.00    -0.084 HD
ATOM      8  H   UNL     1      -0.220  -0.125   5.031  0.00  0.00    -0.084 HD
ENDROOT
BRANCH   5   9
ATOM      9  C   UNL     1      -2.418  -1.233   5.479  0.00  0.00    -0.060 A 
ATOM     10  C   UNL     1      -2.033  -1.256   6.807  0.00  0.00    +0.009 A 
ATOM     11  C   UNL     1      -2.932  -0.898   7.794  0.00  0.00    -0.000 A 
ATOM     12  C   UNL     1      -4.220  -0.516   7.451  0.00  0.00    +0.124 A 
ATOM     13  C   UNL     1      -4.604  -0.494   6.118  0.00  0.00    -0.000 A 
ATOM     14  C   UNL     1      -3.700  -0.847   5.135  0.00  0.00    +0.009 A 
BRANCH  13  15
ATOM     15  C   UNL     1      -6.003  -0.079   5.743  0.00  0.00    -0.009 C 
ATOM     16  C   UNL     1      -6.163  -0.141   4.223  0.00  0.00    +0.015 C 
ATOM     17  C   UNL     1      -7.010  -1.025   6.401  0.00  0.00    +0.015 C 
ATOM     18  C   UNL     1      -6.258   1.351   6.224  0.00  0.00    +0.015 C 
ENDBRANCH  13  15
BRANCH  11  19
ATOM     19  C   UNL     1      -2.512  -0.924   9.241  0.00  0.00    -0.009 C 
ATOM     20  C   UNL     1      -1.054  -1.379   9.341  0.00  0.00    +0.015 C 
ATOM     21  C   UNL     1      -2.651   0.478   9.837  0.00  0.00    +0.015 C 
ATOM     22  C   UNL     1      -3.404  -1.898  10.013  0.00  0.00    +0.015 C 
ENDBRANCH  11  19
BRANCH  12  23
ATOM     23  O   UNL     1      -5.106  -0.164   8.420  0.00  0.00    -0.506 OA
ATOM     24  H   UNL     1      -5.096   0.778   8.639  0.00  0.00    +0.292 HD
ENDBRANCH  12  23
ENDBRANCH   5   9
BRANCH   1  26
ATOM     25  N   UNL     1      -0.866   0.347   2.472  0.00  0.00    -0.310 N 
ATOM     26  C   UNL     1       0.051  -0.633   2.355  0.00  0.00    +0.200 C 
ATOM     27  O   UNL     1       0.290  -1.114   1.268  0.00  0.00    -0.278 OA
ATOM     28  H   UNL     1      -1.057   0.732   3.342  0.00  0.00    +0.149 HD
BRANCH  25  30
ATOM     29  C   UNL     1      -2.783  -0.064   1.011  0.00  0.00    +0.033 C 
ATOM     30  C   UNL     1      -1.574   0.833   1.285  0.00  0.00    +0.100 C 
BRANCH  30  31
ATOM     31  C   UNL     1      -2.041   2.246   1.522  0.00  0.00    -0.027 A 
ATOM     32  C   UNL     1      -2.542   2.611   2.757  0.00  0.00    +0.005 A 
ATOM     33  C   UNL     1      -2.970   3.908   2.974  0.00  0.00    +0.000 A 
ATOM     34  C   UNL     1      -2.896   4.839   1.955  0.00  0.00    +0.000 A 
ATOM     35  C   UNL     1      -2.394   4.474   0.720  0.00  0.00    +0.000 A 
ATOM     36  C   UNL     1      -1.962   3.179   0.504  0.00  0.00    +0.005 A 
ENDBRANCH  30  31
ENDBRANCH  25  30
ENDBRANCH   1  26
TORSDOF 7
