REMARK  Name = ZINC03260229
REMARK  8 active torsions:
REMARK  status: ('A' for Active; 'I' for Inactive)
REMARK    1  A    between atoms: C_3  and  C_8
REMARK    2  A    between atoms: C_9  and  C_10
REMARK    3  A    between atoms: C_10  and  O_12
REMARK    4  A    between atoms: O_12  and  C_13
REMARK    5  A    between atoms: C_13  and  C_14
REMARK    6  A    between atoms: N_16  and  C_17
REMARK    7  A    between atoms: C_20  and  S_23
REMARK    8  A    between atoms: S_23  and  N_26
REMARK                            x       y       z     vdW  Elec       q    Type
REMARK                         _______ _______ _______ _____ _____    ______ ____
ROOT
ATOM      1  C   UNL     1      -3.510  -6.371  -0.002  0.00  0.00    +0.255 C 
ATOM      2  O   UNL     1      -2.382  -6.816  -0.023  0.00  0.00    -0.272 OA
ATOM      3  N   UNL     1      -4.565  -7.209   0.005  0.00  0.00    -0.283 N 
ATOM      4  H   UNL     1      -5.465  -6.856   0.090  0.00  0.00    +0.155 HD
ENDROOT
BRANCH   3   5
ATOM      5  C   UNL     1      -4.363  -8.589  -0.110  0.00  0.00    +0.034 A 
ATOM      6  C   UNL     1      -5.281  -9.372  -0.797  0.00  0.00    +0.025 A 
ATOM      7  C   UNL     1      -5.075 -10.733  -0.914  0.00  0.00    +0.030 A 
ATOM      8  C   UNL     1      -3.963 -11.318  -0.337  0.00  0.00    +0.105 A 
ATOM      9  C   UNL     1      -3.050 -10.541   0.353  0.00  0.00    +0.030 A 
ATOM     10  C   UNL     1      -3.247  -9.179   0.468  0.00  0.00    +0.025 A 
BRANCH   8  11
ATOM     11  S   UNL     1      -3.708 -13.055  -0.483  0.00  0.00    +0.056 S 
ATOM     12  O   UNL     1      -4.418 -13.474  -1.640  0.00  0.00    -0.153 OA
ATOM     13  O   UNL     1      -2.313 -13.275  -0.323  0.00  0.00    -0.153 OA
BRANCH  11  14
ATOM     14  N   UNL     1      -4.451 -13.769   0.814  0.00  0.00    -0.204 NA
ATOM     15  H   UNL     1      -4.812 -14.665   0.732  0.00  0.00    +0.144 HD
ATOM     16  H   UNL     1      -4.525 -13.291   1.654  0.00  0.00    +0.144 HD
ENDBRANCH  11  14
ENDBRANCH   8  11
ENDBRANCH   3   5
BRANCH   1  17
ATOM     17  C   UNL     1      -3.732  -4.880   0.017  0.00  0.00    +0.328 C 
BRANCH  17  18
ATOM     18  O   UNL     1      -2.470  -4.210   0.005  0.00  0.00    -0.452 OA
BRANCH  18  19
ATOM     19  C   UNL     1      -2.493  -2.862   0.019  0.00  0.00    +0.332 C 
ATOM     20  O   UNL     1      -3.555  -2.271   0.041  0.00  0.00    -0.246 OA
BRANCH  19  22
ATOM     21  C   UNL     1      -1.261  -0.761   0.023  0.00  0.00    +0.015 C 
ATOM     22  C   UNL     1      -1.238  -2.110   0.009  0.00  0.00    +0.092 C 
BRANCH  21  25
ATOM     23  C   UNL     1       1.169   2.097   0.016  0.00  0.00    +0.002 A 
ATOM     24  C   UNL     1      -0.018   1.395   0.027  0.00  0.00    +0.008 A 
ATOM     25  C   UNL     1       0.001  -0.004   0.012  0.00  0.00    -0.024 A 
ATOM     26  C   UNL     1       1.226  -0.679  -0.013  0.00  0.00    +0.023 A 
ATOM     27  C   UNL     1       2.405   0.038  -0.024  0.00  0.00    +0.018 A 
ATOM     28  C   UNL     1       2.377   1.423  -0.009  0.00  0.00    +0.015 A 
ATOM     29 BR   UNL     1       4.062  -0.872  -0.058  0.00  0.00    -0.050 Br
ENDBRANCH  21  25
ENDBRANCH  19  22
ENDBRANCH  18  19
ENDBRANCH  17  18
ENDBRANCH   1  17
TORSDOF 8
