REMARK  Name = ZINC04848055
REMARK  5 active torsions:
REMARK  status: ('A' for Active; 'I' for Inactive)
REMARK    1  A    between atoms: C_1  and  C_2
REMARK    2  A    between atoms: C_10  and  C_14
REMARK    3  A    between atoms: C_17  and  S_20
REMARK    4  A    between atoms: S_20  and  C_21
REMARK    5  A    between atoms: C_21  and  C_22
REMARK                            x       y       z     vdW  Elec       q    Type
REMARK                         _______ _______ _______ _____ _____    ______ ____
ROOT
ATOM      1  C   UNL     1      -0.013   1.086   0.008  0.00  0.00    +0.086 C 
ATOM      2  C   UNL     1      -0.718   1.572   1.248  0.00  0.00    +0.115 A 
ATOM      3  N   UNL     1      -2.005   1.772   1.212  0.00  0.00    -0.226 NA
ATOM      4  C   UNL     1      -2.689   2.195   2.271  0.00  0.00    +0.114 A 
ATOM      5  C   UNL     1      -2.075   2.469   3.502  0.00  0.00    +0.056 A 
ATOM      6  C   UNL     1      -2.917   2.920   4.550  0.00  0.00    -0.024 A 
ATOM      7  C   UNL     1      -4.237   3.050   4.283  0.00  0.00    -0.004 A 
ATOM      8  S   UNL     1      -4.398   2.562   2.585  0.00  0.00    -0.073 S 
ATOM      9  C   UNL     1      -5.315   3.504   5.216  0.00  0.00    +0.046 C 
ATOM     10  C   UNL     1      -4.653   4.162   6.436  0.00  0.00    -0.009 C 
ATOM     11  C   UNL     1      -3.530   3.248   6.936  0.00  0.00    +0.008 C 
ATOM     12  C   UNL     1      -2.372   3.252   5.937  0.00  0.00    +0.037 C 
ATOM     13  C   UNL     1      -5.691   4.351   7.544  0.00  0.00    +0.008 C 
ATOM     14  C   UNL     1      -0.613   2.243   3.530  0.00  0.00    +0.173 A 
ATOM     15  N   UNL     1       0.006   1.798   2.382  0.00  0.00    -0.258 N 
ATOM     16  C   UNL     1       1.329   1.682   2.705  0.00  0.00    +0.198 A 
ATOM     17  N   UNL     1       1.456   2.041   3.962  0.00  0.00    -0.122 NA
ATOM     18  N   UNL     1       0.311   2.372   4.450  0.00  0.00    -0.128 NA
ENDROOT
BRANCH  16  19
ATOM     19  S   UNL     1       2.624   1.152   1.633  0.00  0.00    -0.076 S 
BRANCH  19  20
ATOM     20  C   UNL     1       4.110   1.226   2.671  0.00  0.00    +0.173 C 
BRANCH  20  21
ATOM     21  C   UNL     1       5.307   0.791   1.865  0.00  0.00    +0.226 C 
ATOM     22  O   UNL     1       5.171   0.464   0.705  0.00  0.00    -0.275 OA
ATOM     23  N   UNL     1       6.529   0.766   2.433  0.00  0.00    -0.296 N 
ATOM     24  C   UNL     1       6.720   1.164   3.837  0.00  0.00    +0.136 C 
ATOM     25  C   UNL     1       7.517   0.057   4.545  0.00  0.00    +0.179 C 
ATOM     26  O   UNL     1       8.704  -0.218   3.797  0.00  0.00    -0.377 OA
ATOM     27  C   UNL     1       8.462  -0.717   2.479  0.00  0.00    +0.179 C 
ATOM     28  C   UNL     1       7.712   0.345   1.667  0.00  0.00    +0.136 C 
ENDBRANCH  20  21
ENDBRANCH  19  20
ENDBRANCH  16  19
TORSDOF 3
