REMARK  Name = ZINC08766265
REMARK  9 active torsions:
REMARK  status: ('A' for Active; 'I' for Inactive)
REMARK    1  A    between atoms: C_1  and  C_2
REMARK    2  A    between atoms: C_2  and  C_3
REMARK    3  A    between atoms: C_9  and  C_10
REMARK    4  A    between atoms: C_9  and  N_59
REMARK    5  A    between atoms: C_11  and  O_33
REMARK    6  A    between atoms: C_17  and  C_29
REMARK    7  A    between atoms: C_18  and  O_21
REMARK    8  A    between atoms: O_21  and  C_22
REMARK    9  A    between atoms: C_26  and  C_28
REMARK                            x       y       z     vdW  Elec       q    Type
REMARK                         _______ _______ _______ _____ _____    ______ ____
ROOT
ATOM      1  C   UNL     1       1.618   2.328  -2.171  0.00  0.00    +0.020 A 
ATOM      2  C   UNL     1       2.871   2.002  -1.679  0.00  0.00    +0.122 A 
ATOM      3  C   UNL     1       4.012   2.214  -2.450  0.00  0.00    +0.046 A 
ATOM      4  C   UNL     1       3.910   2.748  -3.703  0.00  0.00    +0.019 A 
ATOM      5  C   UNL     1       2.655   3.082  -4.212  0.00  0.00    +0.068 A 
ATOM      6  C   UNL     1       1.497   2.866  -3.444  0.00  0.00    +0.144 A 
ATOM      7  O   UNL     1       0.290   3.198  -3.944  0.00  0.00    -0.447 OA
ATOM      8  C   UNL     1       0.140   3.724  -5.167  0.00  0.00    +0.254 A 
ATOM      9  C   UNL     1       1.180   3.968  -5.989  0.00  0.00    +0.222 A 
ATOM     10  C   UNL     1       2.502   3.660  -5.559  0.00  0.00    +0.235 A 
ATOM     11  O   UNL     1       3.467   3.867  -6.275  0.00  0.00    -0.283 OA
ENDROOT
BRANCH   8  12
ATOM     12  C   UNL     1      -1.251   4.059  -5.643  0.00  0.00    +0.454 C 
ATOM     13  F   UNL     1      -1.589   3.225  -6.715  0.00  0.00    -0.163 F 
ATOM     14  F   UNL     1      -2.160   3.867  -4.597  0.00  0.00    -0.163 F 
ATOM     15  F   UNL     1      -1.293   5.394  -6.059  0.00  0.00    -0.163 F 
ENDBRANCH   8  12
BRANCH   2  16
ATOM     16  O   UNL     1       2.989   1.470  -0.436  0.00  0.00    -0.506 OA
ATOM     17  H   UNL     1       2.945   0.504  -0.415  0.00  0.00    +0.292 HD
ENDBRANCH   2  16
BRANCH   1  18
ATOM     18  C   UNL     1       0.391   2.094  -1.328  0.00  0.00    -0.035 C 
BRANCH  18  24
ATOM     19  C   UNL     1      -0.952   3.005   0.469  0.00  0.00    -0.068 C 
ATOM     20  C   UNL     1      -1.030   4.131   1.502  0.00  0.00    -0.015 C 
ATOM     21  C   UNL     1      -1.168   5.473   0.777  0.00  0.00    -0.003 C 
ATOM     22  C   UNL     1       0.021   5.657  -0.169  0.00  0.00    -0.019 C 
ATOM     23  C   UNL     1       0.069   4.487  -1.154  0.00  0.00    -0.078 C 
ATOM     24  N   UNL     1       0.227   3.228  -0.395  0.00  0.00    +0.384 N 
ATOM     25  H   UNL     1       1.064   3.297   0.195  0.00  0.00    -0.081 HD
BRANCH  19  27
ATOM     26  C   UNL     1      -2.038   1.388   2.033  0.00  0.00    +0.002 C 
ATOM     27  C   UNL     1      -0.793   1.663   1.188  0.00  0.00    -0.019 C 
ENDBRANCH  19  27
ENDBRANCH  18  24
ENDBRANCH   1  18
BRANCH   9  28
ATOM     28  O   UNL     1       0.968   4.505  -7.221  0.00  0.00    -0.448 OA
BRANCH  28  29
ATOM     29  C   UNL     1       0.762   3.655  -8.261  0.00  0.00    +0.129 A 
ATOM     30  C   UNL     1       0.778   2.283  -8.050  0.00  0.00    +0.046 A 
ATOM     31  C   UNL     1       0.564   1.421  -9.108  0.00  0.00    +0.004 A 
ATOM     32  C   UNL     1       0.344   1.923 -10.378  0.00  0.00    +0.003 A 
ATOM     33  C   UNL     1       0.333   3.289 -10.591  0.00  0.00    -0.047 A 
ATOM     34  C   UNL     1       0.542   4.156  -9.536  0.00  0.00    +0.049 A 
ATOM     35  C   UNL     1       0.094   3.833 -11.976  0.00  0.00    +0.044 C 
ENDBRANCH  28  29
ENDBRANCH   9  28
TORSDOF 7
