REMARK  Name = ZINC10353846
REMARK  10 active torsions:
REMARK  status: ('A' for Active; 'I' for Inactive)
REMARK    1  A    between atoms: C_1  and  C_2
REMARK    2  A    between atoms: C_2  and  O_3
REMARK    3  A    between atoms: O_3  and  C_4
REMARK    4  A    between atoms: C_6  and  C_11
REMARK    5  A    between atoms: C_9  and  O_10
REMARK    6  A    between atoms: C_13  and  C_30
REMARK    7  A    between atoms: C_14  and  C_29
REMARK    8  A    between atoms: N_15  and  C_19
REMARK    9  A    between atoms: C_30  and  O_32
REMARK   10  A    between atoms: O_32  and  C_33
REMARK                            x       y       z     vdW  Elec       q    Type
REMARK                         _______ _______ _______ _____ _____    ______ ____
ROOT
ATOM      1  C   UNL     1       6.050  -1.983   0.014  0.00  0.00    +0.141 C 
ATOM      2  C   UNL     1       4.742  -2.736   0.143  0.00  0.00    +0.078 C 
ATOM      3  C   UNL     1       3.596  -2.026   0.053  0.00  0.00    +0.027 C 
ATOM      4  N   UNL     1       3.619  -0.675  -0.147  0.00  0.00    -0.255 N 
ATOM      5  C   UNL     1       4.745   0.038  -0.273  0.00  0.00    +0.142 C 
ATOM      6  S   UNL     1       4.631   1.728  -0.528  0.00  0.00    -0.018 S 
ATOM      7  N   UNL     1       5.965  -0.529  -0.200  0.00  0.00    -0.315 N 
ATOM      8  C   UNL     1       2.272  -2.735   0.175  0.00  0.00    +0.062 C 
ATOM      9  H   UNL     1       6.768   0.008  -0.289  0.00  0.00    +0.149 HD
ENDROOT
BRANCH   4  10
ATOM     10  C   UNL     1       2.394   0.003  -0.230  0.00  0.00    +0.044 A 
ATOM     11  C   UNL     1       1.808   0.522   0.916  0.00  0.00    +0.027 A 
ATOM     12  C   UNL     1       0.601   1.189   0.834  0.00  0.00    +0.051 A 
ATOM     13  C   UNL     1      -0.029   1.341  -0.392  0.00  0.00    +0.162 A 
ATOM     14  C   UNL     1       0.556   0.825  -1.542  0.00  0.00    +0.164 A 
ATOM     15  C   UNL     1       1.767   0.154  -1.459  0.00  0.00    +0.073 A 
ATOM     16  O   UNL     1      -0.043   0.972  -2.755  0.00  0.00    -0.485 OA
ATOM     17  C   UNL     1      -1.431   1.320  -2.749  0.00  0.00    +0.270 C 
ATOM     18  C   UNL     1      -1.638   2.459  -1.742  0.00  0.00    +0.270 C 
ATOM     19  O   UNL     1      -1.223   1.995  -0.452  0.00  0.00    -0.485 OA
ENDBRANCH   4  10
BRANCH   1  22
ATOM     20  C   UNL     1       8.600  -3.382   2.426  0.00  0.00    +0.162 A 
ATOM     21  C   UNL     1       7.861  -3.165   1.274  0.00  0.00    +0.055 A 
ATOM     22  C   UNL     1       6.849  -2.223   1.269  0.00  0.00    -0.019 A 
ATOM     23  C   UNL     1       6.565  -1.503   2.415  0.00  0.00    +0.009 A 
ATOM     24  C   UNL     1       7.295  -1.720   3.569  0.00  0.00    +0.049 A 
ATOM     25  C   UNL     1       8.313  -2.659   3.579  0.00  0.00    +0.158 A 
BRANCH  25  26
ATOM     26  O   UNL     1       9.031  -2.873   4.714  0.00  0.00    -0.503 OA
ATOM     27  H   UNL     1       8.663  -3.558   5.289  0.00  0.00    +0.292 HD
ENDBRANCH  25  26
BRANCH  20  28
ATOM     28  O   UNL     1       9.598  -4.305   2.430  0.00  0.00    -0.489 OA
BRANCH  28  30
ATOM     29  C   UNL     1      10.988  -5.998   1.408  0.00  0.00    +0.048 C 
ATOM     30  C   UNL     1       9.836  -5.011   1.210  0.00  0.00    +0.226 C 
ENDBRANCH  28  30
ENDBRANCH  20  28
ENDBRANCH   1  22
BRANCH   2  31
ATOM     31  C   UNL     1       4.720  -4.135   0.349  0.00  0.00    +0.339 C 
ATOM     32  O   UNL     1       3.657  -4.719   0.449  0.00  0.00    -0.245 OA
BRANCH  31  33
ATOM     33  O   UNL     1       5.878  -4.822   0.435  0.00  0.00    -0.465 OA
ATOM     34  C   UNL     1       5.782  -6.233   0.644  0.00  0.00    +0.280 C 
ENDBRANCH  31  33
ENDBRANCH   2  31
TORSDOF 7
