REMARK  Name = ZINC08401587
REMARK  14 active torsions:
REMARK  status: ('A' for Active; 'I' for Inactive)
REMARK    1  A    between atoms: C_1  and  C_2
REMARK    2  A    between atoms: C_3  and  C_26
REMARK    3  A    between atoms: C_4  and  C_25
REMARK    4  A    between atoms: C_7  and  C_8
REMARK    5  A    between atoms: N_10  and  C_11
REMARK    6  A    between atoms: N_10  and  C_12
REMARK    7  A    between atoms: C_12  and  C_14
REMARK    8  A    between atoms: C_12  and  C_15
REMARK    9  A    between atoms: C_18  and  S_21
REMARK   10  A    between atoms: S_21  and  N_24
REMARK   11  A    between atoms: C_26  and  O_28
REMARK   12  A    between atoms: O_28  and  C_29
REMARK   13  A    between atoms: C_29  and  C_30
REMARK   14  A    between atoms: C_29  and  C_31
REMARK                            x       y       z     vdW  Elec       q    Type
REMARK                         _______ _______ _______ _____ _____    ______ ____
ROOT
ATOM      1  C   UNL     1      -4.116   1.136  -1.789  0.00  0.00    +0.263 C 
ATOM      2  O   UNL     1      -4.028  -0.066  -1.963  0.00  0.00    -0.268 OA
ATOM      3  N   UNL     1      -3.399   1.729  -0.814  0.00  0.00    -0.293 N 
ATOM      4  C   UNL     1      -3.597   3.151  -0.522  0.00  0.00    +0.133 C 
ENDROOT
BRANCH   1  11
ATOM      5  C   UNL     1      -3.184   3.065  -4.056  0.00  0.00    +0.047 C 
ATOM      6  C   UNL     1      -4.603   2.784  -3.634  0.00  0.00    -0.006 A 
ATOM      7  C   UNL     1      -5.774   3.345  -4.194  0.00  0.00    +0.083 A 
ATOM      8  C   UNL     1      -6.848   2.815  -3.502  0.00  0.00    +0.028 A 
ATOM      9  N   UNL     1      -6.377   1.970  -2.571  0.00  0.00    -0.354 N 
ATOM     10  H   UNL     1      -7.075   1.439  -1.908  0.00  0.00    +0.166 HD
ATOM     11  C   UNL     1      -5.002   1.938  -2.642  0.00  0.00    +0.106 A 
ATOM     12  C   UNL     1      -8.300   3.131  -3.752  0.00  0.00    +0.064 C 
BRANCH   7  13
ATOM     13  C   UNL     1      -5.838   4.314  -5.300  0.00  0.00    +0.341 C 
ATOM     14  O   UNL     1      -5.811   5.507  -5.065  0.00  0.00    -0.245 OA
BRANCH  13  15
ATOM     15  O   UNL     1      -5.926   3.880  -6.572  0.00  0.00    -0.458 OA
BRANCH  15  16
ATOM     16  C   UNL     1      -5.984   4.892  -7.612  0.00  0.00    +0.171 C 
ATOM     17  C   UNL     1      -4.566   5.234  -8.072  0.00  0.00    +0.052 C 
ATOM     18  C   UNL     1      -6.791   4.359  -8.798  0.00  0.00    +0.052 C 
ENDBRANCH  15  16
ENDBRANCH  13  15
ENDBRANCH   7  13
ENDBRANCH   1  11
BRANCH   3  19
ATOM     19  C   UNL     1      -2.423   0.952  -0.047  0.00  0.00    +0.103 C 
ATOM     20  C   UNL     1      -2.726   1.085   1.447  0.00  0.00    +0.033 C 
BRANCH  19  21
ATOM     21  C   UNL     1      -1.036   1.472  -0.326  0.00  0.00    -0.027 A 
ATOM     22  C   UNL     1      -0.065   0.622  -0.820  0.00  0.00    +0.007 A 
ATOM     23  C   UNL     1       1.205   1.100  -1.081  0.00  0.00    +0.029 A 
ATOM     24  C   UNL     1       1.506   2.428  -0.843  0.00  0.00    +0.105 A 
ATOM     25  C   UNL     1       0.536   3.278  -0.344  0.00  0.00    +0.029 A 
ATOM     26  C   UNL     1      -0.734   2.799  -0.082  0.00  0.00    +0.007 A 
BRANCH  24  27
ATOM     27  S   UNL     1       3.125   3.038  -1.177  0.00  0.00    +0.056 S 
ATOM     28  O   UNL     1       3.304   4.185  -0.356  0.00  0.00    -0.153 OA
ATOM     29  O   UNL     1       4.000   1.919  -1.123  0.00  0.00    -0.153 OA
BRANCH  27  30
ATOM     30  N   UNL     1       3.134   3.572  -2.744  0.00  0.00    -0.204 NA
ATOM     31  H   UNL     1       4.132   3.962  -2.993  0.00  0.00    +0.144 HD
ATOM     32  H   UNL     1       2.387   4.370  -2.864  0.00  0.00    +0.144 HD
ENDBRANCH  27  30
ENDBRANCH  24  27
ENDBRANCH  19  21
ENDBRANCH   3  19
TORSDOF 8
