REMARK  Name = ZINC00687112
REMARK  9 active torsions:
REMARK  status: ('A' for Active; 'I' for Inactive)
REMARK    1  A    between atoms: C_1  and  C_2
REMARK    2  A    between atoms: C_2  and  C_4
REMARK    3  A    between atoms: C_2  and  N_19
REMARK    4  A    between atoms: N_6  and  N_7
REMARK    5  A    between atoms: C_8  and  C_9
REMARK    6  A    between atoms: C_13  and  O_16
REMARK    7  A    between atoms: C_14  and  O_15
REMARK    8  A    between atoms: O_16  and  C_17
REMARK    9  A    between atoms: N_19  and  C_20
REMARK                            x       y       z     vdW  Elec       q    Type
REMARK                         _______ _______ _______ _____ _____    ______ ____
ROOT
ATOM      1  C   UNL     1      -1.412  -0.526   0.013  0.00  0.00    +0.252 C 
ATOM      2  O   UNL     1      -1.790  -1.233   0.922  0.00  0.00    -0.272 OA
ATOM      3  N   UNL     1      -2.256  -0.206  -0.988  0.00  0.00    -0.205 N 
ATOM      4  H   UNL     1      -1.953   0.360  -1.716  0.00  0.00    +0.177 HD
ENDROOT
BRANCH   1   6
ATOM      5  C   UNL     1      -0.019   1.526   0.010  0.00  0.00    +0.038 C 
ATOM      6  C   UNL     1       0.002  -0.004   0.002  0.00  0.00    +0.155 C 
BRANCH   6   7
ATOM      7  N   UNL     1       0.711  -0.489   1.189  0.00  0.00    -0.333 N 
ATOM      8  H   UNL     1       0.213  -0.731   1.986  0.00  0.00    +0.147 HD
BRANCH   7   9
ATOM      9  C   UNL     1       2.103  -0.604   1.173  0.00  0.00    +0.028 A 
ATOM     10  C   UNL     1       2.817  -0.253   0.035  0.00  0.00    +0.024 A 
ATOM     11  C   UNL     1       4.194  -0.367   0.022  0.00  0.00    +0.017 A 
ATOM     12  C   UNL     1       4.861  -0.831   1.142  0.00  0.00    +0.018 A 
ATOM     13  C   UNL     1       4.152  -1.182   2.277  0.00  0.00    +0.017 A 
ATOM     14  C   UNL     1       2.776  -1.064   2.298  0.00  0.00    +0.024 A 
ATOM     15 BR   UNL     1       6.745  -0.987   1.120  0.00  0.00    -0.050 Br
ENDBRANCH   7   9
ENDBRANCH   6   7
ENDBRANCH   1   6
BRANCH   3  16
ATOM     16  N   UNL     1      -3.570  -0.691  -0.978  0.00  0.00    -0.188 NA
ATOM     17  C   UNL     1      -4.383  -0.383  -1.942  0.00  0.00    +0.142 C 
BRANCH  17  18
ATOM     18  C   UNL     1      -5.765  -0.893  -1.932  0.00  0.00    +0.041 A 
ATOM     19  C   UNL     1      -6.641  -0.568  -2.972  0.00  0.00    +0.033 A 
ATOM     20  C   UNL     1      -7.935  -1.048  -2.958  0.00  0.00    +0.045 A 
ATOM     21  C   UNL     1      -8.371  -1.852  -1.918  0.00  0.00    +0.069 A 
ATOM     22  C   UNL     1      -7.513  -2.182  -0.881  0.00  0.00    +0.163 A 
ATOM     23  C   UNL     1      -6.205  -1.710  -0.884  0.00  0.00    +0.167 A 
ATOM     24 CL   UNL     1      -9.020  -0.643  -4.251  0.00  0.00    -0.083 Cl
BRANCH  23  25
ATOM     25  O   UNL     1      -5.360  -2.036   0.129  0.00  0.00    -0.503 OA
ATOM     26  H   UNL     1      -5.375  -1.415   0.870  0.00  0.00    +0.292 HD
ENDBRANCH  23  25
BRANCH  22  27
ATOM     27  O   UNL     1      -7.948  -2.971   0.138  0.00  0.00    -0.491 OA
ATOM     28  C   UNL     1      -9.302  -3.425   0.073  0.00  0.00    +0.277 C 
ENDBRANCH  22  27
ENDBRANCH  17  18
ENDBRANCH   3  16
TORSDOF 7
