REMARK  Name = ZINC12186187
REMARK  7 active torsions:
REMARK  status: ('A' for Active; 'I' for Inactive)
REMARK    1  A    between atoms: C_1  and  C_2
REMARK    2  A    between atoms: C_5  and  C_20
REMARK    3  A    between atoms: N_11  and  C_13
REMARK    4  A    between atoms: C_20  and  N_51
REMARK    5  A    between atoms: C_21  and  C_22
REMARK    6  A    between atoms: C_21  and  N_51
REMARK    7  A    between atoms: C_22  and  C_23
REMARK                            x       y       z     vdW  Elec       q    Type
REMARK                         _______ _______ _______ _____ _____    ______ ____
ROOT
ATOM      1  C   UNL     1      11.837  -5.467   3.092  0.00  0.00    +0.068 C 
ATOM      2  C   UNL     1      12.277  -4.030   2.976  0.00  0.00    +0.070 A 
ATOM      3  C   UNL     1      11.522  -2.975   2.413  0.00  0.00    +0.040 A 
ATOM      4  C   UNL     1      10.235  -2.905   1.832  0.00  0.00    +0.020 A 
ATOM      5  C   UNL     1       9.783  -1.710   1.367  0.00  0.00    +0.001 A 
ATOM      6  C   UNL     1      10.589  -0.562   1.477  0.00  0.00    +0.252 A 
ATOM      7  O   UNL     1      10.175   0.507   1.061  0.00  0.00    -0.268 OA
ATOM      8  N   UNL     1      11.813  -0.629   2.034  0.00  0.00    -0.307 N 
ATOM      9  H   UNL     1      12.356   0.172   2.101  0.00  0.00    +0.170 HD
ATOM     10  C   UNL     1      12.299  -1.818   2.507  0.00  0.00    +0.145 A 
ATOM     11  N   UNL     1      13.467  -2.176   3.102  0.00  0.00    -0.216 N 
ATOM     12  N   UNL     1      13.419  -3.547   3.378  0.00  0.00    -0.169 NA
ENDROOT
BRANCH  11  13
ATOM     13  C   UNL     1      14.537  -1.317   3.390  0.00  0.00    +0.068 A 
ATOM     14  C   UNL     1      14.844  -0.275   2.526  0.00  0.00    +0.030 A 
ATOM     15  C   UNL     1      15.896   0.573   2.815  0.00  0.00    +0.040 A 
ATOM     16  C   UNL     1      16.650   0.377   3.959  0.00  0.00    +0.124 A 
ATOM     17  C   UNL     1      16.349  -0.665   4.820  0.00  0.00    +0.040 A 
ATOM     18  C   UNL     1      15.295  -1.512   4.537  0.00  0.00    +0.030 A 
ATOM     19  F   UNL     1      17.682   1.204   4.237  0.00  0.00    -0.205 F 
ENDBRANCH  11  13
BRANCH   5  20
ATOM     20  C   UNL     1       8.416  -1.613   0.741  0.00  0.00    -0.041 C 
BRANCH  20  21
ATOM     21  N   UNL     1       7.442  -1.194   1.766  0.00  0.00    +0.382 N 
ATOM     22  H   UNL     1       7.719  -0.280   2.142  0.00  0.00    -0.085 HD
ATOM     23  H   UNL     1       7.430  -1.886   2.525  0.00  0.00    -0.085 HD
BRANCH  21  24
ATOM     24  C   UNL     1       6.093  -1.091   1.180  0.00  0.00    -0.077 C 
BRANCH  24  25
ATOM     25  C   UNL     1       5.107  -0.655   2.265  0.00  0.00    +0.016 C 
BRANCH  25  26
ATOM     26  C   UNL     1       3.725  -0.548   1.674  0.00  0.00    -0.045 A 
ATOM     27  C   UNL     1       2.885  -1.646   1.677  0.00  0.00    +0.007 A 
ATOM     28  C   UNL     1       1.617  -1.553   1.135  0.00  0.00    +0.050 A 
ATOM     29  C   UNL     1       1.183  -0.356   0.589  0.00  0.00    +0.166 A 
ATOM     30  C   UNL     1       2.028   0.751   0.586  0.00  0.00    +0.166 A 
ATOM     31  C   UNL     1       3.299   0.650   1.130  0.00  0.00    +0.053 A 
ATOM     32  O   UNL     1       1.376   1.797  -0.001  0.00  0.00    -0.453 OA
ATOM     33  C   UNL     1      -0.018   1.436   0.010  0.00  0.00    +0.466 C 
ATOM     34  O   UNL     1       0.002  -0.004   0.002  0.00  0.00    -0.453 OA
ENDBRANCH  25  26
ENDBRANCH  24  25
ENDBRANCH  21  24
ENDBRANCH  20  21
ENDBRANCH   5  20
TORSDOF 6
