REMARK  Name = ZINC35678978
REMARK  5 active torsions:
REMARK  status: ('A' for Active; 'I' for Inactive)
REMARK    1  A    between atoms: C_3  and  N_8
REMARK    2  A    between atoms: N_8  and  S_9
REMARK    3  A    between atoms: S_9  and  C_12
REMARK    4  A    between atoms: C_15  and  O_21
REMARK    5  A    between atoms: C_16  and  N_18
REMARK                            x       y       z     vdW  Elec       q    Type
REMARK                         _______ _______ _______ _____ _____    ______ ____
ROOT
ATOM      1  S   UNL     1       5.009   1.141  -0.040  0.00  0.00    +0.093 S 
ATOM      2  O   UNL     1       5.082   0.452   1.201  0.00  0.00    -0.148 OA
ATOM      3  O   UNL     1       5.058   0.466  -1.289  0.00  0.00    -0.148 OA
ENDROOT
BRANCH   1   4
ATOM      4  C   UNL     1       6.328   2.309  -0.046  0.00  0.00    +0.113 A 
ATOM      5  C   UNL     1       6.830   2.777  -1.247  0.00  0.00    +0.032 A 
ATOM      6  C   UNL     1       7.864   3.693  -1.254  0.00  0.00    +0.049 A 
ATOM      7  C   UNL     1       8.399   4.143  -0.056  0.00  0.00    +0.147 A 
ATOM      8  C   UNL     1       7.894   3.672   1.147  0.00  0.00    +0.169 A 
ATOM      9  C   UNL     1       6.856   2.760   1.149  0.00  0.00    +0.065 A 
BRANCH   8  10
ATOM     10  N   UNL     1       8.463   4.150   2.427  0.00  0.00    +0.060 N 
ATOM     11  O   UNL     1       8.022   3.739   3.475  0.00  0.00    -0.126 OA
ATOM     12  O   UNL     1       9.368   4.951   2.425  0.00  0.00    -0.126 OA
ENDBRANCH   8  10
BRANCH   7  13
ATOM     13  O   UNL     1       9.417   5.043  -0.061  0.00  0.00    -0.504 OA
ATOM     14  H   UNL     1       9.126   5.966  -0.049  0.00  0.00    +0.292 HD
ENDBRANCH   7  13
ENDBRANCH   1   4
BRANCH   1  15
ATOM     15  N   UNL     1       3.594   2.000  -0.021  0.00  0.00    -0.078 NA
BRANCH  15  18
ATOM     16  C   UNL     1      -0.017   1.384   0.010  0.00  0.00    +0.006 A 
ATOM     17  C   UNL     1       1.190   2.061   0.002  0.00  0.00    +0.047 A 
ATOM     18  C   UNL     1       2.375   1.333  -0.013  0.00  0.00    +0.164 A 
ATOM     19  N   UNL     1       2.352   0.008  -0.021  0.00  0.00    -0.222 NA
ATOM     20  C   UNL     1       1.216  -0.664  -0.014  0.00  0.00    +0.108 A 
ATOM     21  C   UNL     1       0.002  -0.004   0.002  0.00  0.00    +0.035 A 
ATOM     22 BR   UNL     1       1.250  -2.555  -0.025  0.00  0.00    -0.029 Br
ENDBRANCH  15  18
ENDBRANCH   1  15
TORSDOF 5
