REMARK  Name = ZINC40387112
REMARK  7 active torsions:
REMARK  status: ('A' for Active; 'I' for Inactive)
REMARK    1  A    between atoms: C_1  and  C_2
REMARK    2  A    between atoms: C_7  and  N_12
REMARK    3  A    between atoms: C_9  and  C_11
REMARK    4  A    between atoms: N_18  and  S_19
REMARK    5  A    between atoms: S_19  and  C_22
REMARK    6  A    between atoms: C_25  and  O_28
REMARK    7  A    between atoms: O_28  and  C_29
REMARK                            x       y       z     vdW  Elec       q    Type
REMARK                         _______ _______ _______ _____ _____    ______ ____
ROOT
ATOM      1  N   UNL     1       2.888  -0.468   2.421  0.00  0.00    -0.268 NA
ATOM      2  C   UNL     1       2.175  -0.091   3.651  0.00  0.00    +0.193 C 
ATOM      3  N   UNL     1       2.911  -0.629   4.808  0.00  0.00    -0.303 N 
ATOM      4  C   UNL     1       4.279  -0.397   4.848  0.00  0.00    +0.202 C 
ATOM      5  N   UNL     1       4.947  -0.519   3.637  0.00  0.00    -0.303 N 
ATOM      6  C   UNL     1       4.275   0.023   2.444  0.00  0.00    +0.193 C 
ATOM      7  N   UNL     1       4.897  -0.084   5.952  0.00  0.00    -0.097 NA
ATOM      8  H   UNL     1       2.460  -1.123   5.510  0.00  0.00    +0.150 HD
ATOM      9  H   UNL     1       5.818  -0.942   3.579  0.00  0.00    +0.150 HD
ENDROOT
BRANCH   1  15
ATOM     10  C   UNL     1      -0.019   1.526   0.010  0.00  0.00    +0.008 C 
ATOM     11  C   UNL     1       0.002  -0.004   0.002  0.00  0.00    -0.010 C 
ATOM     12  C   UNL     1       0.718  -0.497  -1.257  0.00  0.00    +0.003 C 
ATOM     13  C   UNL     1       2.154   0.032  -1.268  0.00  0.00    +0.002 C 
ATOM     14  C   UNL     1       2.894  -0.475  -0.028  0.00  0.00    +0.019 C 
ATOM     15  C   UNL     1       2.178   0.019   1.231  0.00  0.00    +0.063 C 
ATOM     16  C   UNL     1       0.742  -0.511   1.242  0.00  0.00    +0.006 C 
ATOM     17  C   UNL     1       0.763  -2.041   1.233  0.00  0.00    +0.009 C 
ENDBRANCH   1  15
BRANCH   7  18
ATOM     18  S   UNL     1       6.531   0.181   5.939  0.00  0.00    +0.102 S 
ATOM     19  O   UNL     1       7.143  -1.063   5.626  0.00  0.00    -0.146 OA
ATOM     20  O   UNL     1       6.747   1.352   5.164  0.00  0.00    -0.146 OA
BRANCH  18  21
ATOM     21  C   UNL     1       7.008   0.575   7.589  0.00  0.00    +0.113 A 
ATOM     22  C   UNL     1       6.998   1.891   8.015  0.00  0.00    +0.032 A 
ATOM     23  C   UNL     1       7.372   2.202   9.308  0.00  0.00    +0.047 A 
ATOM     24  C   UNL     1       7.756   1.194  10.180  0.00  0.00    +0.120 A 
ATOM     25  C   UNL     1       7.764  -0.125   9.751  0.00  0.00    +0.047 A 
ATOM     26  C   UNL     1       7.385  -0.432   8.458  0.00  0.00    +0.032 A 
BRANCH  24  27
ATOM     27  O   UNL     1       8.124   1.498  11.452  0.00  0.00    -0.495 OA
ATOM     28  C   UNL     1       8.508   0.409  12.294  0.00  0.00    +0.277 C 
ENDBRANCH  24  27
ENDBRANCH  18  21
ENDBRANCH   7  18
TORSDOF 4
