REMARK  Name = ZINC58356485
REMARK  10 active torsions:
REMARK  status: ('A' for Active; 'I' for Inactive)
REMARK    1  A    between atoms: C_1  and  C_2
REMARK    2  A    between atoms: C_2  and  C_3
REMARK    3  A    between atoms: C_2  and  C_4
REMARK    4  A    between atoms: C_4  and  C_5
REMARK    5  A    between atoms: N_7  and  C_8
REMARK    6  A    between atoms: C_8  and  C_10
REMARK    7  A    between atoms: C_8  and  C_13
REMARK    8  A    between atoms: C_10  and  C_11
REMARK    9  A    between atoms: C_10  and  C_12
REMARK   10  A    between atoms: N_15  and  C_16
REMARK                            x       y       z     vdW  Elec       q    Type
REMARK                         _______ _______ _______ _____ _____    ______ ____
ROOT
ATOM      1  C   UNL     1       5.398  -0.438  -3.378  0.00  0.00    +0.238 C 
ATOM      2  O   UNL     1       4.791  -0.932  -4.305  0.00  0.00    -0.273 OA
ATOM      3  N   UNL     1       6.578   0.175  -3.596  0.00  0.00    -0.284 N 
ATOM      4  H   UNL     1       7.019   0.650  -2.874  0.00  0.00    +0.155 HD
ENDROOT
BRANCH   3   5
ATOM      5  C   UNL     1       7.169   0.127  -4.865  0.00  0.00    +0.034 A 
ATOM      6  C   UNL     1       6.367   0.132  -6.005  0.00  0.00    +0.027 A 
ATOM      7  C   UNL     1       6.933   0.085  -7.260  0.00  0.00    +0.049 A 
ATOM      8  C   UNL     1       8.314   0.032  -7.400  0.00  0.00    +0.139 A 
ATOM      9  C   UNL     1       9.127   0.027  -6.253  0.00  0.00    +0.019 A 
ATOM     10  C   UNL     1       8.546   0.080  -4.983  0.00  0.00    +0.035 A 
ATOM     11  C   UNL     1      10.584  -0.029  -6.414  0.00  0.00    +0.018 A 
ATOM     12  C   UNL     1      11.088  -0.074  -7.673  0.00  0.00    +0.092 A 
ATOM     13  C   UNL     1      10.213  -0.065  -8.780  0.00  0.00    +0.337 A 
ATOM     14  O   UNL     1      10.678  -0.106  -9.905  0.00  0.00    -0.245 OA
ATOM     15  O   UNL     1       8.881  -0.014  -8.625  0.00  0.00    -0.422 OA
ENDBRANCH   3   5
BRANCH   1  16
ATOM     16  C   UNL     1       4.832  -0.510  -1.983  0.00  0.00    +0.162 C 
BRANCH  16  19
ATOM     17  C   UNL     1       2.617  -0.197  -1.018  0.00  0.00    +0.214 C 
ATOM     18  O   UNL     1       3.145   0.264  -0.029  0.00  0.00    -0.276 OA
ATOM     19  N   UNL     1       3.373  -0.614  -2.053  0.00  0.00    -0.304 N 
ATOM     20  H   UNL     1       2.950  -0.983  -2.845  0.00  0.00    +0.149 HD
BRANCH  17  21
ATOM     21  C   UNL     1       1.115  -0.304  -1.090  0.00  0.00    +0.098 C 
BRANCH  21  23
ATOM     22  C   UNL     1       0.797   1.731   0.325  0.00  0.00    +0.008 C 
ATOM     23  C   UNL     1       0.503   0.234   0.205  0.00  0.00    -0.008 C 
ATOM     24  C   UNL     1      -1.010   0.011   0.184  0.00  0.00    +0.008 C 
ENDBRANCH  21  23
ENDBRANCH  17  21
ENDBRANCH  16  19
BRANCH  16  25
ATOM     25  C   UNL     1       5.397  -1.739  -1.267  0.00  0.00    +0.012 C 
ATOM     26  C   UNL     1       4.955  -1.722   0.198  0.00  0.00    +0.009 C 
ATOM     27  C   UNL     1       4.876  -3.008  -1.943  0.00  0.00    +0.009 C 
ENDBRANCH  16  25
ENDBRANCH   1  16
TORSDOF 6
