REMARK  Name = ZINC04246373
REMARK  8 active torsions:
REMARK  status: ('A' for Active; 'I' for Inactive)
REMARK    1  A    between atoms: C_1  and  C_2
REMARK    2  A    between atoms: C_4  and  C_23
REMARK    3  A    between atoms: C_6  and  N_8
REMARK    4  A    between atoms: C_9  and  C_11
REMARK    5  A    between atoms: C_11  and  O_12
REMARK    6  A    between atoms: O_12  and  C_13
REMARK    7  A    between atoms: C_13  and  C_15
REMARK    8  A    between atoms: C_20  and  N_21
REMARK                            x       y       z     vdW  Elec       q    Type
REMARK                         _______ _______ _______ _____ _____    ______ ____
ROOT
ATOM      1  C   UNL     1       3.656   6.021   0.095  0.00  0.00    +0.328 C 
ENDROOT
BRANCH   1   3
ATOM      2  N   UNL     1       4.469   8.352   0.251  0.00  0.00    -0.283 N 
ATOM      3  C   UNL     1       3.422   7.502   0.241  0.00  0.00    +0.255 C 
ATOM      4  O   UNL     1       2.293   7.930   0.349  0.00  0.00    -0.272 OA
ATOM      5  H   UNL     1       5.367   8.017   0.101  0.00  0.00    +0.155 HD
BRANCH   2  11
ATOM      6  C   UNL     1       6.006  12.605   2.180  0.00  0.00    +0.044 C 
ATOM      7  C   UNL     1       4.988  11.802   1.411  0.00  0.00    -0.048 A 
ATOM      8  C   UNL     1       3.846  12.415   0.929  0.00  0.00    +0.006 A 
ATOM      9  C   UNL     1       2.910  11.682   0.223  0.00  0.00    -0.048 A 
ATOM     10  C   UNL     1       3.114  10.335  -0.004  0.00  0.00    +0.026 A 
ATOM     11  C   UNL     1       4.259   9.716   0.479  0.00  0.00    +0.034 A 
ATOM     12  C   UNL     1       5.194  10.454   1.194  0.00  0.00    +0.026 A 
ATOM     13  C   UNL     1       1.667  12.354  -0.301  0.00  0.00    +0.044 C 
ENDBRANCH   2  11
ENDBRANCH   1   3
BRANCH   1  14
ATOM     14  O   UNL     1       2.382   5.325   0.113  0.00  0.00    -0.452 OA
BRANCH  14  15
ATOM     15  C   UNL     1       2.415   3.983  -0.008  0.00  0.00    +0.341 C 
ATOM     16  O   UNL     1       3.481   3.410  -0.125  0.00  0.00    -0.245 OA
BRANCH  15  17
ATOM     17  C   UNL     1       1.161   3.212   0.001  0.00  0.00    +0.081 A 
ATOM     18  C   UNL     1      -0.071   3.872   0.016  0.00  0.00    +0.032 A 
ATOM     19  C   UNL     1      -1.241   3.144   0.024  0.00  0.00    +0.019 A 
ATOM     20  C   UNL     1      -1.204   1.758   0.012  0.00  0.00    +0.017 A 
ATOM     21  C   UNL     1       0.004   1.092   0.003  0.00  0.00    +0.024 A 
ATOM     22  C   UNL     1       1.195   1.808  -0.006  0.00  0.00    +0.039 A 
ATOM     23 BR   UNL     1      -2.906   4.040   0.044  0.00  0.00    -0.050 Br
BRANCH  22  24
ATOM     24  N   UNL     1       2.412   1.140  -0.021  0.00  0.00    -0.357 N 
ATOM     25  H   UNL     1       2.466   0.240  -0.379  0.00  0.00    +0.142 HD
ATOM     26  H   UNL     1       3.207   1.572   0.327  0.00  0.00    +0.142 HD
ENDBRANCH  22  24
ENDBRANCH  15  17
ENDBRANCH  14  15
ENDBRANCH   1  14
TORSDOF 6
