REMARK  Name = ZINC25693009
REMARK  6 active torsions:
REMARK  status: ('A' for Active; 'I' for Inactive)
REMARK    1  A    between atoms: C_3  and  O_21
REMARK    2  A    between atoms: C_6  and  N_7
REMARK    3  A    between atoms: N_8  and  C_9
REMARK    4  A    between atoms: C_18  and  O_19
REMARK    5  A    between atoms: O_21  and  C_22
REMARK    6  A    between atoms: C_22  and  C_23
REMARK                            x       y       z     vdW  Elec       q    Type
REMARK                         _______ _______ _______ _____ _____    ______ ____
ROOT
ATOM      1  N   UNL     1      -1.170  -0.705   0.010  0.00  0.00    -0.149 NA
ATOM      2  N   UNL     1      -1.150  -1.995   0.003  0.00  0.00    -0.146 NA
ENDROOT
BRANCH   2   3
ATOM      3  C   UNL     1      -2.320  -2.695   0.011  0.00  0.00    +0.128 A 
ATOM      4  C   UNL     1      -3.548  -2.006   0.021  0.00  0.00    +0.034 A 
ATOM      5  C   UNL     1      -4.724  -2.680   0.029  0.00  0.00    +0.011 A 
ATOM      6  C   UNL     1      -4.735  -4.088   0.027  0.00  0.00    -0.013 A 
ATOM      7  C   UNL     1      -5.944  -4.802   0.035  0.00  0.00    +0.024 A 
ATOM      8  C   UNL     1      -5.924  -6.165   0.033  0.00  0.00    +0.018 A 
ATOM      9  C   UNL     1      -4.718  -6.864   0.023  0.00  0.00    +0.016 A 
ATOM     10  C   UNL     1      -3.527  -6.205   0.015  0.00  0.00    +0.013 A 
ATOM     11  C   UNL     1      -3.510  -4.800   0.017  0.00  0.00    +0.026 A 
ATOM     12  C   UNL     1      -2.294  -4.088   0.003  0.00  0.00    +0.152 A 
ATOM     13 BR   UNL     1      -7.556  -7.120   0.044  0.00  0.00    -0.050 Br
BRANCH  12  14
ATOM     14  O   UNL     1      -1.112  -4.752  -0.012  0.00  0.00    -0.504 OA
ATOM     15  H   UNL     1      -0.760  -4.949   0.867  0.00  0.00    +0.292 HD
ENDBRANCH  12  14
ENDBRANCH   2   3
BRANCH   1  21
ATOM     16  C   UNL     1      -0.017   1.394   0.010  0.00  0.00    +0.033 A 
ATOM     17  C   UNL     1       1.168   2.097   0.002  0.00  0.00    +0.048 A 
ATOM     18  C   UNL     1       2.380   1.419  -0.013  0.00  0.00    +0.121 A 
ATOM     19  C   UNL     1       2.404   0.029  -0.021  0.00  0.00    +0.048 A 
ATOM     20  C   UNL     1       1.225  -0.682  -0.014  0.00  0.00    +0.033 A 
ATOM     21  C   UNL     1       0.002  -0.004   0.002  0.00  0.00    +0.086 A 
BRANCH  18  22
ATOM     22  O   UNL     1       3.546   2.116  -0.020  0.00  0.00    -0.481 OA
BRANCH  22  23
ATOM     23  C   UNL     1       4.756   1.356  -0.036  0.00  0.00    +0.353 C 
BRANCH  23  24
ATOM     24  C   UNL     1       5.937   2.292  -0.042  0.00  0.00    +0.393 C 
ATOM     25  O   UNL     1       5.759   3.498  -0.034  0.00  0.00    -0.243 OA
ATOM     26  O   UNL     1       7.071   1.844  -0.056  0.00  0.00    -0.243 OA
ENDBRANCH  23  24
ENDBRANCH  22  23
ENDBRANCH  18  22
ENDBRANCH   1  21
TORSDOF 6
