REMARK  Name = ZINC01814125
REMARK  4 active torsions:
REMARK  status: ('A' for Active; 'I' for Inactive)
REMARK    1  A    between atoms: C_1  and  C_2
REMARK    2  A    between atoms: C_5  and  C_8
REMARK    3  A    between atoms: N_9  and  N_10
REMARK    4  A    between atoms: C_15  and  N_53
REMARK                            x       y       z     vdW  Elec       q    Type
REMARK                         _______ _______ _______ _____ _____    ______ ____
ROOT
ATOM      1  N   UNL     1      -1.718   6.218   3.636  0.00  0.00    -0.259 N 
ATOM      2  C   UNL     1      -2.325   6.729   2.397  0.00  0.00    +0.107 C 
ATOM      3  C   UNL     1      -1.784   5.914   1.218  0.00  0.00    -0.057 C 
ATOM      4  C   UNL     1       0.204   5.291   2.458  0.00  0.00    -0.057 C 
ATOM      5  C   UNL     1      -0.255   6.081   3.688  0.00  0.00    +0.107 C 
ATOM      6  N   UNL     1      -0.306   5.964   1.244  0.00  0.00    +0.389 N 
ATOM      7  H   UNL     1      -0.007   6.946   1.256  0.00  0.00    -0.080 HD
ENDROOT
BRANCH   6   8
ATOM      8  C   UNL     1       0.241   5.310   0.037  0.00  0.00    -0.005 C 
ATOM      9  C   UNL     1      -0.039   3.828   0.042  0.00  0.00    -0.049 A 
ATOM     10  C   UNL     1      -1.215   3.108   0.052  0.00  0.00    +0.003 A 
ATOM     11  C   UNL     1      -1.181   1.724   0.050  0.00  0.00    +0.000 A 
ATOM     12  C   UNL     1       0.033   1.061   0.048  0.00  0.00    +0.001 A 
ATOM     13  C   UNL     1       1.215   1.773   0.037  0.00  0.00    +0.009 A 
ATOM     14  C   UNL     1       1.188   3.169   0.035  0.00  0.00    -0.016 A 
ATOM     15  C   UNL     1       2.285   4.168   0.024  0.00  0.00    -0.016 A 
ATOM     16  C   UNL     1       1.744   5.451   0.025  0.00  0.00    -0.049 A 
ATOM     17  C   UNL     1       2.570   6.554   0.017  0.00  0.00    +0.003 A 
ATOM     18  C   UNL     1       3.944   6.390   0.006  0.00  0.00    +0.000 A 
ATOM     19  C   UNL     1       4.491   5.120   0.005  0.00  0.00    +0.001 A 
ATOM     20  C   UNL     1       3.672   4.010   0.015  0.00  0.00    +0.009 A 
ENDBRANCH   6   8
BRANCH   1  22
ATOM     21  C   UNL     1      -3.790   6.100   4.712  0.00  0.00    +0.138 C 
ATOM     22  N   UNL     1      -2.513   5.872   4.736  0.00  0.00    -0.192 NA
BRANCH  21  27
ATOM     23  C   UNL     1      -6.986   5.067   9.380  0.00  0.00    +0.044 C 
ATOM     24  C   UNL     1      -6.148   5.338   8.157  0.00  0.00    -0.050 A 
ATOM     25  C   UNL     1      -6.745   5.830   7.010  0.00  0.00    +0.004 A 
ATOM     26  C   UNL     1      -5.984   6.080   5.886  0.00  0.00    +0.010 A 
ATOM     27  C   UNL     1      -4.609   5.836   5.909  0.00  0.00    -0.005 A 
ATOM     28  C   UNL     1      -4.015   5.334   7.069  0.00  0.00    +0.010 A 
ATOM     29  C   UNL     1      -4.787   5.093   8.187  0.00  0.00    +0.004 A 
ENDBRANCH  21  27
ENDBRANCH   1  22
TORSDOF 3
