REMARK  Name = ZINC40256746
REMARK  8 active torsions:
REMARK  status: ('A' for Active; 'I' for Inactive)
REMARK    1  A    between atoms: C_2  and  C_3
REMARK    2  A    between atoms: C_3  and  C_4
REMARK    3  A    between atoms: C_9  and  O_10
REMARK    4  A    between atoms: O_10  and  C_11
REMARK    5  A    between atoms: C_11  and  C_12
REMARK    6  A    between atoms: C_12  and  N_13
REMARK    7  A    between atoms: C_21  and  C_22
REMARK    8  A    between atoms: N_27  and  C_29
REMARK                            x       y       z     vdW  Elec       q    Type
REMARK                         _______ _______ _______ _____ _____    ______ ____
ROOT
ATOM      1  N   UNL     1       1.698  -6.242   1.576  0.00  0.00    -0.324 N 
ATOM      2  C   UNL     1       1.076  -7.418   1.948  0.00  0.00    +0.069 A 
ATOM      3  C   UNL     1      -0.202  -7.739   2.385  0.00  0.00    +0.028 A 
ATOM      4  C   UNL     1      -0.511  -9.049   2.684  0.00  0.00    +0.002 A 
ATOM      5  C   UNL     1       0.445 -10.046   2.551  0.00  0.00    +0.002 A 
ATOM      6  C   UNL     1       1.708  -9.748   2.123  0.00  0.00    +0.030 A 
ATOM      7  C   UNL     1       2.044  -8.427   1.813  0.00  0.00    +0.089 A 
ATOM      8  N   UNL     1       3.182  -7.829   1.375  0.00  0.00    -0.232 NA
ATOM      9  C   UNL     1       2.977  -6.552   1.231  0.00  0.00    +0.116 A 
ENDROOT
BRANCH   9  10
ATOM     10  C   UNL     1       4.007  -5.561   0.755  0.00  0.00    +0.082 C 
ATOM     11  C   UNL     1       4.585  -5.979  -0.616  0.00  0.00    +0.109 C 
ATOM     12  C   UNL     1       6.047  -5.596  -0.535  0.00  0.00    +0.221 C 
ATOM     13  O   UNL     1       6.793  -5.496  -1.486  0.00  0.00    -0.275 OA
ATOM     14  N   UNL     1       6.398  -5.382   0.745  0.00  0.00    -0.271 N 
ATOM     15  C   UNL     1       5.264  -5.595   1.652  0.00  0.00    +0.125 C 
BRANCH  14  16
ATOM     16  C   UNL     1       7.680  -5.004   1.159  0.00  0.00    +0.036 A 
ATOM     17  C   UNL     1       8.717  -4.935   0.238  0.00  0.00    +0.024 A 
ATOM     18  C   UNL     1       9.981  -4.562   0.649  0.00  0.00    +0.017 A 
ATOM     19  C   UNL     1      10.215  -4.256   1.978  0.00  0.00    +0.018 A 
ATOM     20  C   UNL     1       9.184  -4.324   2.898  0.00  0.00    +0.017 A 
ATOM     21  C   UNL     1       7.917  -4.692   2.491  0.00  0.00    +0.024 A 
ATOM     22 BR   UNL     1      11.948  -3.745   2.538  0.00  0.00    -0.050 Br
ENDBRANCH  14  16
ENDBRANCH   9  10
BRANCH   1  23
ATOM     23  C   UNL     1       1.090  -4.909   1.551  0.00  0.00    +0.164 C 
BRANCH  23  24
ATOM     24  C   UNL     1       0.459  -4.662   0.179  0.00  0.00    +0.250 C 
BRANCH  24  25
ATOM     25  O   UNL     1      -0.134  -3.362   0.155  0.00  0.00    -0.490 OA
BRANCH  25  31
ATOM     26  C   UNL     1      -1.337  -1.733  -1.093  0.00  0.00    -0.002 A 
ATOM     27  C   UNL     1      -1.950  -1.347  -2.270  0.00  0.00    +0.007 A 
ATOM     28  C   UNL     1      -1.975  -2.208  -3.352  0.00  0.00    +0.001 A 
ATOM     29  C   UNL     1      -1.387  -3.456  -3.259  0.00  0.00    +0.004 A 
ATOM     30  C   UNL     1      -0.773  -3.846  -2.085  0.00  0.00    +0.046 A 
ATOM     31  C   UNL     1      -0.742  -2.982  -0.999  0.00  0.00    +0.124 A 
BRANCH  26  32
ATOM     32  C   UNL     1      -1.311  -0.795   0.086  0.00  0.00    +0.065 C 
BRANCH  32  34
ATOM     33  C   UNL     1      -0.042   1.290   0.104  0.00  0.00    +0.004 C 
ATOM     34  C   UNL     1      -0.019  -0.019   0.083  0.00  0.00    -0.030 C 
ENDBRANCH  32  34
ENDBRANCH  26  32
ENDBRANCH  25  31
ENDBRANCH  24  25
ENDBRANCH  23  24
ENDBRANCH   1  23
TORSDOF 8
