REMARK  Name = ZINC35466010
REMARK  6 active torsions:
REMARK  status: ('A' for Active; 'I' for Inactive)
REMARK    1  A    between atoms: C_1  and  C_2
REMARK    2  A    between atoms: C_6  and  C_22
REMARK    3  A    between atoms: C_6  and  C_23
REMARK    4  A    between atoms: C_10  and  O_21
REMARK    5  A    between atoms: C_14  and  O_19
REMARK    6  A    between atoms: O_19  and  C_20
REMARK                            x       y       z     vdW  Elec       q    Type
REMARK                         _______ _______ _______ _____ _____    ______ ____
ROOT
ATOM      1  C   UNL     1       0.086   1.518  -0.002  0.00  0.00    +0.016 C 
ATOM      2  C   UNL     1       0.087  -0.011  -0.005  0.00  0.00    -0.001 C 
ATOM      3  C   UNL     1      -1.349  -0.521  -0.004  0.00  0.00    +0.011 C 
ATOM      4  C   UNL     1      -2.013  -0.154   1.325  0.00  0.00    +0.001 C 
ATOM      5  C   UNL     1      -1.271  -0.825   2.474  0.00  0.00    +0.007 C 
ATOM      6  C   UNL     1       0.207  -0.432   2.514  0.00  0.00    -0.031 C 
ATOM      7  C   UNL     1       0.869  -0.602   1.164  0.00  0.00    +0.008 C 
ATOM      8  C   UNL     1       2.312  -0.111   1.129  0.00  0.00    +0.041 C 
ATOM      9  C   UNL     1       3.035  -0.668  -0.103  0.00  0.00    +0.152 C 
ATOM     10  C   UNL     1       2.112  -0.724  -1.293  0.00  0.00    +0.070 C 
ATOM     11  C   UNL     1       0.805  -0.449  -1.260  0.00  0.00    +0.016 C 
ATOM     12  C   UNL     1       0.261  -0.656  -2.641  0.00  0.00    +0.340 C 
ATOM     13  O   UNL     1       1.387  -0.995  -3.463  0.00  0.00    -0.428 OA
ATOM     14  C   UNL     1       2.471  -1.081  -2.668  0.00  0.00    +0.340 C 
ATOM     15  O   UNL     1       3.583  -1.406  -3.036  0.00  0.00    -0.245 OA
ATOM     16  C   UNL     1       0.893  -1.401   3.510  0.00  0.00    +0.011 C 
ATOM     17  C   UNL     1       0.364   0.979   3.078  0.00  0.00    +0.011 C 
ENDROOT
BRANCH  12  18
ATOM     18  O   UNL     1      -0.686  -1.726  -2.652  0.00  0.00    -0.341 OA
ATOM     19  C   UNL     1      -1.337  -1.914  -3.910  0.00  0.00    +0.198 C 
ENDBRANCH  12  18
BRANCH   9  20
ATOM     20  O   UNL     1       4.156   0.167  -0.410  0.00  0.00    -0.387 OA
ATOM     21  H   UNL     1       4.664  -0.124  -1.180  0.00  0.00    +0.210 HD
ENDBRANCH   9  20
TORSDOF 2
