REMARK  Name = ZINC13123639
REMARK  5 active torsions:
REMARK  status: ('A' for Active; 'I' for Inactive)
REMARK    1  A    between atoms: C_1  and  C_2
REMARK    2  A    between atoms: C_7  and  C_8
REMARK    3  A    between atoms: C_8  and  S_9
REMARK    4  A    between atoms: S_9  and  C_10
REMARK    5  A    between atoms: C_15  and  C_25
REMARK                            x       y       z     vdW  Elec       q    Type
REMARK                         _______ _______ _______ _____ _____    ______ ____
ROOT
ATOM      1  C   UNL     1      -1.513   1.192   4.568  0.00  0.00    +0.211 A 
ATOM      2  N   UNL     1      -0.351   1.545   5.137  0.00  0.00    -0.187 NA
ATOM      3  C   UNL     1      -0.588   2.178   6.254  0.00  0.00    +0.219 A 
ATOM      4  N   UNL     1      -1.931   2.239   6.428  0.00  0.00    -0.219 N 
ATOM      5  N   UNL     1      -2.505   1.606   5.327  0.00  0.00    -0.141 NA
ATOM      6  C   UNL     1      -2.562   2.870   7.580  0.00  0.00    +0.182 C 
ATOM      7  C   UNL     1      -1.551   3.708   8.331  0.00  0.00    +0.041 C 
ATOM      8  C   UNL     1      -2.052   4.619   9.279  0.00  0.00    +0.163 C 
ATOM      9  C   UNL     1      -1.138   5.514  10.068  0.00  0.00    +0.080 C 
ATOM     10  C   UNL     1       0.127   5.782   9.245  0.00  0.00    +0.014 C 
ATOM     11  C   UNL     1       0.764   4.438   8.888  0.00  0.00    +0.052 C 
ATOM     12  C   UNL     1      -0.223   3.599   8.110  0.00  0.00    +0.020 C 
ATOM     13  N   UNL     1       0.287   2.733   7.173  0.00  0.00    -0.287 N 
ATOM     14  O   UNL     1      -3.252   4.683   9.464  0.00  0.00    -0.292 OA
ATOM     15  H   UNL     1       1.232   2.517   7.157  0.00  0.00    +0.155 HD
ENDROOT
BRANCH   6  16
ATOM     16  C   UNL     1      -3.105   1.805   8.498  0.00  0.00    +0.019 A 
ATOM     17  C   UNL     1      -4.383   1.591   8.896  0.00  0.00    +0.013 A 
ATOM     18  C   UNL     1      -4.652   0.539   9.752  0.00  0.00    +0.008 A 
ATOM     19  C   UNL     1      -3.629  -0.246  10.169  0.00  0.00    +0.045 A 
ATOM     20  S   UNL     1      -2.232   0.493   9.338  0.00  0.00    -0.099 S 
ENDBRANCH   6  16
BRANCH   1  21
ATOM     21  S   UNL     1      -1.684   0.321   3.046  0.00  0.00    -0.080 S 
BRANCH  21  22
ATOM     22  C   UNL     1       0.025   0.045   2.504  0.00  0.00    +0.112 C 
BRANCH  22  29
ATOM     23  C   UNL     1      -0.018   1.503   0.010  0.00  0.00    +0.044 C 
ATOM     24  C   UNL     1       0.002  -0.004   0.002  0.00  0.00    -0.046 A 
ATOM     25  C   UNL     1       0.006  -0.689  -1.199  0.00  0.00    +0.003 A 
ATOM     26  C   UNL     1       0.025  -2.071  -1.207  0.00  0.00    +0.000 A 
ATOM     27  C   UNL     1       0.040  -2.768  -0.013  0.00  0.00    +0.000 A 
ATOM     28  C   UNL     1       0.037  -2.084   1.188  0.00  0.00    +0.005 A 
ATOM     29  C   UNL     1       0.023  -0.702   1.195  0.00  0.00    -0.034 A 
ENDBRANCH  22  29
ENDBRANCH  21  22
ENDBRANCH   1  21
TORSDOF 4
