REMARK  Name = ZINC15930475
REMARK  6 active torsions:
REMARK  status: ('A' for Active; 'I' for Inactive)
REMARK    1  A    between atoms: C_1  and  C_2
REMARK    2  A    between atoms: C_2  and  C_3
REMARK    3  A    between atoms: C_2  and  C_4
REMARK    4  A    between atoms: C_7  and  C_10
REMARK    5  A    between atoms: N_15  and  S_18
REMARK    6  A    between atoms: S_18  and  C_21
REMARK                            x       y       z     vdW  Elec       q    Type
REMARK                         _______ _______ _______ _____ _____    ______ ____
ROOT
ATOM      1  C   UNL     1       4.275  -1.043  -5.629  0.00  0.00    +0.247 C 
ATOM      2  O   UNL     1       4.586  -0.069  -6.286  0.00  0.00    -0.270 OA
ATOM      3  N   UNL     1       4.252  -0.968  -4.284  0.00  0.00    -0.295 N 
ATOM      4  C   UNL     1       4.679   0.258  -3.595  0.00  0.00    +0.125 C 
ATOM      5  C   UNL     1       5.782  -0.102  -2.592  0.00  0.00    +0.128 C 
ATOM      6  N   UNL     1       5.330  -1.246  -1.787  0.00  0.00    -0.174 NA
ATOM      7  C   UNL     1       4.908  -2.474  -2.475  0.00  0.00    +0.128 C 
ATOM      8  C   UNL     1       3.800  -2.112  -3.479  0.00  0.00    +0.125 C 
ENDROOT
BRANCH   1  12
ATOM      9  C   UNL     1       3.263  -4.682  -7.573  0.00  0.00    -0.045 A 
ATOM     10  C   UNL     1       2.411  -4.148  -6.622  0.00  0.00    +0.004 A 
ATOM     11  C   UNL     1       2.734  -2.967  -5.987  0.00  0.00    +0.013 A 
ATOM     12  C   UNL     1       3.923  -2.309  -6.305  0.00  0.00    +0.037 A 
ATOM     13  C   UNL     1       4.776  -2.850  -7.269  0.00  0.00    +0.013 A 
ATOM     14  C   UNL     1       4.444  -4.035  -7.893  0.00  0.00    +0.004 A 
BRANCH   9  16
ATOM     15  C   UNL     1       2.800  -5.734  -9.769  0.00  0.00    +0.012 C 
ATOM     16  C   UNL     1       2.904  -5.973  -8.262  0.00  0.00    +0.013 C 
ATOM     17  C   UNL     1       3.987  -7.017  -7.984  0.00  0.00    +0.012 C 
ENDBRANCH   9  16
ENDBRANCH   1  12
BRANCH   6  18
ATOM     18  S   UNL     1       5.303  -1.155  -0.134  0.00  0.00    +0.061 S 
ATOM     19  O   UNL     1       6.245  -0.157   0.234  0.00  0.00    -0.153 OA
ATOM     20  O   UNL     1       5.379  -2.489   0.348  0.00  0.00    -0.153 OA
BRANCH  18  21
ATOM     21  C   UNL     1       3.716  -0.543   0.328  0.00  0.00    +0.109 A 
ATOM     22  C   UNL     1       2.678  -1.425   0.564  0.00  0.00    +0.032 A 
ATOM     23  C   UNL     1       1.432  -0.950   0.925  0.00  0.00    +0.051 A 
ATOM     24  C   UNL     1       1.220   0.415   1.052  0.00  0.00    +0.162 A 
ATOM     25  C   UNL     1       2.264   1.302   0.818  0.00  0.00    +0.164 A 
ATOM     26  C   UNL     1       3.511   0.818   0.454  0.00  0.00    +0.078 A 
ATOM     27  O   UNL     1       2.079   2.644   0.945  0.00  0.00    -0.485 OA
ATOM     28  C   UNL     1       0.725   3.111   0.945  0.00  0.00    +0.270 C 
ATOM     29  C   UNL     1      -0.092   2.215   1.885  0.00  0.00    +0.270 C 
ATOM     30  O   UNL     1      -0.015   0.870   1.400  0.00  0.00    -0.485 OA
ENDBRANCH  18  21
ENDBRANCH   6  18
TORSDOF 4
