REMARK  Name = ZINC36206171
REMARK  14 active torsions:
REMARK  status: ('A' for Active; 'I' for Inactive)
REMARK    1  A    between atoms: C_1  and  C_2
REMARK    2  A    between atoms: C_2  and  C_3
REMARK    3  A    between atoms: C_2  and  C_4
REMARK    4  A    between atoms: C_2  and  O_5
REMARK    5  A    between atoms: O_5  and  C_6
REMARK    6  A    between atoms: C_6  and  C_7
REMARK    7  A    between atoms: C_7  and  C_9
REMARK    8  A    between atoms: C_7  and  O_36
REMARK    9  A    between atoms: C_9  and  N_10
REMARK   10  A    between atoms: N_10  and  C_11
REMARK   11  A    between atoms: N_10  and  C_17
REMARK   12  A    between atoms: C_11  and  C_12
REMARK   13  A    between atoms: C_17  and  C_18
REMARK   14  A    between atoms: C_24  and  C_29
REMARK                            x       y       z     vdW  Elec       q    Type
REMARK                         _______ _______ _______ _____ _____    ______ ____
ROOT
ATOM      1  C   UNL     1       6.049  -0.498  -3.964  0.00  0.00    -0.003 C 
ENDROOT
BRANCH   1   2
ATOM      2  C   UNL     1       6.617  -1.092  -5.227  0.00  0.00    +0.094 A 
ATOM      3  N   UNL     1       7.947  -0.985  -5.476  0.00  0.00    -0.312 N 
ATOM      4  H   UNL     1       8.515  -0.527  -4.836  0.00  0.00    +0.170 HD
ATOM      5  C   UNL     1       8.494  -1.502  -6.591  0.00  0.00    +0.260 A 
ATOM      6  O   UNL     1       9.690  -1.398  -6.800  0.00  0.00    -0.267 OA
ATOM      7  C   UNL     1       7.649  -2.176  -7.530  0.00  0.00    +0.080 A 
ATOM      8  C   UNL     1       7.998  -2.812  -8.794  0.00  0.00    +0.004 A 
ATOM      9  C   UNL     1       7.016  -3.396  -9.523  0.00  0.00    +0.056 A 
ATOM     10  S   UNL     1       5.554  -3.120  -8.541  0.00  0.00    -0.076 S 
ATOM     11  C   UNL     1       6.288  -2.237  -7.188  0.00  0.00    +0.116 A 
ATOM     12  N   UNL     1       5.821  -1.705  -6.062  0.00  0.00    -0.229 NA
BRANCH   8  13
ATOM     13  C   UNL     1       9.400  -2.819  -9.274  0.00  0.00    -0.016 A 
ATOM     14  C   UNL     1      10.136  -1.635  -9.304  0.00  0.00    +0.010 A 
ATOM     15  C   UNL     1      11.441  -1.648  -9.752  0.00  0.00    +0.020 A 
ATOM     16  C   UNL     1      12.021  -2.833 -10.170  0.00  0.00    +0.041 A 
ATOM     17  C   UNL     1      11.295  -4.012 -10.143  0.00  0.00    +0.020 A 
ATOM     18  C   UNL     1       9.991  -4.011  -9.692  0.00  0.00    +0.010 A 
ATOM     19 CL   UNL     1      13.663  -2.842 -10.731  0.00  0.00    -0.084 Cl
ENDBRANCH   8  13
ENDBRANCH   1   2
BRANCH   1  20
ATOM     20  N   UNL     1       4.601  -0.744  -3.914  0.00  0.00    +0.391 N 
ATOM     21  H   UNL     1       4.173  -0.401  -4.761  0.00  0.00    -0.080 HD
BRANCH  20  22
ATOM     22  C   UNL     1       4.026  -0.046  -2.757  0.00  0.00    -0.044 C 
BRANCH  22  23
ATOM     23  C   UNL     1       4.107   1.465  -2.980  0.00  0.00    +0.124 C 
BRANCH  23  24
ATOM     24  O   UNL     1       5.473   1.880  -2.939  0.00  0.00    -0.391 OA
ATOM     25  H   UNL     1       5.917   1.691  -2.100  0.00  0.00    +0.210 HD
ENDBRANCH  23  24
BRANCH  23  26
ATOM     26  C   UNL     1       3.322   2.186  -1.882  0.00  0.00    +0.189 C 
BRANCH  26  27
ATOM     27  O   UNL     1       3.299   3.588  -2.155  0.00  0.00    -0.372 OA
BRANCH  27  29
ATOM     28  C   UNL     1       3.237   4.175   0.189  0.00  0.00    +0.041 C 
ATOM     29  C   UNL     1       2.587   4.358  -1.184  0.00  0.00    +0.061 C 
ATOM     30  C   UNL     1       1.133   3.886  -1.127  0.00  0.00    +0.041 C 
ATOM     31  C   UNL     1       2.628   5.837  -1.575  0.00  0.00    +0.041 C 
ENDBRANCH  27  29
ENDBRANCH  26  27
ENDBRANCH  23  26
ENDBRANCH  22  23
ENDBRANCH  20  22
BRANCH  20  32
ATOM     32  C   UNL     1       4.354  -2.186  -3.789  0.00  0.00    -0.002 C 
BRANCH  32  33
ATOM     33  C   UNL     1       2.874  -2.452  -3.884  0.00  0.00    +0.089 A 
ATOM     34  C   UNL     1       2.205  -2.792  -5.001  0.00  0.00    +0.042 A 
ATOM     35  C   UNL     1       0.848  -2.943  -4.635  0.00  0.00    +0.041 A 
ATOM     36  C   UNL     1       0.768  -2.686  -3.317  0.00  0.00    +0.195 A 
ATOM     37  O   UNL     1       1.999  -2.395  -2.866  0.00  0.00    -0.470 OA
ENDBRANCH  32  33
ENDBRANCH  20  32
ENDBRANCH   1  20
TORSDOF 11
