REMARK  Name = ZINC41048864
REMARK  2 active torsions:
REMARK  status: ('A' for Active; 'I' for Inactive)
REMARK    1  A    between atoms: C_3  and  C_6
REMARK    2  A    between atoms: C_11  and  N_12
REMARK                            x       y       z     vdW  Elec       q    Type
REMARK                         _______ _______ _______ _____ _____    ______ ____
ROOT
ATOM      1  C   UNL     1       3.574   0.619  -0.029  0.00  0.00    +0.038 A 
ATOM      2  C   UNL     1       4.284   1.386  -0.953  0.00  0.00    +0.014 A 
ATOM      3  C   UNL     1       5.663   1.349  -0.962  0.00  0.00    +0.016 A 
ATOM      4  C   UNL     1       6.347   0.553  -0.058  0.00  0.00    +0.020 A 
ATOM      5  C   UNL     1       5.655  -0.212   0.862  0.00  0.00    +0.038 A 
ATOM      6  C   UNL     1       4.269  -0.182   0.888  0.00  0.00    +0.036 A 
ATOM      7 BR   UNL     1       8.238   0.513  -0.083  0.00  0.00    -0.050 Br
ENDROOT
BRANCH   1  10
ATOM      8  C   UNL     1      -0.016   1.343   0.009  0.00  0.00    +0.042 A 
ATOM      9  C   UNL     1       1.326   1.774  -0.001  0.00  0.00    +0.050 A 
ATOM     10  C   UNL     1       2.097   0.654  -0.015  0.00  0.00    +0.137 A 
ATOM     11  O   UNL     1       1.281  -0.417  -0.012  0.00  0.00    -0.463 OA
ATOM     12  C   UNL     1       0.002  -0.004   0.002  0.00  0.00    +0.196 A 
ENDBRANCH   1  10
BRANCH   6  13
ATOM     13  N   UNL     1       3.569  -0.949   1.819  0.00  0.00    -0.357 N 
ATOM     14  H   UNL     1       2.599  -0.929   1.833  0.00  0.00    +0.142 HD
ATOM     15  H   UNL     1       4.052  -1.502   2.453  0.00  0.00    +0.142 HD
ENDBRANCH   6  13
TORSDOF 2
