REMARK  Name = ZINC54736047
REMARK  5 active torsions:
REMARK  status: ('A' for Active; 'I' for Inactive)
REMARK    1  A    between atoms: C_1  and  C_2
REMARK    2  A    between atoms: C_5  and  C_7
REMARK    3  A    between atoms: C_7  and  C_8
REMARK    4  A    between atoms: C_7  and  N_9
REMARK    5  A    between atoms: C_18  and  C_20
REMARK                            x       y       z     vdW  Elec       q    Type
REMARK                         _______ _______ _______ _____ _____    ______ ____
ROOT
ATOM      1  N   UNL     1       2.372  -4.228   0.683  0.00  0.00    -0.292 N 
ATOM      2  C   UNL     1       2.667  -5.392   1.295  0.00  0.00    +0.303 C 
ATOM      3  O   UNL     1       1.936  -6.353   1.158  0.00  0.00    -0.253 OA
ATOM      4  N   UNL     1       3.772  -5.489   2.060  0.00  0.00    -0.283 N 
ATOM      5  C   UNL     1       4.597  -4.305   2.338  0.00  0.00    +0.128 C 
ATOM      6  C   UNL     1       4.733  -4.148   3.858  0.00  0.00    +0.127 C 
ATOM      7  N   UNL     1       5.135  -5.441   4.429  0.00  0.00    -0.294 N 
ATOM      8  C   UNL     1       4.311  -6.626   4.151  0.00  0.00    +0.127 C 
ATOM      9  C   UNL     1       4.172  -6.781   2.636  0.00  0.00    +0.128 C 
ATOM     10  C   UNL     1       6.240  -5.539   5.194  0.00  0.00    +0.250 C 
ATOM     11  O   UNL     1       6.628  -6.630   5.566  0.00  0.00    -0.270 OA
ATOM     12  H   UNL     1       2.915  -3.441   0.849  0.00  0.00    +0.151 HD
ENDROOT
BRANCH  10  13
ATOM     13  C   UNL     1       6.980  -4.324   5.579  0.00  0.00    +0.074 A 
ATOM     14  C   UNL     1       6.439  -2.965   5.732  0.00  0.00    +0.054 A 
ATOM     15  C   UNL     1       7.475  -2.194   6.093  0.00  0.00    +0.195 A 
ATOM     16  O   UNL     1       8.581  -2.951   6.172  0.00  0.00    -0.470 OA
ATOM     17  C   UNL     1       8.308  -4.226   5.875  0.00  0.00    +0.207 A 
ENDBRANCH  10  13
BRANCH   1  18
ATOM     18  C   UNL     1       1.233  -4.151  -0.235  0.00  0.00    +0.108 C 
ATOM     19  C   UNL     1       1.669  -4.605  -1.629  0.00  0.00    +0.033 C 
BRANCH  18  24
ATOM     20  C   UNL     1       0.327   1.436  -0.475  0.00  0.00    +0.051 C 
ATOM     21  C   UNL     1       0.305  -0.070  -0.416  0.00  0.00    -0.013 A 
ATOM     22  C   UNL     1      -0.759  -0.909  -0.407  0.00  0.00    +0.011 A 
ATOM     23  C   UNL     1      -0.538  -2.272  -0.349  0.00  0.00    +0.013 A 
ATOM     24  C   UNL     1       0.737  -2.730  -0.302  0.00  0.00    +0.010 A 
ATOM     25  S   UNL     1       1.676  -1.212  -0.347  0.00  0.00    -0.097 S 
ENDBRANCH  18  24
ENDBRANCH   1  18
TORSDOF 3
