REMARK  Name = ZINC25044252
REMARK  6 active torsions:
REMARK  status: ('A' for Active; 'I' for Inactive)
REMARK    1  A    between atoms: C_1  and  C_2
REMARK    2  A    between atoms: N_10  and  N_14
REMARK    3  A    between atoms: C_15  and  C_17
REMARK    4  A    between atoms: C_17  and  N_18
REMARK    5  A    between atoms: N_18  and  C_19
REMARK    6  A    between atoms: N_18  and  C_20
REMARK                            x       y       z     vdW  Elec       q    Type
REMARK                         _______ _______ _______ _____ _____    ______ ____
ROOT
ATOM      1  N   UNL     1       0.209   4.697  -3.130  0.00  0.00    -0.225 N 
ATOM      2  C   UNL     1       1.442   5.201  -2.930  0.00  0.00    +0.213 C 
ATOM      3  O   UNL     1       2.295   4.525  -2.395  0.00  0.00    -0.276 OA
ATOM      4  H   UNL     1      -0.564   5.311  -3.615  0.00  0.00    +0.173 HD
ENDROOT
BRANCH   1  14
ATOM      5  C   UNL     1      -3.303   1.507   1.993  0.00  0.00    +0.007 C 
ATOM      6  C   UNL     1      -2.493   1.034   0.784  0.00  0.00    -0.014 C 
ATOM      7  C   UNL     1      -1.056   1.545   0.902  0.00  0.00    +0.006 C 
ATOM      8  C   UNL     1      -0.244   1.062  -0.303  0.00  0.00    +0.035 C 
ATOM      9  C   UNL     1      -0.882   1.579  -1.587  0.00  0.00    +0.114 C 
ATOM     10  C   UNL     1      -2.322   1.094  -1.708  0.00  0.00    +0.035 C 
ATOM     11  C   UNL     1      -3.127   1.577  -0.498  0.00  0.00    +0.006 C 
ATOM     12  C   UNL     1      -0.829   3.088  -1.632  0.00  0.00    +0.263 C 
ATOM     13  O   UNL     1      -1.342   3.864  -0.854  0.00  0.00    -0.271 OA
ATOM     14  N   UNL     1      -0.089   3.391  -2.719  0.00  0.00    -0.137 N 
ATOM     15  C   UNL     1       0.325   2.289  -3.356  0.00  0.00    +0.326 C 
ATOM     16  O   UNL     1       1.006   2.306  -4.362  0.00  0.00    -0.251 OA
ATOM     17  N   UNL     1      -0.098   1.160  -2.756  0.00  0.00    -0.284 N 
ATOM     18  H   UNL     1       0.034   0.090  -2.976  0.00  0.00    +0.151 HD
ENDBRANCH   1  14
BRANCH   2  19
ATOM     19  C   UNL     1       1.763   6.606  -3.372  0.00  0.00    +0.021 C 
BRANCH  19  20
ATOM     20  N   UNL     1       3.161   6.916  -3.045  0.00  0.00    +0.388 N 
ATOM     21  C   UNL     1       3.365   6.952  -1.590  0.00  0.00    -0.095 C 
ATOM     22  H   UNL     1       3.790   6.112  -3.454  0.00  0.00    -0.081 HD
BRANCH  20  23
ATOM     23  C   UNL     1       3.580   8.179  -3.667  0.00  0.00    -0.037 C 
ATOM     24  C   UNL     1       2.859   9.369  -3.000  0.00  0.00    -0.006 C 
ATOM     25  C   UNL     1       3.857   9.788  -1.900  0.00  0.00    +0.034 C 
ATOM     26  C   UNL     1       5.213   9.346  -2.406  0.00  0.00    -0.046 A 
ATOM     27  C   UNL     1       5.055   8.420  -3.424  0.00  0.00    -0.058 A 
ATOM     28  C   UNL     1       6.168   7.877  -4.038  0.00  0.00    +0.002 A 
ATOM     29  C   UNL     1       7.436   8.254  -3.642  0.00  0.00    +0.000 A 
ATOM     30  C   UNL     1       7.595   9.179  -2.627  0.00  0.00    +0.000 A 
ATOM     31  C   UNL     1       6.485   9.723  -2.010  0.00  0.00    +0.004 A 
ENDBRANCH  20  23
ENDBRANCH  19  20
ENDBRANCH   2  19
TORSDOF 4
