REMARK  Name = ZINC43643818
REMARK  2 active torsions:
REMARK  status: ('A' for Active; 'I' for Inactive)
REMARK    1  A    between atoms: C_9  and  N_14
REMARK    2  A    between atoms: N_17  and  C_18
REMARK                            x       y       z     vdW  Elec       q    Type
REMARK                         _______ _______ _______ _____ _____    ______ ____
ROOT
ATOM      1  C   UNL     1      -0.017   1.405   0.010  0.00  0.00    +0.012 A 
ATOM      2  C   UNL     1       1.153   2.100   0.002  0.00  0.00    +0.070 A 
ATOM      3  C   UNL     1       2.366   1.391  -0.015  0.00  0.00    +0.249 A 
ATOM      4  O   UNL     1       3.428   1.993  -0.026  0.00  0.00    -0.268 OA
ATOM      5  N   UNL     1       2.353   0.048  -0.018  0.00  0.00    -0.326 N 
ATOM      6  H   UNL     1       3.195  -0.433  -0.030  0.00  0.00    +0.169 HD
ATOM      7  C   UNL     1       1.182  -0.655  -0.005  0.00  0.00    +0.024 A 
ATOM      8  C   UNL     1       0.002  -0.004   0.002  0.00  0.00    -0.008 A 
ATOM      9  C   UNL     1      -1.326  -0.715  -0.007  0.00  0.00    +0.106 C 
ATOM     10  C   UNL     1      -1.162  -2.172   0.419  0.00  0.00    +0.027 C 
ATOM     11  C   UNL     1      -0.038  -2.793  -0.420  0.00  0.00    +0.008 C 
ATOM     12  C   UNL     1       1.284  -2.159   0.007  0.00  0.00    +0.054 C 
ENDROOT
BRANCH   9  13
ATOM     13  N   UNL     1      -2.239  -0.042   0.920  0.00  0.00    -0.293 N 
ATOM     14  C   UNL     1      -2.951   1.026   0.509  0.00  0.00    +0.300 C 
ATOM     15  O   UNL     1      -2.835   1.431  -0.631  0.00  0.00    -0.253 OA
ATOM     16  N   UNL     1      -3.791   1.645   1.362  0.00  0.00    -0.297 N 
ATOM     17  H   UNL     1      -2.332  -0.366   1.830  0.00  0.00    +0.151 HD
ATOM     18  H   UNL     1      -3.884   1.321   2.272  0.00  0.00    +0.151 HD
BRANCH  16  19
ATOM     19  C   UNL     1      -4.565   2.806   0.915  0.00  0.00    +0.075 C 
ATOM     20  C   UNL     1      -4.652   4.004   1.863  0.00  0.00    +0.024 C 
ATOM     21  C   UNL     1      -5.873   3.108   1.648  0.00  0.00    +0.024 C 
ENDBRANCH  16  19
ENDBRANCH   9  13
TORSDOF 2
