REMARK  Name = ZINC15730566
REMARK  5 active torsions:
REMARK  status: ('A' for Active; 'I' for Inactive)
REMARK    1  A    between atoms: C_1  and  C_2
REMARK    2  A    between atoms: C_10  and  S_15
REMARK    3  A    between atoms: S_15  and  N_18
REMARK    4  A    between atoms: N_18  and  C_19
REMARK    5  A    between atoms: C_23  and  C_25
REMARK                            x       y       z     vdW  Elec       q    Type
REMARK                         _______ _______ _______ _____ _____    ______ ____
ROOT
ATOM      1  S   UNL     1      -0.017   1.417   0.010  0.00  0.00    +0.072 S 
ATOM      2  O   UNL     1       0.002  -0.004   0.002  0.00  0.00    -0.150 OA
ATOM      3  O   UNL     1       1.172   2.195   0.003  0.00  0.00    -0.150 OA
ENDROOT
BRANCH   1  12
ATOM      4  C   UNL     1      -1.335   2.821  -6.825  0.00  0.00    +0.020 C 
ATOM      5  C   UNL     1      -2.652   2.197  -6.359  0.00  0.00    +0.057 C 
ATOM      6  C   UNL     1      -2.394   0.786  -5.801  0.00  0.00    +0.110 C 
ATOM      7  C   UNL     1      -3.543   0.343  -4.946  0.00  0.00    +0.218 C 
ATOM      8  O   UNL     1      -4.474  -0.244  -5.458  0.00  0.00    -0.275 OA
ATOM      9  N   UNL     1      -3.562   0.581  -3.629  0.00  0.00    -0.284 N 
ATOM     10  C   UNL     1      -2.618   1.444  -3.053  0.00  0.00    +0.049 A 
ATOM     11  C   UNL     1      -1.879   1.048  -1.950  0.00  0.00    +0.053 A 
ATOM     12  C   UNL     1      -0.954   1.915  -1.397  0.00  0.00    +0.110 A 
ATOM     13  C   UNL     1      -0.756   3.169  -1.946  0.00  0.00    +0.030 A 
ATOM     14  C   UNL     1      -1.487   3.571  -3.049  0.00  0.00    +0.018 A 
ATOM     15  C   UNL     1      -2.419   2.708  -3.604  0.00  0.00    +0.029 A 
ATOM     16  S   UNL     1      -3.368   3.193  -5.009  0.00  0.00    -0.120 S 
ATOM     17  H   UNL     1      -4.231   0.155  -3.071  0.00  0.00    +0.155 HD
ENDBRANCH   1  12
BRANCH   1  18
ATOM     18  N   UNL     1      -0.872   1.871   1.353  0.00  0.00    -0.216 N 
ATOM     19  H   UNL     1      -0.510   2.541   1.955  0.00  0.00    +0.174 HD
BRANCH  18  20
ATOM     20  C   UNL     1      -2.114   1.290   1.621  0.00  0.00    +0.049 A 
ATOM     21  C   UNL     1      -2.277  -0.086   1.502  0.00  0.00    +0.024 A 
ATOM     22  C   UNL     1      -3.504  -0.666   1.766  0.00  0.00    +0.003 A 
ATOM     23  C   UNL     1      -4.574   0.117   2.150  0.00  0.00    +0.012 A 
ATOM     24  C   UNL     1      -4.420   1.498   2.273  0.00  0.00    +0.022 A 
ATOM     25  C   UNL     1      -3.181   2.083   2.011  0.00  0.00    +0.036 A 
BRANCH  24  26
ATOM     26  C   UNL     1      -5.565   2.339   2.684  0.00  0.00    +0.167 A 
ATOM     27  C   UNL     1      -6.834   1.915   2.973  0.00  0.00    +0.072 A 
ATOM     28  C   UNL     1      -7.519   3.102   3.307  0.00  0.00    +0.157 A 
ATOM     29  N   UNL     1      -6.659   4.073   3.189  0.00  0.00    -0.086 NA
ATOM     30  O   UNL     1      -5.571   3.674   2.845  0.00  0.00    -0.355 OA
ENDBRANCH  24  26
ENDBRANCH  18  20
ENDBRANCH   1  18
TORSDOF 4
