REMARK  Name = ZINC39622311
REMARK  9 active torsions:
REMARK  status: ('A' for Active; 'I' for Inactive)
REMARK    1  A    between atoms: C_1  and  C_2
REMARK    2  A    between atoms: C_8  and  N_10
REMARK    3  A    between atoms: C_14  and  C_16
REMARK    4  A    between atoms: C_16  and  O_17
REMARK    5  A    between atoms: O_17  and  C_18
REMARK    6  A    between atoms: C_18  and  C_20
REMARK    7  A    between atoms: C_20  and  C_22
REMARK    8  A    between atoms: C_20  and  N_23
REMARK    9  A    between atoms: C_24  and  C_26
REMARK                            x       y       z     vdW  Elec       q    Type
REMARK                         _______ _______ _______ _____ _____    ______ ____
ROOT
ATOM      1  C   UNL     1       6.152   1.247   3.525  0.00  0.00    +0.328 C 
ENDROOT
BRANCH   1   6
ATOM      2  N   UNL     1       2.116  -0.004   1.231  0.00  0.00    -0.296 N 
ATOM      3  C   UNL     1       2.795   0.128   2.388  0.00  0.00    +0.306 C 
ATOM      4  O   UNL     1       2.267  -0.174   3.440  0.00  0.00    -0.252 OA
ATOM      5  N   UNL     1       4.059   0.594   2.379  0.00  0.00    -0.237 N 
ATOM      6  C   UNL     1       4.738   0.726   3.536  0.00  0.00    +0.258 C 
ATOM      7  O   UNL     1       4.211   0.424   4.585  0.00  0.00    -0.272 OA
ATOM      8  H   UNL     1       2.538   0.237   0.392  0.00  0.00    +0.151 HD
ATOM      9  H   UNL     1       4.481   0.835   1.539  0.00  0.00    +0.159 HD
BRANCH   2  16
ATOM     10  C   UNL     1      -0.019   1.526   0.010  0.00  0.00    +0.009 C 
ATOM     11  C   UNL     1       0.002  -0.004   0.002  0.00  0.00    +0.006 C 
ATOM     12  C   UNL     1      -1.433  -0.534   0.013  0.00  0.00    +0.005 C 
ATOM     13  C   UNL     1      -1.413  -2.063   0.004  0.00  0.00    +0.000 C 
ATOM     14  C   UNL     1      -0.673  -2.570   1.244  0.00  0.00    +0.002 C 
ATOM     15  C   UNL     1       0.763  -2.041   1.233  0.00  0.00    +0.022 C 
ATOM     16  C   UNL     1       0.742  -0.511   1.242  0.00  0.00    +0.077 C 
ENDBRANCH   2  16
ENDBRANCH   1   6
BRANCH   1  17
ATOM     17  O   UNL     1       6.652   1.295   4.863  0.00  0.00    -0.454 OA
BRANCH  17  18
ATOM     18  C   UNL     1       7.907   1.740   5.028  0.00  0.00    +0.328 C 
ATOM     19  O   UNL     1       8.560   2.079   4.069  0.00  0.00    -0.249 OA
BRANCH  18  20
ATOM     20  C   UNL     1       8.503   1.818   6.410  0.00  0.00    +0.179 C 
ATOM     21  C   UNL     1       8.520   0.423   7.038  0.00  0.00    +0.040 C 
BRANCH  20  22
ATOM     22  N   UNL     1       9.873   2.331   6.324  0.00  0.00    -0.299 N 
ATOM     23  C   UNL     1      10.427   2.955   7.382  0.00  0.00    +0.245 C 
ATOM     24  O   UNL     1       9.790   3.092   8.409  0.00  0.00    -0.270 OA
ATOM     25  H   UNL     1      10.380   2.222   5.505  0.00  0.00    +0.150 HD
BRANCH  23  26
ATOM     26  C   UNL     1      11.809   3.473   7.295  0.00  0.00    +0.037 A 
ATOM     27  C   UNL     1      12.540   3.322   6.115  0.00  0.00    +0.013 A 
ATOM     28  C   UNL     1      13.829   3.808   6.040  0.00  0.00    +0.001 A 
ATOM     29  C   UNL     1      14.397   4.443   7.130  0.00  0.00    +0.000 A 
ATOM     30  C   UNL     1      13.678   4.595   8.302  0.00  0.00    +0.001 A 
ATOM     31  C   UNL     1      12.386   4.120   8.389  0.00  0.00    +0.013 A 
ENDBRANCH  23  26
ENDBRANCH  20  22
ENDBRANCH  18  20
ENDBRANCH  17  18
ENDBRANCH   1  17
TORSDOF 7
