REMARK  Name = ZINC27526357
REMARK  7 active torsions:
REMARK  status: ('A' for Active; 'I' for Inactive)
REMARK    1  A    between atoms: C_1  and  C_2
REMARK    2  A    between atoms: C_5  and  N_8
REMARK    3  A    between atoms: N_11  and  C_12
REMARK    4  A    between atoms: N_11  and  C_23
REMARK    5  A    between atoms: C_12  and  C_13
REMARK    6  A    between atoms: C_27  and  C_30
REMARK    7  A    between atoms: C_28  and  C_29
REMARK                            x       y       z     vdW  Elec       q    Type
REMARK                         _______ _______ _______ _____ _____    ______ ____
ROOT
ATOM      1  N   UNL     1      -0.984   3.172   2.876  0.00  0.00    -0.269 N 
ATOM      2  C   UNL     1      -0.465   2.825   1.681  0.00  0.00    +0.311 C 
ATOM      3  O   UNL     1       0.301   3.576   1.109  0.00  0.00    -0.252 OA
ATOM      4  N   UNL     1      -0.796   1.645   1.120  0.00  0.00    -0.248 N 
ATOM      5  H   UNL     1      -1.743   2.535   3.352  0.00  0.00    +0.156 HD
ENDROOT
BRANCH   4   6
ATOM      6  C   UNL     1      -1.678   0.781   1.778  0.00  0.00    +0.041 A 
ATOM      7  C   UNL     1      -1.189  -0.174   2.660  0.00  0.00    +0.024 A 
ATOM      8  C   UNL     1      -2.062  -1.026   3.308  0.00  0.00    +0.002 A 
ATOM      9  C   UNL     1      -3.422  -0.929   3.078  0.00  0.00    +0.004 A 
ATOM     10  C   UNL     1      -3.913   0.020   2.200  0.00  0.00    -0.046 A 
ATOM     11  C   UNL     1      -3.045   0.879   1.554  0.00  0.00    -0.026 A 
ATOM     12  C   UNL     1      -3.581   1.917   0.602  0.00  0.00    +0.046 C 
ATOM     13  C   UNL     1      -5.396   0.121   1.953  0.00  0.00    +0.044 C 
ENDBRANCH   4   6
BRANCH   1  18
ATOM     14  C   UNL     1       0.751   7.921   5.449  0.00  0.00    +0.044 C 
ATOM     15  C   UNL     1       0.290   6.660   4.766  0.00  0.00    -0.050 A 
ATOM     16  C   UNL     1      -1.017   6.233   4.913  0.00  0.00    +0.005 A 
ATOM     17  C   UNL     1      -1.442   5.078   4.287  0.00  0.00    +0.023 A 
ATOM     18  C   UNL     1      -0.556   4.344   3.510  0.00  0.00    +0.035 A 
ATOM     19  C   UNL     1       0.757   4.772   3.368  0.00  0.00    +0.023 A 
ATOM     20  C   UNL     1       1.175   5.931   3.992  0.00  0.00    +0.005 A 
ENDBRANCH   1  18
BRANCH   4  21
ATOM     21  C   UNL     1      -0.233   1.268  -0.178  0.00  0.00    +0.191 C 
BRANCH  21  22
ATOM     22  C   UNL     1      -1.136   1.758  -1.280  0.00  0.00    +0.151 A 
ATOM     23  N   UNL     1      -1.070   2.917  -1.881  0.00  0.00    -0.133 NA
ATOM     24  N   UNL     1      -1.994   2.996  -2.774  0.00  0.00    -0.134 NA
ATOM     25  C   UNL     1      -2.685   1.892  -2.785  0.00  0.00    +0.133 A 
ATOM     26  N   UNL     1      -2.164   1.080  -1.837  0.00  0.00    -0.313 N 
ATOM     27  C   UNL     1      -2.637  -0.259  -1.481  0.00  0.00    +0.125 C 
ATOM     28  C   UNL     1      -3.291  -0.908  -2.704  0.00  0.00    +0.022 C 
ATOM     29  C   UNL     1      -4.778  -0.558  -2.739  0.00  0.00    +0.002 C 
ATOM     30  C   UNL     1      -4.970   0.951  -2.857  0.00  0.00    +0.008 C 
ATOM     31  C   UNL     1      -3.841   1.552  -3.689  0.00  0.00    +0.076 C 
ENDBRANCH  21  22
ENDBRANCH   4  21
TORSDOF 4
