REMARK  Name = ZINC67042670
REMARK  6 active torsions:
REMARK  status: ('A' for Active; 'I' for Inactive)
REMARK    1  A    between atoms: C_4  and  C_7
REMARK    2  A    between atoms: C_7  and  C_8
REMARK    3  A    between atoms: C_8  and  C_9
REMARK    4  A    between atoms: N_11  and  N_12
REMARK    5  A    between atoms: N_15  and  C_16
REMARK    6  A    between atoms: C_21  and  C_24
REMARK                            x       y       z     vdW  Elec       q    Type
REMARK                         _______ _______ _______ _____ _____    ______ ____
ROOT
ATOM      1  N   UNL     1       4.590  -4.240  -5.040  0.00  0.00    -0.218 N 
ATOM      2  C   UNL     1       4.819  -5.557  -5.213  0.00  0.00    +0.316 C 
ATOM      3  O   UNL     1       5.388  -5.949  -6.213  0.00  0.00    -0.251 OA
ATOM      4  N   UNL     1       4.416  -6.439  -4.277  0.00  0.00    -0.295 N 
ATOM      5  H   UNL     1       4.880  -3.605  -5.714  0.00  0.00    +0.174 HD
ATOM      6  H   UNL     1       3.962  -6.126  -3.479  0.00  0.00    +0.151 HD
ENDROOT
BRANCH   4   7
ATOM      7  C   UNL     1       4.664  -7.870  -4.465  0.00  0.00    +0.075 C 
ATOM      8  C   UNL     1       3.541  -8.476  -5.309  0.00  0.00    +0.022 C 
ATOM      9  C   UNL     1       2.203  -8.280  -4.593  0.00  0.00    +0.002 C 
ATOM     10  C   UNL     1       2.247  -8.973  -3.230  0.00  0.00    +0.012 C 
ATOM     11  C   UNL     1       3.371  -8.368  -2.386  0.00  0.00    +0.095 C 
ATOM     12  C   UNL     1       4.709  -8.564  -3.102  0.00  0.00    +0.034 C 
BRANCH  11  13
ATOM     13  C   UNL     1       3.415  -9.061  -1.023  0.00  0.00    +0.393 C 
ATOM     14  F   UNL     1       3.652 -10.428  -1.203  0.00  0.00    -0.170 F 
ATOM     15  F   UNL     1       4.442  -8.507  -0.252  0.00  0.00    -0.170 F 
ATOM     16  F   UNL     1       2.192  -8.882  -0.369  0.00  0.00    -0.170 F 
ENDBRANCH  11  13
ENDBRANCH   4   7
BRANCH   1  19
ATOM     17  C   UNL     1       3.706  -2.471  -3.715  0.00  0.00    +0.229 C 
ATOM     18  O   UNL     1       4.068  -1.677  -4.557  0.00  0.00    -0.274 OA
ATOM     19  N   UNL     1       3.934  -3.788  -3.887  0.00  0.00    -0.233 N 
ATOM     20  H   UNL     1       3.645  -4.423  -3.214  0.00  0.00    +0.173 HD
BRANCH  17  21
ATOM     21  C   UNL     1       3.001  -1.985  -2.475  0.00  0.00    +0.097 C 
BRANCH  21  22
ATOM     22  C   UNL     1       2.870  -0.461  -2.526  0.00  0.00    +0.013 C 
BRANCH  22  26
ATOM     23  C   UNL     1      -0.019   1.526   0.010  0.00  0.00    +0.000 C 
ATOM     24  C   UNL     1       1.417   2.055  -0.000  0.00  0.00    +0.000 C 
ATOM     25  C   UNL     1       2.133   1.562  -1.259  0.00  0.00    +0.003 C 
ATOM     26  C   UNL     1       2.154   0.032  -1.268  0.00  0.00    -0.011 C 
ATOM     27  C   UNL     1       0.718  -0.497  -1.257  0.00  0.00    +0.003 C 
ATOM     28  C   UNL     1       0.002  -0.004   0.002  0.00  0.00    +0.000 C 
ENDBRANCH  22  26
ENDBRANCH  21  22
ENDBRANCH  17  21
ENDBRANCH   1  19
TORSDOF 6
