REMARK  Name = ZINC09448562
REMARK  4 active torsions:
REMARK  status: ('A' for Active; 'I' for Inactive)
REMARK    1  A    between atoms: C_1  and  C_2
REMARK    2  A    between atoms: C_5  and  C_8
REMARK    3  A    between atoms: C_10  and  C_35
REMARK    4  A    between atoms: C_26  and  C_29
REMARK                            x       y       z     vdW  Elec       q    Type
REMARK                         _______ _______ _______ _____ _____    ______ ____
ROOT
ATOM      1  C   UNL     1      -5.098   4.029   0.154  0.00  0.00    +0.098 C 
ATOM      2  C   UNL     1      -5.273   4.819   1.435  0.00  0.00    +0.082 C 
ATOM      3  C   UNL     1      -4.606   4.347   2.560  0.00  0.00    +0.146 C 
ATOM      4  N   UNL     1      -4.738   5.039   3.702  0.00  0.00    -0.215 NA
ATOM      5  C   UNL     1      -4.277   4.588   4.852  0.00  0.00    +0.127 C 
ATOM      6  C   UNL     1      -3.641   3.262   4.884  0.00  0.00    +0.036 A 
ATOM      7  C   UNL     1      -3.235   2.681   6.084  0.00  0.00    +0.013 A 
ATOM      8  C   UNL     1      -2.718   1.403   6.082  0.00  0.00    +0.001 A 
ATOM      9  C   UNL     1      -2.645   0.686   4.898  0.00  0.00    +0.002 A 
ATOM     10  C   UNL     1      -3.032   1.259   3.702  0.00  0.00    +0.024 A 
ATOM     11  C   UNL     1      -3.469   2.574   3.668  0.00  0.00    +0.050 A 
ATOM     12  N   UNL     1      -3.806   3.221   2.483  0.00  0.00    -0.256 N 
ATOM     13  C   UNL     1      -3.312   2.770   1.285  0.00  0.00    +0.025 C 
ATOM     14  C   UNL     1      -3.874   3.134   0.107  0.00  0.00    +0.025 C 
ATOM     15  C   UNL     1      -3.368   2.720  -1.130  0.00  0.00    +0.162 C 
ATOM     16  O   UNL     1      -3.947   3.022  -2.155  0.00  0.00    -0.292 OA
ATOM     17  C   UNL     1      -2.105   1.902  -1.216  0.00  0.00    +0.091 C 
ATOM     18  C   UNL     1      -1.250   2.203   0.020  0.00  0.00    +0.068 C 
ATOM     19  C   UNL     1      -2.085   1.891   1.266  0.00  0.00    +0.063 C 
ATOM     20  N   UNL     1      -4.392   5.346   5.990  0.00  0.00    -0.343 N 
ATOM     21  H   UNL     1      -4.050   5.009   6.833  0.00  0.00    +0.144 HD
ATOM     22  H   UNL     1      -4.814   6.218   5.952  0.00  0.00    +0.144 HD
ENDROOT
BRANCH   1  27
ATOM     23  C   UNL     1      -9.785   0.721  -0.541  0.00  0.00    +0.044 C 
ATOM     24  C   UNL     1      -8.563   1.584  -0.359  0.00  0.00    -0.050 A 
ATOM     25  C   UNL     1      -8.292   2.597  -1.260  0.00  0.00    +0.003 A 
ATOM     26  C   UNL     1      -7.171   3.388  -1.094  0.00  0.00    +0.005 A 
ATOM     27  C   UNL     1      -6.320   3.166  -0.027  0.00  0.00    -0.035 A 
ATOM     28  C   UNL     1      -6.588   2.150   0.870  0.00  0.00    +0.005 A 
ATOM     29  C   UNL     1      -7.712   1.362   0.707  0.00  0.00    +0.003 A 
ENDBRANCH   1  27
BRANCH  18  30
ATOM     30  C   UNL     1      -0.016   1.339   0.009  0.00  0.00    +0.109 A 
ATOM     31  C   UNL     1       1.254   1.781  -0.000  0.00  0.00    +0.045 A 
ATOM     32  C   UNL     1       2.086   0.638  -0.014  0.00  0.00    +0.041 A 
ATOM     33  C   UNL     1       1.274  -0.435  -0.012  0.00  0.00    +0.195 A 
ATOM     34  O   UNL     1       0.002  -0.004   0.002  0.00  0.00    -0.468 OA
ENDBRANCH  18  30
BRANCH   2  35
ATOM     35  C   UNL     1      -6.087   5.992   1.480  0.00  0.00    +0.099 C 
ATOM     36  N   UNL     1      -6.735   6.924   1.516  0.00  0.00    -0.191 NA
ENDBRANCH   2  35
TORSDOF 3
