REMARK  Name = ZINC58434223
REMARK  9 active torsions:
REMARK  status: ('A' for Active; 'I' for Inactive)
REMARK    1  A    between atoms: C_1  and  C_2
REMARK    2  A    between atoms: C_3  and  C_34
REMARK    3  A    between atoms: C_11  and  C_13
REMARK    4  A    between atoms: C_13  and  C_15
REMARK    5  A    between atoms: C_13  and  N_16
REMARK    6  A    between atoms: N_16  and  C_17
REMARK    7  A    between atoms: C_20  and  N_24
REMARK    8  A    between atoms: C_26  and  C_33
REMARK    9  A    between atoms: C_29  and  C_32
REMARK                            x       y       z     vdW  Elec       q    Type
REMARK                         _______ _______ _______ _____ _____    ______ ____
ROOT
ATOM      1  N   UNL     1      -0.016  -4.809   4.057  0.00  0.00    -0.334 N 
ATOM      2  H   UNL     1      -0.437  -4.988   3.201  0.00  0.00    +0.147 HD
ENDROOT
BRANCH   1   3
ATOM      3  C   UNL     1       0.490  -5.865   4.823  0.00  0.00    +0.030 A 
ATOM      4  C   UNL     1       1.087  -5.609   6.050  0.00  0.00    +0.025 A 
ATOM      5  C   UNL     1       1.587  -6.652   6.807  0.00  0.00    +0.028 A 
ATOM      6  C   UNL     1       1.492  -7.955   6.341  0.00  0.00    +0.066 A 
ATOM      7  C   UNL     1       0.895  -8.213   5.112  0.00  0.00    +0.146 A 
ATOM      8  C   UNL     1       0.389  -7.170   4.358  0.00  0.00    +0.063 A 
ATOM      9  F   UNL     1       0.803  -9.482   4.658  0.00  0.00    -0.203 F 
BRANCH   6  10
ATOM     10  N   UNL     1       2.000  -9.013   7.108  0.00  0.00    -0.323 N 
ATOM     11  C   UNL     1       3.395  -9.457   6.957  0.00  0.00    +0.136 C 
ATOM     12  C   UNL     1       4.036  -9.519   8.348  0.00  0.00    +0.133 C 
ATOM     13  O   UNL     1       3.210 -10.304   9.212  0.00  0.00    -0.371 OA
ATOM     14  C   UNL     1       1.905  -9.761   9.425  0.00  0.00    +0.133 C 
ATOM     15  C   UNL     1       1.156  -9.707   8.094  0.00  0.00    +0.136 C 
ATOM     16  C   UNL     1       1.138 -10.646  10.410  0.00  0.00    +0.039 C 
ATOM     17  C   UNL     1       4.170  -8.104   8.913  0.00  0.00    +0.039 C 
ENDBRANCH   6  10
ENDBRANCH   1   3
BRANCH   1  18
ATOM     18  C   UNL     1       0.090  -3.432   4.547  0.00  0.00    +0.133 C 
ATOM     19  C   UNL     1      -1.088  -3.129   5.476  0.00  0.00    +0.036 C 
BRANCH  18  30
ATOM     20  C   UNL     1      -0.018   1.503   0.010  0.00  0.00    +0.045 C 
ATOM     21  C   UNL     1       0.002  -0.004   0.002  0.00  0.00    -0.026 A 
ATOM     22  C   UNL     1       0.006  -0.677  -1.160  0.00  0.00    -0.008 A 
ATOM     23  S   UNL     1       0.032  -2.385  -0.648  0.00  0.00    -0.073 S 
ATOM     24  C   UNL     1       0.037  -2.144   1.110  0.00  0.00    +0.116 A 
ATOM     25  C   UNL     1       0.024  -0.745   1.250  0.00  0.00    +0.075 A 
ATOM     26  C   UNL     1       0.029  -0.257   2.597  0.00  0.00    +0.260 A 
ATOM     27  O   UNL     1       0.014   0.942   2.821  0.00  0.00    -0.267 OA
ATOM     28  N   UNL     1       0.051  -1.142   3.611  0.00  0.00    -0.309 N 
ATOM     29  H   UNL     1       0.054  -0.817   4.525  0.00  0.00    +0.170 HD
ATOM     30  C   UNL     1       0.067  -2.480   3.380  0.00  0.00    +0.131 A 
ATOM     31  N   UNL     1       0.053  -2.956   2.163  0.00  0.00    -0.225 NA
ATOM     32  C   UNL     1      -0.009  -0.122  -2.561  0.00  0.00    +0.052 C 
ENDBRANCH  18  30
ENDBRANCH   1  18
TORSDOF 4
