REMARK  Name = ZINC44012878
REMARK  12 active torsions:
REMARK  status: ('A' for Active; 'I' for Inactive)
REMARK    1  A    between atoms: C_1  and  C_2
REMARK    2  A    between atoms: C_2  and  C_3
REMARK    3  A    between atoms: C_2  and  C_4
REMARK    4  A    between atoms: C_2  and  C_5
REMARK    5  A    between atoms: N_7  and  C_8
REMARK    6  A    between atoms: C_12  and  N_14
REMARK    7  A    between atoms: N_17  and  C_18
REMARK    8  A    between atoms: C_18  and  C_19
REMARK    9  A    between atoms: C_19  and  C_21
REMARK   10  A    between atoms: C_19  and  N_26
REMARK   11  A    between atoms: N_26  and  C_27
REMARK   12  A    between atoms: N_26  and  C_28
REMARK                            x       y       z     vdW  Elec       q    Type
REMARK                         _______ _______ _______ _____ _____    ______ ____
ROOT
ATOM      1  N   UNL     1       2.390  -5.327  -4.489  0.00  0.00    -0.269 N 
ATOM      2  C   UNL     1       3.255  -5.714  -5.448  0.00  0.00    +0.304 C 
ATOM      3  O   UNL     1       3.829  -4.880  -6.121  0.00  0.00    -0.253 OA
ATOM      4  N   UNL     1       3.482  -7.025  -5.661  0.00  0.00    -0.300 N 
ATOM      5  H   UNL     1       1.881  -5.991  -3.998  0.00  0.00    +0.156 HD
ATOM      6  H   UNL     1       3.024  -7.690  -5.124  0.00  0.00    +0.150 HD
ENDROOT
BRANCH   1  11
ATOM      7  C   UNL     1       1.831  -2.208  -2.615  0.00  0.00    +0.035 A 
ATOM      8  C   UNL     1       1.906  -1.272  -3.639  0.00  0.00    +0.023 A 
ATOM      9  C   UNL     1       2.140  -1.684  -4.937  0.00  0.00    +0.004 A 
ATOM     10  C   UNL     1       2.301  -3.027  -5.221  0.00  0.00    +0.023 A 
ATOM     11  C   UNL     1       2.228  -3.967  -4.201  0.00  0.00    +0.037 A 
ATOM     12  C   UNL     1       1.998  -3.556  -2.896  0.00  0.00    +0.046 A 
BRANCH   7  15
ATOM     13  C   UNL     1       2.182  -2.434  -0.273  0.00  0.00    +0.223 C 
ATOM     14  O   UNL     1       2.847  -3.426  -0.479  0.00  0.00    -0.275 OA
ATOM     15  N   UNL     1       1.594  -1.790  -1.301  0.00  0.00    -0.285 N 
ATOM     16  H   UNL     1       1.006  -1.038  -1.130  0.00  0.00    +0.155 HD
BRANCH  13  18
ATOM     17  C   UNL     1       2.774  -2.825   2.103  0.00  0.00    +0.020 C 
ATOM     18  C   UNL     1       2.011  -1.920   1.134  0.00  0.00    +0.039 C 
ATOM     19  C   UNL     1       0.526  -1.917   1.500  0.00  0.00    +0.020 C 
ATOM     20  C   UNL     1       2.562  -0.495   1.226  0.00  0.00    +0.020 C 
ENDBRANCH  13  18
ENDBRANCH   7  15
ENDBRANCH   1  11
BRANCH   4  21
ATOM     21  C   UNL     1       4.422  -7.446  -6.703  0.00  0.00    +0.095 C 
BRANCH  21  22
ATOM     22  C   UNL     1       4.402  -8.971  -6.822  0.00  0.00    -0.014 C 
BRANCH  22  23
ATOM     23  C   UNL     1       3.047  -9.421  -7.304  0.00  0.00    -0.022 A 
ATOM     24  C   UNL     1       2.008  -9.916  -6.589  0.00  0.00    +0.009 A 
ATOM     25  C   UNL     1       0.846 -10.266  -7.250  0.00  0.00    +0.008 A 
ATOM     26  C   UNL     1       0.779 -10.104  -8.594  0.00  0.00    +0.045 A 
ATOM     27  S   UNL     1       2.391  -9.431  -8.964  0.00  0.00    -0.103 S 
ENDBRANCH  22  23
BRANCH  22  28
ATOM     28  N   UNL     1       5.430  -9.401  -7.780  0.00  0.00    +0.382 N 
ATOM     29  C   UNL     1       6.761  -9.071  -7.251  0.00  0.00    -0.096 C 
ATOM     30  C   UNL     1       5.331 -10.852  -7.986  0.00  0.00    -0.096 C 
ATOM     31  H   UNL     1       5.290  -8.925  -8.659  0.00  0.00    -0.082 HD
ENDBRANCH  22  28
ENDBRANCH  21  22
ENDBRANCH   4  21
TORSDOF 7
