REMARK  Name = ZINC39509696
REMARK  6 active torsions:
REMARK  status: ('A' for Active; 'I' for Inactive)
REMARK    1  A    between atoms: C_1  and  S_2
REMARK    2  A    between atoms: S_2  and  C_3
REMARK    3  A    between atoms: N_8  and  S_22
REMARK    4  A    between atoms: C_12  and  C_15
REMARK    5  A    between atoms: C_15  and  C_16
REMARK    6  A    between atoms: S_22  and  C_23
REMARK                            x       y       z     vdW  Elec       q    Type
REMARK                         _______ _______ _______ _____ _____    ______ ____
ROOT
ATOM      1  C   UNL     1       0.873  -0.423  -1.533  0.00  0.00    +0.037 C 
ATOM      2  C   UNL     1       0.043   0.039  -2.735  0.00  0.00    +0.011 C 
ATOM      3  C   UNL     1       0.744  -0.400  -4.024  0.00  0.00    -0.016 C 
ATOM      4  C   UNL     1       0.932  -1.918  -4.006  0.00  0.00    -0.062 C 
ATOM      5  N   UNL     1       1.757  -2.299  -2.853  0.00  0.00    +0.398 N 
ATOM      6  C   UNL     1       1.074  -1.935  -1.609  0.00  0.00    -0.041 C 
ATOM      7  C   UNL     1       1.888  -2.417  -0.399  0.00  0.00    -0.009 C 
ATOM      8  C   UNL     1       0.987  -3.407   0.369  0.00  0.00    +0.002 C 
ATOM      9  C   UNL     1      -0.452  -3.009  -0.042  0.00  0.00    -0.008 C 
ATOM     10  C   UNL     1      -0.292  -2.643  -1.539  0.00  0.00    -0.006 C 
ATOM     11  H   UNL     1       2.643  -1.819  -2.901  0.00  0.00    -0.064 HD
ENDROOT
BRANCH   1  13
ATOM     12  C   UNL     1      -0.022   1.810   0.012  0.00  0.00    +0.084 C 
ATOM     13  S   UNL     1       0.002  -0.004   0.002  0.00  0.00    -0.162 S 
ENDBRANCH   1  13
BRANCH   5  14
ATOM     14  S   UNL     1       2.035  -4.042  -2.881  0.00  0.00    -0.226 S 
ATOM     15  C   UNL     1       3.021  -4.305  -4.380  0.00  0.00    +0.063 C 
ENDBRANCH   5  14
BRANCH   9  16
ATOM     16  C   UNL     1      -1.411  -4.188   0.132  0.00  0.00    +0.038 C 
BRANCH  16  17
ATOM     17  C   UNL     1      -1.541  -4.518   1.597  0.00  0.00    -0.047 A 
ATOM     18  C   UNL     1      -0.678  -5.426   2.180  0.00  0.00    +0.003 A 
ATOM     19  C   UNL     1      -0.797  -5.728   3.524  0.00  0.00    +0.000 A 
ATOM     20  C   UNL     1      -1.780  -5.122   4.284  0.00  0.00    +0.000 A 
ATOM     21  C   UNL     1      -2.643  -4.213   3.701  0.00  0.00    +0.000 A 
ATOM     22  C   UNL     1      -2.521  -3.907   2.358  0.00  0.00    +0.003 A 
ENDBRANCH  16  17
ENDBRANCH   9  16
TORSDOF 4
