REMARK  Name = ZINC03009113
REMARK  4 active torsions:
REMARK  status: ('A' for Active; 'I' for Inactive)
REMARK    1  A    between atoms: C_5  and  C_7
REMARK    2  A    between atoms: N_9  and  C_10
REMARK    3  A    between atoms: N_14  and  C_15
REMARK    4  A    between atoms: C_18  and  N_21
REMARK                            x       y       z     vdW  Elec       q    Type
REMARK                         _______ _______ _______ _____ _____    ______ ____
ROOT
ATOM      1  C   UNL     1      -0.021  -0.084   0.066  0.00  0.00    +0.134 A 
ATOM      2  C   UNL     1       1.280  -0.443   0.340  0.00  0.00    +0.038 A 
ATOM      3  C   UNL     1       2.068   0.689   0.215  0.00  0.00    +0.091 A 
ATOM      4  N   UNL     1       1.286   1.705  -0.122  0.00  0.00    -0.168 NA
ATOM      5  N   UNL     1      -0.027   1.242  -0.220  0.00  0.00    -0.218 N 
ATOM      6  C   UNL     1       3.563   0.517   0.478  0.00  0.00    +0.223 C 
ATOM      7  S   UNL     1       3.611  -1.110   1.335  0.00  0.00    -0.021 S 
ATOM      8  O   UNL     1       3.539  -0.905   2.739  0.00  0.00    -0.174 OA
ATOM      9  O   UNL     1       4.658  -1.900   0.789  0.00  0.00    -0.174 OA
ATOM     10  C   UNL     1       1.992  -1.738   0.727  0.00  0.00    +0.206 C 
ENDROOT
BRANCH   5  11
ATOM     11  C   UNL     1      -1.150   2.008  -0.560  0.00  0.00    +0.068 A 
ATOM     12  C   UNL     1      -2.103   1.498  -1.432  0.00  0.00    +0.030 A 
ATOM     13  C   UNL     1      -3.211   2.254  -1.761  0.00  0.00    +0.035 A 
ATOM     14  C   UNL     1      -3.367   3.522  -1.232  0.00  0.00    +0.126 A 
ATOM     15  C   UNL     1      -2.418   4.035  -0.367  0.00  0.00    +0.035 A 
ATOM     16  C   UNL     1      -1.310   3.281  -0.030  0.00  0.00    +0.030 A 
BRANCH  14  17
ATOM     17  N   UNL     1      -4.553   4.332  -1.591  0.00  0.00    +0.056 N 
ATOM     18  O   UNL     1      -4.691   5.448  -1.126  0.00  0.00    -0.126 OA
ATOM     19  O   UNL     1      -5.390   3.881  -2.353  0.00  0.00    -0.126 OA
ENDBRANCH  14  17
ENDBRANCH   5  11
BRANCH   1  22
ATOM     20  C   UNL     1      -0.980  -2.240  -0.189  0.00  0.00    +0.251 C 
ATOM     21  O   UNL     1       0.128  -2.696  -0.395  0.00  0.00    -0.270 OA
ATOM     22  N   UNL     1      -1.129  -0.928   0.082  0.00  0.00    -0.266 N 
ATOM     23  H   UNL     1      -2.007  -0.572   0.287  0.00  0.00    +0.157 HD
BRANCH  20  28
ATOM     24  C   UNL     1      -4.522  -3.459   0.066  0.00  0.00    +0.001 A 
ATOM     25  C   UNL     1      -4.382  -4.780  -0.323  0.00  0.00    +0.001 A 
ATOM     26  C   UNL     1      -3.139  -5.278  -0.668  0.00  0.00    +0.021 A 
ATOM     27  C   UNL     1      -2.028  -4.458  -0.627  0.00  0.00    +0.053 A 
ATOM     28  C   UNL     1      -2.163  -3.123  -0.236  0.00  0.00    +0.055 A 
ATOM     29  C   UNL     1      -3.421  -2.630   0.116  0.00  0.00    +0.014 A 
ATOM     30 CL   UNL     1      -0.468  -5.084  -1.060  0.00  0.00    -0.083 Cl
ENDBRANCH  20  28
ENDBRANCH   1  22
TORSDOF 4
