REMARK  Name = ZINC36027333
REMARK  7 active torsions:
REMARK  status: ('A' for Active; 'I' for Inactive)
REMARK    1  A    between atoms: C_1  and  C_2
REMARK    2  A    between atoms: C_2  and  C_3
REMARK    3  A    between atoms: C_3  and  N_4
REMARK    4  A    between atoms: C_7  and  C_27
REMARK    5  A    between atoms: N_13  and  S_16
REMARK    6  A    between atoms: S_16  and  C_19
REMARK    7  A    between atoms: C_27  and  C_28
REMARK                            x       y       z     vdW  Elec       q    Type
REMARK                         _______ _______ _______ _____ _____    ______ ____
ROOT
ATOM      1  N   UNL     1       0.659  -1.972   1.296  0.00  0.00    -0.314 N 
ATOM      2  C   UNL     1      -0.365  -2.675   1.822  0.00  0.00    +0.201 C 
ATOM      3  O   UNL     1      -1.361  -2.204   2.330  0.00  0.00    -0.277 OA
ATOM      4  C   UNL     1      -0.063  -4.151   1.673  0.00  0.00    +0.023 C 
ATOM      5  N   UNL     1       1.017  -4.214   0.659  0.00  0.00    +0.401 N 
ATOM      6  C   UNL     1       1.673  -2.897   0.782  0.00  0.00    +0.006 C 
ATOM      7  C   UNL     1       2.166  -2.434  -0.588  0.00  0.00    +0.023 C 
ATOM      8  C   UNL     1       2.813  -1.051  -0.454  0.00  0.00    +0.109 C 
ATOM      9  N   UNL     1       3.854  -1.115   0.582  0.00  0.00    -0.177 NA
ATOM     10  C   UNL     1       3.495  -1.619   1.914  0.00  0.00    +0.109 C 
ATOM     11  C   UNL     1       2.842  -2.997   1.761  0.00  0.00    +0.023 C 
ATOM     12  H   UNL     1       1.664  -4.958   0.873  0.00  0.00    -0.082 HD
ATOM     13  H   UNL     1       0.631  -4.331  -0.266  0.00  0.00    -0.082 HD
ENDROOT
BRANCH   9  14
ATOM     14  S   UNL     1       5.402  -0.628   0.253  0.00  0.00    +0.061 S 
ATOM     15  O   UNL     1       6.244  -1.300   1.179  0.00  0.00    -0.153 OA
ATOM     16  O   UNL     1       5.573  -0.740  -1.153  0.00  0.00    -0.153 OA
BRANCH  14  17
ATOM     17  C   UNL     1       5.500   1.089   0.637  0.00  0.00    +0.107 A 
ATOM     18  C   UNL     1       5.210   2.032  -0.333  0.00  0.00    +0.030 A 
ATOM     19  C   UNL     1       5.287   3.379  -0.033  0.00  0.00    +0.023 A 
ATOM     20  C   UNL     1       5.654   3.785   1.238  0.00  0.00    +0.059 A 
ATOM     21  C   UNL     1       5.943   2.841   2.208  0.00  0.00    +0.061 A 
ATOM     22  C   UNL     1       5.861   1.493   1.908  0.00  0.00    +0.050 A 
ATOM     23 CL   UNL     1       6.404   3.349   3.803  0.00  0.00    -0.082 Cl
ATOM     24 CL   UNL     1       5.751   5.477   1.614  0.00  0.00    -0.082 Cl
ENDBRANCH  14  17
ENDBRANCH   9  14
BRANCH   1  25
ATOM     25  C   UNL     1       0.742  -0.511   1.242  0.00  0.00    +0.106 C 
BRANCH  25  27
ATOM     26  C   UNL     1       0.280   1.501  -0.166  0.00  0.00    +0.005 C 
ATOM     27  C   UNL     1       0.075  -0.010  -0.041  0.00  0.00    +0.015 C 
ENDBRANCH  25  27
ENDBRANCH   1  25
BRANCH   4  28
ATOM     28  C   UNL     1      -1.302  -4.902   1.183  0.00  0.00    +0.028 C 
BRANCH  28  29
ATOM     29  C   UNL     1      -1.004  -6.378   1.125  0.00  0.00    -0.048 A 
ATOM     30  C   UNL     1      -0.488  -6.934  -0.031  0.00  0.00    +0.003 A 
ATOM     31  C   UNL     1      -0.215  -8.288  -0.084  0.00  0.00    +0.000 A 
ATOM     32  C   UNL     1      -0.458  -9.086   1.018  0.00  0.00    +0.000 A 
ATOM     33  C   UNL     1      -0.973  -8.530   2.174  0.00  0.00    +0.000 A 
ATOM     34  C   UNL     1      -1.242  -7.175   2.229  0.00  0.00    +0.003 A 
ENDBRANCH  28  29
ENDBRANCH   4  28
TORSDOF 6
