REMARK  Name = ZINC02309886
REMARK  9 active torsions:
REMARK  status: ('A' for Active; 'I' for Inactive)
REMARK    1  A    between atoms: C_1  and  C_2
REMARK    2  A    between atoms: C_2  and  O_3
REMARK    3  A    between atoms: O_3  and  C_4
REMARK    4  A    between atoms: C_4  and  C_6
REMARK    5  A    between atoms: C_6  and  S_7
REMARK    6  A    between atoms: S_7  and  C_8
REMARK    7  A    between atoms: C_9  and  C_27
REMARK    8  A    between atoms: C_10  and  C_20
REMARK    9  A    between atoms: C_25  and  C_26
REMARK                            x       y       z     vdW  Elec       q    Type
REMARK                         _______ _______ _______ _____ _____    ______ ____
ROOT
ATOM      1  C   UNL     1       1.589  -5.530  -3.301  0.00  0.00    +0.080 C 
ATOM      2  C   UNL     1       2.022  -6.679  -3.888  0.00  0.00    +0.069 C 
ATOM      3  C   UNL     1       2.849  -6.645  -5.139  0.00  0.00    +0.097 C 
ATOM      4  C   UNL     1       3.457  -5.282  -5.352  0.00  0.00    +0.024 C 
ATOM      5  C   UNL     1       2.969  -4.196  -4.715  0.00  0.00    +0.016 C 
ATOM      6  N   UNL     1       1.911  -4.311  -3.852  0.00  0.00    -0.311 N 
ATOM      7  C   UNL     1       3.563  -2.828  -4.943  0.00  0.00    +0.051 C 
ATOM      8  C   UNL     1       5.056  -2.962  -5.254  0.00  0.00    +0.014 C 
ATOM      9  C   UNL     1       5.216  -3.852  -6.491  0.00  0.00    +0.080 C 
ATOM     10  C   UNL     1       4.548  -5.175  -6.233  0.00  0.00    +0.162 C 
ATOM     11  O   UNL     1       4.959  -6.170  -6.795  0.00  0.00    -0.292 OA
ATOM     12  H   UNL     1       1.387  -3.527  -3.623  0.00  0.00    +0.152 HD
ENDROOT
BRANCH   3  13
ATOM     13  C   UNL     1       1.976  -6.986  -6.319  0.00  0.00    -0.032 A 
ATOM     14  C   UNL     1       0.954  -6.133  -6.691  0.00  0.00    +0.005 A 
ATOM     15  C   UNL     1       0.153  -6.445  -7.773  0.00  0.00    +0.000 A 
ATOM     16  C   UNL     1       0.374  -7.610  -8.484  0.00  0.00    +0.000 A 
ATOM     17  C   UNL     1       1.397  -8.462  -8.112  0.00  0.00    +0.003 A 
ATOM     18  C   UNL     1       2.201  -8.148  -7.032  0.00  0.00    -0.046 A 
ATOM     19  C   UNL     1       3.320  -9.074  -6.630  0.00  0.00    +0.044 C 
ENDBRANCH   3  13
BRANCH   2  20
ATOM     20  C   UNL     1       1.681  -7.940  -3.303  0.00  0.00    +0.098 C 
ATOM     21  N   UNL     1       1.410  -8.941  -2.838  0.00  0.00    -0.191 NA
ENDBRANCH   2  20
BRANCH   1  22
ATOM     22  S   UNL     1       0.610  -5.604  -1.839  0.00  0.00    -0.098 S 
BRANCH  22  23
ATOM     23  C   UNL     1       0.277  -3.865  -1.445  0.00  0.00    +0.196 C 
BRANCH  23  24
ATOM     24  C   UNL     1      -0.564  -3.785  -0.197  0.00  0.00    +0.317 C 
ATOM     25  O   UNL     1      -0.904  -4.797   0.368  0.00  0.00    -0.250 OA
BRANCH  24  26
ATOM     26  O   UNL     1      -0.935  -2.588   0.286  0.00  0.00    -0.464 OA
BRANCH  26  28
ATOM     27  C   UNL     1      -2.054  -1.145   1.868  0.00  0.00    +0.048 C 
ATOM     28  C   UNL     1      -1.732  -2.587   1.472  0.00  0.00    +0.229 C 
ENDBRANCH  26  28
ENDBRANCH  24  26
ENDBRANCH  23  24
ENDBRANCH  22  23
ENDBRANCH   1  22
TORSDOF 7
