REMARK  Name = ZINC12917400
REMARK  5 active torsions:
REMARK  status: ('A' for Active; 'I' for Inactive)
REMARK    1  A    between atoms: C_4  and  C_7
REMARK    2  A    between atoms: C_9  and  C_12
REMARK    3  A    between atoms: C_12  and  S_13
REMARK    4  A    between atoms: S_13  and  C_14
REMARK    5  A    between atoms: C_14  and  C_15
REMARK                            x       y       z     vdW  Elec       q    Type
REMARK                         _______ _______ _______ _____ _____    ______ ____
ROOT
ATOM      1  S   UNL     1      -0.890   1.687  -1.462  0.00  0.00    -0.147 S 
ENDROOT
BRANCH   1   2
ATOM      2  C   UNL     1      -0.013   1.086   0.008  0.00  0.00    +0.125 C 
BRANCH   2   5
ATOM      3  C   UNL     1      -0.987   3.171   2.878  0.00  0.00    +0.109 A 
ATOM      4  N   UNL     1      -0.379   2.717   1.791  0.00  0.00    -0.243 NA
ATOM      5  C   UNL     1      -0.718   1.572   1.248  0.00  0.00    +0.059 A 
ATOM      6  C   UNL     1      -1.703   0.821   1.809  0.00  0.00    +0.071 A 
ATOM      7  S   UNL     1      -2.156   1.856   3.196  0.00  0.00    -0.075 S 
BRANCH   3  11
ATOM      8  C   UNL     1      -0.325   6.771   5.034  0.00  0.00    +0.000 A 
ATOM      9  C   UNL     1      -1.294   5.880   5.461  0.00  0.00    +0.001 A 
ATOM     10  C   UNL     1      -1.514   4.709   4.765  0.00  0.00    +0.010 A 
ATOM     11  C   UNL     1      -0.757   4.424   3.628  0.00  0.00    +0.007 A 
ATOM     12  C   UNL     1       0.222   5.324   3.206  0.00  0.00    +0.010 A 
ATOM     13  C   UNL     1       0.429   6.494   3.907  0.00  0.00    +0.001 A 
ENDBRANCH   3  11
ENDBRANCH   2   5
ENDBRANCH   1   2
BRANCH   1  14
ATOM     14  C   UNL     1       0.072   1.024  -2.849  0.00  0.00    +0.145 C 
BRANCH  14  15
ATOM     15  C   UNL     1      -0.557   1.455  -4.149  0.00  0.00    +0.146 A 
ATOM     16  N   UNL     1      -1.477   0.697  -4.718  0.00  0.00    -0.199 NA
ATOM     17  C   UNL     1      -2.039   1.076  -5.864  0.00  0.00    +0.217 A 
ATOM     18  N   UNL     1      -1.666   2.214  -6.439  0.00  0.00    -0.181 NA
ATOM     19  C   UNL     1      -0.738   2.971  -5.866  0.00  0.00    +0.217 A 
ATOM     20  N   UNL     1      -0.184   2.587  -4.718  0.00  0.00    -0.199 NA
ATOM     21  N   UNL     1      -0.347   4.154  -6.460  0.00  0.00    -0.327 N 
ATOM     22  N   UNL     1      -3.003   0.286  -6.456  0.00  0.00    -0.327 N 
ATOM     23  H   UNL     1       0.332   4.706  -6.041  0.00  0.00    +0.145 HD
ATOM     24  H   UNL     1      -0.750   4.433  -7.297  0.00  0.00    +0.145 HD
ATOM     25  H   UNL     1      -3.409   0.561  -7.292  0.00  0.00    +0.145 HD
ATOM     26  H   UNL     1      -3.275  -0.545  -6.035  0.00  0.00    +0.145 HD
ENDBRANCH  14  15
ENDBRANCH   1  14
TORSDOF 5
