REMARK  Name = ZINC09946657
REMARK  16 active torsions:
REMARK  status: ('A' for Active; 'I' for Inactive)
REMARK    1  A    between atoms: C_1  and  C_2
REMARK    2  A    between atoms: C_3  and  C_31
REMARK    3  A    between atoms: C_5  and  S_8
REMARK    4  A    between atoms: S_8  and  C_9
REMARK    5  A    between atoms: C_9  and  C_10
REMARK    6  A    between atoms: N_12  and  C_13
REMARK    7  A    between atoms: N_12  and  C_17
REMARK    8  A    between atoms: C_13  and  C_14
REMARK    9  A    between atoms: C_14  and  C_15
REMARK   10  A    between atoms: C_14  and  C_16
REMARK   11  A    between atoms: C_18  and  N_30
REMARK   12  A    between atoms: N_19  and  C_26
REMARK   13  A    between atoms: C_26  and  C_27
REMARK   14  A    between atoms: C_27  and  C_28
REMARK   15  A    between atoms: C_27  and  C_29
REMARK   16  A    between atoms: C_31  and  C_32
REMARK                            x       y       z     vdW  Elec       q    Type
REMARK                         _______ _______ _______ _____ _____    ______ ____
ROOT
ATOM      1  C   UNL     1       1.809  -4.382  -4.758  0.00  0.00    +0.230 C 
ATOM      2  O   UNL     1       2.386  -4.896  -5.693  0.00  0.00    -0.274 OA
ATOM      3  N   UNL     1       0.860  -5.071  -4.090  0.00  0.00    -0.263 N 
ENDROOT
BRANCH   3   4
ATOM      4  C   UNL     1       0.467  -6.349  -4.541  0.00  0.00    +0.140 A 
ATOM      5  C   UNL     1      -0.084  -6.512  -5.795  0.00  0.00    +0.127 A 
ATOM      6  N   UNL     1      -0.457  -7.771  -6.207  0.00  0.00    -0.280 N 
ATOM      7  C   UNL     1      -0.286  -8.830  -5.396  0.00  0.00    +0.331 A 
ATOM      8  O   UNL     1      -0.622  -9.935  -5.778  0.00  0.00    -0.246 OA
ATOM      9  N   UNL     1       0.250  -8.691  -4.170  0.00  0.00    -0.273 N 
ATOM     10  H   UNL     1       0.362  -9.494  -3.585  0.00  0.00    +0.173 HD
ATOM     11  C   UNL     1       0.637  -7.481  -3.721  0.00  0.00    +0.277 A 
ATOM     12  O   UNL     1       1.126  -7.366  -2.610  0.00  0.00    -0.266 OA
BRANCH   5  13
ATOM     13  N   UNL     1      -0.259  -5.430  -6.624  0.00  0.00    -0.343 N 
ATOM     14  H   UNL     1      -0.068  -4.535  -6.301  0.00  0.00    +0.144 HD
ATOM     15  H   UNL     1      -0.573  -5.560  -7.532  0.00  0.00    +0.144 HD
ENDBRANCH   5  13
BRANCH   6  16
ATOM     16  C   UNL     1      -1.043  -7.958  -7.536  0.00  0.00    +0.131 C 
BRANCH  16  17
ATOM     17  C   UNL     1       0.070  -8.234  -8.550  0.00  0.00    +0.003 C 
ATOM     18  C   UNL     1       0.747  -9.564  -8.215  0.00  0.00    +0.009 C 
ATOM     19  C   UNL     1      -0.528  -8.306  -9.956  0.00  0.00    +0.009 C 
ENDBRANCH  16  17
ENDBRANCH   6  16
ENDBRANCH   3   4
BRANCH   1  20
ATOM     20  C   UNL     1       2.153  -2.975  -4.341  0.00  0.00    +0.173 C 
BRANCH  20  21
ATOM     21  S   UNL     1       3.452  -2.326  -5.420  0.00  0.00    -0.079 S 
BRANCH  21  26
ATOM     22  C   UNL     1       5.104   2.637  -4.439  0.00  0.00    +0.065 C 
ATOM     23  C   UNL     1       4.356   1.331  -4.348  0.00  0.00    +0.037 A 
ATOM     24  C   UNL     1       3.399   1.019  -3.458  0.00  0.00    +0.067 A 
ATOM     25  N   UNL     1       2.986  -0.236  -3.704  0.00  0.00    -0.226 NA
ATOM     26  C   UNL     1       3.651  -0.718  -4.728  0.00  0.00    +0.167 A 
ATOM     27  N   UNL     1       4.523   0.233  -5.160  0.00  0.00    -0.337 N 
ATOM     28  H   UNL     1       5.164   0.149  -5.923  0.00  0.00    +0.168 HD
BRANCH  24  29
ATOM     29  C   UNL     1       2.881   1.920  -2.366  0.00  0.00    +0.092 C 
BRANCH  29  30
ATOM     30  C   UNL     1       1.719   2.725  -2.888  0.00  0.00    -0.042 A 
ATOM     31  C   UNL     1       0.432   2.234  -2.776  0.00  0.00    +0.004 A 
ATOM     32  C   UNL     1      -0.633   2.971  -3.260  0.00  0.00    +0.000 A 
ATOM     33  C   UNL     1      -0.412   4.202  -3.847  0.00  0.00    +0.000 A 
ATOM     34  C   UNL     1       0.875   4.694  -3.959  0.00  0.00    +0.000 A 
ATOM     35  C   UNL     1       1.941   3.955  -3.479  0.00  0.00    +0.004 A 
ENDBRANCH  29  30
ENDBRANCH  24  29
ENDBRANCH  21  26
ENDBRANCH  20  21
ENDBRANCH   1  20
BRANCH   3  36
ATOM     36  C   UNL     1       0.236  -4.492  -2.898  0.00  0.00    +0.117 C 
BRANCH  36  37
ATOM     37  C   UNL     1      -0.933  -3.598  -3.317  0.00  0.00    +0.001 C 
ATOM     38  C   UNL     1      -2.033  -4.458  -3.943  0.00  0.00    +0.009 C 
ATOM     39  C   UNL     1      -1.488  -2.875  -2.088  0.00  0.00    +0.009 C 
ENDBRANCH  36  37
ENDBRANCH   3  36
TORSDOF 11
