REMARK  Name = ZINC19973030
REMARK  14 active torsions:
REMARK  status: ('A' for Active; 'I' for Inactive)
REMARK    1  A    between atoms: C_1  and  C_2
REMARK    2  A    between atoms: C_7  and  C_14
REMARK    3  A    between atoms: C_14  and  C_16
REMARK    4  A    between atoms: C_14  and  N_25
REMARK    5  A    between atoms: N_20  and  C_21
REMARK    6  A    between atoms: C_21  and  C_22
REMARK    7  A    between atoms: C_21  and  C_23
REMARK    8  A    between atoms: C_21  and  C_24
REMARK    9  A    between atoms: N_25  and  C_26
REMARK   10  A    between atoms: N_25  and  C_35
REMARK   11  A    between atoms: C_26  and  C_27
REMARK   12  A    between atoms: C_30  and  O_33
REMARK   13  A    between atoms: O_33  and  C_34
REMARK   14  A    between atoms: C_35  and  C_36
REMARK                            x       y       z     vdW  Elec       q    Type
REMARK                         _______ _______ _______ _____ _____    ______ ____
ROOT
ATOM      1  C   UNL     1       1.642  -2.204   0.212  0.00  0.00    +0.163 C 
ENDROOT
BRANCH   1   8
ATOM      2  C   UNL     1       0.940   5.737  -0.054  0.00  0.00    +0.044 C 
ATOM      3  C   UNL     1       1.055   4.246  -0.237  0.00  0.00    -0.048 A 
ATOM      4  C   UNL     1       1.008   3.704  -1.515  0.00  0.00    +0.004 A 
ATOM      5  C   UNL     1       1.112   2.355  -1.702  0.00  0.00    +0.010 A 
ATOM      6  C   UNL     1       1.265   1.511  -0.597  0.00  0.00    -0.001 A 
ATOM      7  C   UNL     1       1.377   0.061  -0.762  0.00  0.00    +0.021 A 
ATOM      8  C   UNL     1       1.524  -0.707   0.346  0.00  0.00    +0.042 A 
ATOM      9  C   UNL     1       1.567  -0.111   1.624  0.00  0.00    +0.254 A 
ATOM     10  O   UNL     1       1.700  -0.820   2.607  0.00  0.00    -0.268 OA
ATOM     11  N   UNL     1       1.464   1.220   1.785  0.00  0.00    -0.322 N 
ATOM     12  H   UNL     1       1.500   1.657   2.794  0.00  0.00    +0.169 HD
ATOM     13  C   UNL     1       1.313   2.056   0.700  0.00  0.00    +0.049 A 
ATOM     14  C   UNL     1       1.206   3.433   0.866  0.00  0.00    +0.029 A 
ENDBRANCH   1   8
BRANCH   1  15
ATOM     15  C   UNL     1       1.111  -2.631  -1.132  0.00  0.00    +0.174 A 
ATOM     16  N   UNL     1      -0.088  -2.402  -1.609  0.00  0.00    -0.111 NA
ATOM     17  N   UNL     1      -0.155  -2.925  -2.785  0.00  0.00    -0.023 NA
ATOM     18  N   UNL     1       0.970  -3.481  -3.071  0.00  0.00    -0.043 NA
ATOM     19  N   UNL     1       1.779  -3.317  -2.079  0.00  0.00    -0.222 N 
BRANCH  19  20
ATOM     20  C   UNL     1       3.163  -3.791  -1.998  0.00  0.00    +0.059 C 
ATOM     21  C   UNL     1       3.293  -4.790  -0.846  0.00  0.00    +0.036 C 
ATOM     22  C   UNL     1       3.546  -4.474  -3.312  0.00  0.00    +0.036 C 
ATOM     23  C   UNL     1       4.095  -2.603  -1.750  0.00  0.00    +0.036 C 
ENDBRANCH  19  20
ENDBRANCH   1  15
BRANCH   1  24
ATOM     24  N   UNL     1       0.864  -2.854   1.275  0.00  0.00    -0.282 NA
BRANCH  24  25
ATOM     25  C   UNL     1       1.315  -4.236   1.487  0.00  0.00    +0.120 C 
BRANCH  25  26
ATOM     26  C   UNL     1       0.628  -4.807   2.701  0.00  0.00    -0.033 A 
ATOM     27  C   UNL     1       1.144  -4.568   3.961  0.00  0.00    +0.008 A 
ATOM     28  C   UNL     1       0.513  -5.086   5.076  0.00  0.00    +0.046 A 
ATOM     29  C   UNL     1      -0.631  -5.857   4.929  0.00  0.00    +0.120 A 
ATOM     30  C   UNL     1      -1.143  -6.100   3.663  0.00  0.00    +0.046 A 
ATOM     31  C   UNL     1      -0.512  -5.574   2.551  0.00  0.00    +0.008 A 
BRANCH  29  32
ATOM     32  O   UNL     1      -1.250  -6.373   6.023  0.00  0.00    -0.495 OA
ATOM     33  C   UNL     1      -0.667  -6.082   7.295  0.00  0.00    +0.277 C 
ENDBRANCH  29  32
ENDBRANCH  25  26
ENDBRANCH  24  25
BRANCH  24  34
ATOM     34  C   UNL     1      -0.574  -2.808   0.977  0.00  0.00    +0.117 C 
BRANCH  34  35
ATOM     35  C   UNL     1      -1.119  -1.417   1.307  0.00  0.00    +0.132 C 
ATOM     36  C   UNL     1      -2.663  -1.437   1.330  0.00  0.00    +0.035 C 
ATOM     37  C   UNL     1      -3.065  -0.075   0.721  0.00  0.00    +0.031 C 
ATOM     38  C   UNL     1      -1.716   0.606   0.401  0.00  0.00    +0.160 C 
ATOM     39  O   UNL     1      -0.775  -0.482   0.261  0.00  0.00    -0.375 OA
ENDBRANCH  34  35
ENDBRANCH  24  34
ENDBRANCH   1  24
TORSDOF 9
