REMARK  Name = ZINC17040204
REMARK  5 active torsions:
REMARK  status: ('A' for Active; 'I' for Inactive)
REMARK    1  A    between atoms: C_3  and  C_7
REMARK    2  A    between atoms: C_8  and  C_9
REMARK    3  A    between atoms: C_10  and  C_11
REMARK    4  A    between atoms: C_12  and  C_19
REMARK    5  A    between atoms: C_13  and  N_18
REMARK                            x       y       z     vdW  Elec       q    Type
REMARK                         _______ _______ _______ _____ _____    ______ ____
ROOT
ATOM      1  C   UNL     1       2.470   2.071   0.301  0.00  0.00    +0.078 A 
ATOM      2  C   UNL     1       3.431   3.074   0.545  0.00  0.00    +0.047 A 
ATOM      3  C   UNL     1       4.777   2.687   0.656  0.00  0.00    +0.130 A 
ATOM      4  N   UNL     1       5.092   1.403   0.517  0.00  0.00    -0.199 NA
ATOM      5  C   UNL     1       4.159   0.491   0.282  0.00  0.00    +0.215 A 
ATOM      6  N   UNL     1       2.879   0.804   0.175  0.00  0.00    -0.215 NA
ATOM      7  N   UNL     1       4.538  -0.833   0.145  0.00  0.00    -0.327 N 
ATOM      8  H   UNL     1       3.868  -1.514  -0.026  0.00  0.00    +0.145 HD
ATOM      9  H   UNL     1       5.472  -1.081   0.221  0.00  0.00    +0.145 HD
ENDROOT
BRANCH   2  10
ATOM     10  C   UNL     1       3.033   4.492   0.686  0.00  0.00    -0.011 A 
ATOM     11  C   UNL     1       2.486   5.177  -0.400  0.00  0.00    +0.010 A 
ATOM     12  C   UNL     1       2.112   6.498  -0.262  0.00  0.00    +0.022 A 
ATOM     13  C   UNL     1       2.287   7.147   0.948  0.00  0.00    +0.059 A 
ATOM     14  C   UNL     1       2.834   6.474   2.029  0.00  0.00    +0.060 A 
ATOM     15  C   UNL     1       3.207   5.150   1.903  0.00  0.00    +0.030 A 
ATOM     16 CL   UNL     1       3.049   7.295   3.543  0.00  0.00    -0.082 Cl
ATOM     17 CL   UNL     1       1.819   8.811   1.112  0.00  0.00    -0.082 Cl
ENDBRANCH   2  10
BRANCH   3  18
ATOM     18  N   UNL     1       5.761   3.628   0.900  0.00  0.00    -0.343 N 
ATOM     19  H   UNL     1       6.689   3.354   0.971  0.00  0.00    +0.144 HD
ATOM     20  H   UNL     1       5.524   4.563   1.000  0.00  0.00    +0.144 HD
ENDBRANCH   3  18
BRANCH   1  22
ATOM     21  C   UNL     1       0.153   1.464  -0.175  0.00  0.00    +0.002 C 
ATOM     22  C   UNL     1       1.048   2.413   0.181  0.00  0.00    +0.028 C 
BRANCH  21  24
ATOM     23  C   UNL     1      -0.289  -0.798  -0.828  0.00  0.00    +0.009 C 
ATOM     24  C   UNL     1       0.602   0.192  -0.602  0.00  0.00    +0.001 C 
BRANCH  23  27
ATOM     25  C   UNL     1      -0.244  -4.381  -1.926  0.00  0.00    +0.020 A 
ATOM     26  C   UNL     1      -0.736  -3.158  -1.509  0.00  0.00    +0.011 A 
ATOM     27  C   UNL     1       0.178  -2.120  -1.272  0.00  0.00    -0.007 A 
ATOM     28  C   UNL     1       1.541  -2.365  -1.470  0.00  0.00    +0.118 A 
ATOM     29  N   UNL     1       1.958  -3.550  -1.863  0.00  0.00    -0.263 NA
ATOM     30  C   UNL     1       1.120  -4.543  -2.093  0.00  0.00    +0.111 A 
ENDBRANCH  23  27
ENDBRANCH  21  24
ENDBRANCH   1  22
TORSDOF 5
