REMARK  Name = ZINC09060561
REMARK  8 active torsions:
REMARK  status: ('A' for Active; 'I' for Inactive)
REMARK    1  A    between atoms: C_1  and  C_2
REMARK    2  A    between atoms: C_2  and  C_3
REMARK    3  A    between atoms: C_3  and  C_11
REMARK    4  A    between atoms: C_14  and  N_17
REMARK    5  A    between atoms: N_17  and  S_18
REMARK    6  A    between atoms: S_18  and  C_21
REMARK    7  A    between atoms: C_24  and  N_27
REMARK    8  A    between atoms: C_28  and  C_30
REMARK                            x       y       z     vdW  Elec       q    Type
REMARK                         _______ _______ _______ _____ _____    ______ ____
ROOT
ATOM      1  C   UNL     1       3.516   1.726   1.115  0.00  0.00    -0.032 A 
ATOM      2  C   UNL     1       3.916   2.591   0.113  0.00  0.00    +0.006 A 
ATOM      3  C   UNL     1       5.195   3.114   0.120  0.00  0.00    +0.025 A 
ATOM      4  C   UNL     1       6.082   2.761   1.129  0.00  0.00    +0.048 A 
ATOM      5  C   UNL     1       5.678   1.887   2.131  0.00  0.00    +0.025 A 
ATOM      6  C   UNL     1       4.396   1.373   2.121  0.00  0.00    +0.006 A 
ENDROOT
BRANCH   1   7
ATOM      7  C   UNL     1       2.118   1.163   1.107  0.00  0.00    +0.072 C 
ATOM      8  C   UNL     1       1.314   1.804  -0.029  0.00  0.00    +0.030 C 
ATOM      9  C   UNL     1      -0.064   1.137  -0.089  0.00  0.00    +0.097 C 
ATOM     10  C   UNL     1       0.114  -0.351  -0.240  0.00  0.00    +0.219 C 
ATOM     11  O   UNL     1      -0.736  -0.996  -0.817  0.00  0.00    -0.275 OA
ATOM     12  N   UNL     1       1.194  -0.977   0.251  0.00  0.00    -0.256 N 
ATOM     13  C   UNL     1       2.177  -0.327   0.891  0.00  0.00    +0.230 C 
ATOM     14  O   UNL     1       3.132  -0.950   1.302  0.00  0.00    -0.274 OA
ATOM     15  H   UNL     1       1.266  -1.938   0.139  0.00  0.00    +0.157 HD
BRANCH   7  17
ATOM     16  C   UNL     1       1.275   2.970   2.611  0.00  0.00    +0.005 C 
ATOM     17  C   UNL     1       1.438   1.458   2.445  0.00  0.00    +0.017 C 
ENDBRANCH   7  17
ENDBRANCH   1   7
BRANCH   4  18
ATOM     18  N   UNL     1       7.377   3.283   1.137  0.00  0.00    -0.216 N 
ATOM     19  H   UNL     1       7.752   3.639   1.957  0.00  0.00    +0.174 HD
BRANCH  18  20
ATOM     20  S   UNL     1       8.274   3.293  -0.256  0.00  0.00    +0.072 S 
ATOM     21  O   UNL     1       7.439   3.833  -1.272  0.00  0.00    -0.150 OA
ATOM     22  O   UNL     1       9.533   3.860   0.076  0.00  0.00    -0.150 OA
BRANCH  20  23
ATOM     23  C   UNL     1       8.577   1.613  -0.693  0.00  0.00    +0.109 A 
ATOM     24  C   UNL     1       9.648   0.939  -0.137  0.00  0.00    +0.030 A 
ATOM     25  C   UNL     1       9.886  -0.380  -0.474  0.00  0.00    +0.025 A 
ATOM     26  C   UNL     1       9.053  -1.024  -1.379  0.00  0.00    +0.033 A 
ATOM     27  C   UNL     1       7.981  -0.342  -1.940  0.00  0.00    +0.025 A 
ATOM     28  C   UNL     1       7.746   0.974  -1.595  0.00  0.00    +0.030 A 
BRANCH  26  29
ATOM     29  N   UNL     1       9.295  -2.358  -1.727  0.00  0.00    -0.286 N 
ATOM     30  C   UNL     1       9.034  -2.786  -2.978  0.00  0.00    +0.214 C 
ATOM     31  O   UNL     1       8.672  -1.998  -3.826  0.00  0.00    -0.276 OA
ATOM     32  C   UNL     1       9.191  -4.245  -3.323  0.00  0.00    +0.109 C 
ATOM     33  H   UNL     1       9.650  -2.974  -1.068  0.00  0.00    +0.155 HD
ENDBRANCH  26  29
ENDBRANCH  20  23
ENDBRANCH  18  20
ENDBRANCH   4  18
TORSDOF 6
