REMARK  Name = ZINC36289635
REMARK  12 active torsions:
REMARK  status: ('A' for Active; 'I' for Inactive)
REMARK    1  A    between atoms: C_1  and  C_2
REMARK    2  A    between atoms: N_6  and  N_7
REMARK    3  A    between atoms: C_8  and  C_9
REMARK    4  A    between atoms: C_11  and  C_20
REMARK    5  A    between atoms: C_12  and  O_19
REMARK    6  A    between atoms: C_13  and  C_15
REMARK    7  A    between atoms: C_15  and  C_16
REMARK    8  A    between atoms: C_15  and  C_17
REMARK    9  A    between atoms: C_15  and  C_18
REMARK   10  A    between atoms: C_20  and  C_21
REMARK   11  A    between atoms: C_20  and  C_22
REMARK   12  A    between atoms: C_20  and  C_23
REMARK                            x       y       z     vdW  Elec       q    Type
REMARK                         _______ _______ _______ _____ _____    ______ ____
ROOT
ATOM      1  C   UNL     1      -0.151  -0.767   4.808  0.00  0.00    -0.004 A 
ATOM      2  C   UNL     1      -0.173   0.602   5.090  0.00  0.00    +0.017 A 
ATOM      3  C   UNL     1      -0.271   1.032   6.395  0.00  0.00    +0.000 A 
ATOM      4  C   UNL     1      -0.347   0.109   7.430  0.00  0.00    +0.124 A 
ATOM      5  C   UNL     1      -0.326  -1.253   7.154  0.00  0.00    +0.000 A 
ATOM      6  C   UNL     1      -0.234  -1.693   5.852  0.00  0.00    +0.017 A 
ENDROOT
BRANCH   5   7
ATOM      7  C   UNL     1      -0.408  -2.250   8.281  0.00  0.00    -0.009 C 
ATOM      8  C   UNL     1      -0.365  -3.669   7.711  0.00  0.00    +0.015 C 
ATOM      9  C   UNL     1       0.773  -2.045   9.231  0.00  0.00    +0.015 C 
ATOM     10  C   UNL     1      -1.718  -2.048   9.046  0.00  0.00    +0.015 C 
ENDBRANCH   5   7
BRANCH   3  11
ATOM     11  C   UNL     1      -0.294   2.508   6.701  0.00  0.00    -0.009 C 
ATOM     12  C   UNL     1      -0.197   3.300   5.396  0.00  0.00    +0.015 C 
ATOM     13  C   UNL     1      -1.601   2.860   7.415  0.00  0.00    +0.015 C 
ATOM     14  C   UNL     1       0.891   2.861   7.602  0.00  0.00    +0.015 C 
ENDBRANCH   3  11
BRANCH   1  16
ATOM     15  N   UNL     1       0.030  -0.371   2.446  0.00  0.00    -0.171 NA
ATOM     16  C   UNL     1      -0.047  -1.233   3.414  0.00  0.00    +0.141 C 
BRANCH  15  22
ATOM     17  C   UNL     1       0.470   1.466   0.022  0.00  0.00    +0.090 C 
ATOM     18  C   UNL     1       0.225  -0.021   0.007  0.00  0.00    +0.150 A 
ATOM     19  N   UNL     1       0.168  -0.765  -1.051  0.00  0.00    -0.157 NA
ATOM     20  N   UNL     1      -0.075  -2.084  -0.644  0.00  0.00    -0.253 N 
ATOM     21  C   UNL     1      -0.157  -2.080   0.703  0.00  0.00    +0.196 A 
ATOM     22  N   UNL     1       0.033  -0.811   1.115  0.00  0.00    -0.193 N 
ATOM     23  S   UNL     1      -0.444  -3.439   1.704  0.00  0.00    -0.010 S 
ATOM     24  H   UNL     1      -0.167  -2.857  -1.223  0.00  0.00    +0.191 HD
ENDBRANCH  15  22
ENDBRANCH   1  16
BRANCH   4  25
ATOM     25  O   UNL     1      -0.443   0.538   8.715  0.00  0.00    -0.506 OA
ATOM     26  H   UNL     1      -1.352   0.662   9.022  0.00  0.00    +0.292 HD
ENDBRANCH   4  25
TORSDOF 5
