REMARK  Name = ZINC20466777
REMARK  3 active torsions:
REMARK  status: ('A' for Active; 'I' for Inactive)
REMARK    1  A    between atoms: C_1  and  N_2
REMARK    2  A    between atoms: N_5  and  C_8
REMARK    3  A    between atoms: C_8  and  C_9
REMARK                            x       y       z     vdW  Elec       q    Type
REMARK                         _______ _______ _______ _____ _____    ______ ____
ROOT
ATOM      1  C   UNL     1       2.191  -4.506   1.015  0.00  0.00    +0.127 A 
ATOM      2  N   UNL     1       1.706  -4.865   2.191  0.00  0.00    -0.315 N 
ATOM      3  C   UNL     1       2.521  -5.330   3.135  0.00  0.00    +0.195 A 
ATOM      4  N   UNL     1       3.823  -5.433   2.894  0.00  0.00    -0.183 NA
ATOM      5  C   UNL     1       4.307  -5.072   1.711  0.00  0.00    +0.227 A 
ATOM      6  N   UNL     1       3.485  -4.613   0.770  0.00  0.00    -0.200 NA
ATOM      7  N   UNL     1       5.661  -5.177   1.456  0.00  0.00    -0.269 N 
ATOM      8  C   UNL     1       6.191  -4.909   0.112  0.00  0.00    +0.114 C 
ATOM      9  C   UNL     1       7.198  -6.016  -0.224  0.00  0.00    +0.024 C 
ATOM     10  C   UNL     1       8.363  -5.940   0.763  0.00  0.00    +0.038 C 
ATOM     11  C   UNL     1       7.853  -5.915   2.180  0.00  0.00    -0.026 A 
ATOM     12  C   UNL     1       6.552  -5.535   2.476  0.00  0.00    +0.040 A 
ATOM     13  C   UNL     1       6.115  -5.513   3.795  0.00  0.00    +0.024 A 
ATOM     14  C   UNL     1       6.977  -5.867   4.814  0.00  0.00    +0.002 A 
ATOM     15  C   UNL     1       8.275  -6.242   4.521  0.00  0.00    +0.000 A 
ATOM     16  C   UNL     1       8.710  -6.273   3.207  0.00  0.00    +0.005 A 
ATOM     17  N   UNL     1       2.014  -5.703   4.363  0.00  0.00    -0.329 N 
ATOM     18  H   UNL     1       1.062  -5.627   4.538  0.00  0.00    +0.145 HD
ATOM     19  H   UNL     1       2.608  -6.042   5.051  0.00  0.00    +0.145 HD
ATOM     20  H   UNL     1       0.755  -4.788   2.366  0.00  0.00    +0.170 HD
ENDROOT
BRANCH   1  21
ATOM     21  C   UNL     1       1.265  -3.980  -0.051  0.00  0.00    +0.158 C 
BRANCH  21  26
ATOM     22  C   UNL     1       0.015   1.524   0.162  0.00  0.00    +0.105 C 
ATOM     23  N   UNL     1       0.029   0.056   0.118  0.00  0.00    -0.303 NA
ATOM     24  C   UNL     1       0.630  -0.428  -1.133  0.00  0.00    +0.099 C 
ATOM     25  C   UNL     1       0.552  -1.956  -1.174  0.00  0.00    +0.100 C 
ATOM     26  N   UNL     1       1.252  -2.512  -0.008  0.00  0.00    -0.293 NA
ATOM     27  C   UNL     1       0.651  -2.028   1.243  0.00  0.00    +0.100 C 
ATOM     28  C   UNL     1       0.728  -0.500   1.285  0.00  0.00    +0.099 C 
ENDBRANCH  21  26
ENDBRANCH   1  21
TORSDOF 2
