REMARK  Name = ZINC22196512
REMARK  5 active torsions:
REMARK  status: ('A' for Active; 'I' for Inactive)
REMARK    1  A    between atoms: C_4  and  C_7
REMARK    2  A    between atoms: C_7  and  C_8
REMARK    3  A    between atoms: N_10  and  N_11
REMARK    4  A    between atoms: C_12  and  C_14
REMARK    5  A    between atoms: N_17  and  C_19
REMARK                            x       y       z     vdW  Elec       q    Type
REMARK                         _______ _______ _______ _____ _____    ______ ____
ROOT
ATOM      1  N   UNL     1      -2.416  -0.378   0.024  0.00  0.00    -0.229 N 
ATOM      2  C   UNL     1      -1.173  -0.898   0.009  0.00  0.00    +0.281 C 
ATOM      3  O   UNL     1      -1.019  -2.104   0.001  0.00  0.00    -0.267 OA
ATOM      4  H   UNL     1      -2.555   0.713   0.030  0.00  0.00    +0.173 HD
ENDROOT
BRANCH   2   5
ATOM      5  C   UNL     1       0.002  -0.004   0.002  0.00  0.00    +0.152 A 
ATOM      6  C   UNL     1       1.360  -0.399  -0.013  0.00  0.00    +0.006 A 
ATOM      7  C   UNL     1       2.076   0.745  -0.013  0.00  0.00    +0.049 A 
ATOM      8  N   UNL     1       1.184   1.773   0.000  0.00  0.00    -0.236 N 
ATOM      9  N   UNL     1      -0.016   1.315   0.009  0.00  0.00    -0.161 NA
ATOM     10  C   UNL     1       3.556   0.434  -0.029  0.00  0.00    +0.056 C 
ATOM     11  C   UNL     1       3.651  -1.043  -0.470  0.00  0.00    +0.011 C 
ATOM     12  C   UNL     1       2.278  -1.598  -0.029  0.00  0.00    +0.040 C 
BRANCH   8  13
ATOM     13  C   UNL     1       1.525   3.132   0.004  0.00  0.00    +0.066 A 
ATOM     14  C   UNL     1       2.653   3.564   0.689  0.00  0.00    +0.028 A 
ATOM     15  C   UNL     1       2.989   4.904   0.687  0.00  0.00    +0.002 A 
ATOM     16  C   UNL     1       2.198   5.816   0.012  0.00  0.00    +0.000 A 
ATOM     17  C   UNL     1       1.071   5.389  -0.666  0.00  0.00    +0.002 A 
ATOM     18  C   UNL     1       0.733   4.050  -0.672  0.00  0.00    +0.028 A 
ENDBRANCH   8  13
ENDBRANCH   2   5
BRANCH   1  21
ATOM     19  C   UNL     1      -4.774  -0.706   0.045  0.00  0.00    +0.233 C 
ATOM     20  O   UNL     1      -4.927   0.497   0.052  0.00  0.00    -0.274 OA
ATOM     21  N   UNL     1      -3.531  -1.226   0.030  0.00  0.00    -0.234 N 
ATOM     22  H   UNL     1      -3.392  -2.317   0.023  0.00  0.00    +0.173 HD
BRANCH  19  23
ATOM     23  C   UNL     1      -5.973  -1.618   0.052  0.00  0.00    +0.132 C 
BRANCH  23  27
ATOM     24  C   UNL     1      -9.545   0.724   0.098  0.00  0.00    +0.000 A 
ATOM     25  C   UNL     1      -8.979   0.351  -1.106  0.00  0.00    +0.000 A 
ATOM     26  C   UNL     1      -7.823  -0.407  -1.121  0.00  0.00    +0.004 A 
ATOM     27  C   UNL     1      -7.233  -0.792   0.068  0.00  0.00    -0.039 A 
ATOM     28  C   UNL     1      -7.803  -0.424   1.273  0.00  0.00    +0.004 A 
ATOM     29  C   UNL     1      -8.956   0.338   1.288  0.00  0.00    +0.000 A 
ENDBRANCH  23  27
ENDBRANCH  19  23
ENDBRANCH   1  21
TORSDOF 5
