REMARK  Name = ZINC43525505
REMARK  11 active torsions:
REMARK  status: ('A' for Active; 'I' for Inactive)
REMARK    1  A    between atoms: C_1  and  C_2
REMARK    2  A    between atoms: C_2  and  C_3
REMARK    3  A    between atoms: C_2  and  N_4
REMARK    4  A    between atoms: N_7  and  C_8
REMARK    5  A    between atoms: C_8  and  C_9
REMARK    6  A    between atoms: C_18  and  C_20
REMARK    7  A    between atoms: C_22  and  C_26
REMARK    8  A    between atoms: N_24  and  C_25
REMARK    9  A    between atoms: C_29  and  N_32
REMARK   10  A    between atoms: N_32  and  C_33
REMARK   11  A    between atoms: N_32  and  C_34
REMARK                            x       y       z     vdW  Elec       q    Type
REMARK                         _______ _______ _______ _____ _____    ______ ____
ROOT
ATOM      1  C   UNL     1      -4.648  -3.930  -0.929  0.00  0.00    -0.051 C 
ATOM      2  C   UNL     1      -5.058  -5.320  -1.422  0.00  0.00    -0.010 C 
ATOM      3  C   UNL     1      -5.684  -6.094  -0.254  0.00  0.00    -0.007 C 
ATOM      4  C   UNL     1      -4.643  -6.205   0.867  0.00  0.00    -0.015 C 
ATOM      5  C   UNL     1      -4.223  -4.796   1.292  0.00  0.00    -0.078 C 
ATOM      6  N   UNL     1      -4.981  -3.785   0.490  0.00  0.00    +0.383 N 
ATOM      7  C   UNL     1      -6.425  -3.915   0.697  0.00  0.00    -0.068 C 
ATOM      8  C   UNL     1      -6.895  -5.302   0.258  0.00  0.00    +0.024 C 
ATOM      9  H   UNL     1      -4.705  -2.862   0.790  0.00  0.00    -0.081 HD
ENDROOT
BRANCH   8  10
ATOM     10  C   UNL     1      -7.509  -6.021   1.431  0.00  0.00    +0.041 A 
ATOM     11  C   UNL     1      -7.123  -5.912   2.720  0.00  0.00    +0.053 A 
ATOM     12  C   UNL     1      -7.955  -6.746   3.493  0.00  0.00    +0.093 A 
ATOM     13  N   UNL     1      -8.808  -7.331   2.679  0.00  0.00    -0.171 NA
ATOM     14  N   UNL     1      -8.547  -6.883   1.378  0.00  0.00    -0.271 N 
ATOM     15  C   UNL     1      -9.272  -7.284   0.170  0.00  0.00    +0.172 C 
BRANCH  12  16
ATOM     16  C   UNL     1      -7.881  -6.932   4.963  0.00  0.00    +0.002 A 
ATOM     17  C   UNL     1      -6.925  -6.243   5.707  0.00  0.00    +0.012 A 
ATOM     18  C   UNL     1      -6.859  -6.417   7.073  0.00  0.00    +0.024 A 
ATOM     19  C   UNL     1      -7.744  -7.281   7.708  0.00  0.00    +0.029 A 
ATOM     20  C   UNL     1      -8.697  -7.970   6.968  0.00  0.00    +0.024 A 
ATOM     21  C   UNL     1      -8.771  -7.793   5.603  0.00  0.00    +0.012 A 
BRANCH  19  22
ATOM     22  N   UNL     1      -7.675  -7.456   9.091  0.00  0.00    -0.336 N 
ATOM     23  C   UNL     1      -6.670  -6.731   9.873  0.00  0.00    +0.129 C 
ATOM     24  C   UNL     1      -8.607  -8.366   9.762  0.00  0.00    +0.129 C 
ENDBRANCH  19  22
ENDBRANCH  12  16
ENDBRANCH   8  10
BRANCH   1  25
ATOM     25  C   UNL     1      -3.140  -3.749  -1.118  0.00  0.00    +0.090 C 
BRANCH  25  29
ATOM     26  N   UNL     1      -1.053  -0.911  -0.066  0.00  0.00    -0.297 N 
ATOM     27  C   UNL     1      -1.434  -2.091  -0.594  0.00  0.00    +0.300 C 
ATOM     28  O   UNL     1      -0.610  -2.817  -1.116  0.00  0.00    -0.253 OA
ATOM     29  N   UNL     1      -2.727  -2.466  -0.543  0.00  0.00    -0.301 N 
ATOM     30  H   UNL     1      -1.710  -0.332   0.351  0.00  0.00    +0.150 HD
ATOM     31  H   UNL     1      -3.384  -1.887  -0.127  0.00  0.00    +0.150 HD
BRANCH  26  33
ATOM     32  C   UNL     1       0.444   1.023  -0.055  0.00  0.00    +0.027 C 
ATOM     33  C   UNL     1       0.353  -0.503  -0.120  0.00  0.00    +0.068 C 
ATOM     34  C   UNL     1       1.106  -1.110   1.065  0.00  0.00    +0.027 C 
ENDBRANCH  26  33
ENDBRANCH  25  29
ENDBRANCH   1  25
TORSDOF 6
