REMARK  Name = ZINC12416535
REMARK  5 active torsions:
REMARK  status: ('A' for Active; 'I' for Inactive)
REMARK    1  A    between atoms: C_1  and  C_2
REMARK    2  A    between atoms: C_2  and  C_3
REMARK    3  A    between atoms: C_5  and  C_15
REMARK    4  A    between atoms: N_8  and  O_9
REMARK    5  A    between atoms: C_11  and  C_14
REMARK                            x       y       z     vdW  Elec       q    Type
REMARK                         _______ _______ _______ _____ _____    ______ ____
ROOT
ATOM      1  C   UNL     1      -1.433  -0.534   0.013  0.00  0.00    +0.055 C 
ATOM      2  C   UNL     1      -1.416  -2.062   0.124  0.00  0.00    +0.047 C 
ATOM      3  C   UNL     1      -2.827  -2.585   0.062  0.00  0.00    +0.062 C 
ATOM      4  N   UNL     1      -3.321  -3.202   1.069  0.00  0.00    -0.096 NA
ATOM      5  C   UNL     1      -3.661  -2.385  -1.176  0.00  0.00    +0.068 C 
ATOM      6  C   UNL     1      -3.882  -0.887  -1.406  0.00  0.00    +0.049 C 
ATOM      7  S   UNL     1      -2.267  -0.063  -1.531  0.00  0.00    -0.153 S 
ATOM      8  C   UNL     1      -4.668  -0.677  -2.701  0.00  0.00    +0.019 C 
ATOM      9  C   UNL     1      -0.603  -2.648  -1.031  0.00  0.00    +0.015 C 
ENDROOT
BRANCH   1  11
ATOM     10  C   UNL     1      -0.019   1.526   0.010  0.00  0.00    +0.005 C 
ATOM     11  C   UNL     1       0.002  -0.004   0.002  0.00  0.00    +0.011 C 
ENDBRANCH   1  11
BRANCH   4  12
ATOM     12  O   UNL     1      -4.647  -3.696   1.015  0.00  0.00    -0.409 OA
ATOM     13  H   UNL     1      -4.931  -4.147   1.822  0.00  0.00    +0.328 HD
ENDBRANCH   4  12
TORSDOF 2
