REMARK  Name = ZINC20512694
REMARK  7 active torsions:
REMARK  status: ('A' for Active; 'I' for Inactive)
REMARK    1  A    between atoms: C_1  and  C_2
REMARK    2  A    between atoms: C_2  and  C_4
REMARK    3  A    between atoms: C_2  and  N_12
REMARK    4  A    between atoms: C_7  and  O_10
REMARK    5  A    between atoms: O_10  and  C_11
REMARK    6  A    between atoms: N_12  and  S_13
REMARK    7  A    between atoms: S_13  and  C_16
REMARK                            x       y       z     vdW  Elec       q    Type
REMARK                         _______ _______ _______ _____ _____    ______ ____
ROOT
ATOM      1  S   UNL     1      -2.163  -0.790  -1.416  0.00  0.00    +0.060 S 
ATOM      2  O   UNL     1      -1.414  -1.680  -2.232  0.00  0.00    -0.153 OA
ATOM      3  O   UNL     1      -3.487  -1.079  -0.989  0.00  0.00    -0.153 OA
ENDROOT
BRANCH   1   4
ATOM      4  C   UNL     1      -2.236   0.744  -2.279  0.00  0.00    +0.127 A 
ATOM      5  C   UNL     1      -1.656   0.860  -3.527  0.00  0.00    +0.078 A 
ATOM      6  C   UNL     1      -1.713   2.065  -4.208  0.00  0.00    +0.159 A 
ATOM      7  C   UNL     1      -2.357   3.158  -3.627  0.00  0.00    +0.089 A 
ATOM      8  C   UNL     1      -2.936   3.037  -2.374  0.00  0.00    +0.051 A 
ATOM      9  C   UNL     1      -2.880   1.828  -1.705  0.00  0.00    +0.069 A 
ATOM     10 CL   UNL     1      -3.612   1.670  -0.139  0.00  0.00    -0.081 Cl
ATOM     11  N   UNL     1      -2.251   4.212  -4.535  0.00  0.00    -0.288 N 
ATOM     12  H   UNL     1      -2.602   5.108  -4.416  0.00  0.00    +0.172 HD
ATOM     13  C   UNL     1      -1.572   3.756  -5.606  0.00  0.00    +0.419 A 
ATOM     14  O   UNL     1      -1.298   4.411  -6.594  0.00  0.00    -0.223 OA
ATOM     15  O   UNL     1      -1.246   2.468  -5.415  0.00  0.00    -0.408 OA
ENDBRANCH   1   4
BRANCH   1  16
ATOM     16  N   UNL     1      -1.268  -0.539  -0.045  0.00  0.00    -0.183 NA
ATOM     17  H   UNL     1      -1.684  -0.617   0.827  0.00  0.00    +0.149 HD
BRANCH  16  19
ATOM     18  C   UNL     1       0.321   1.321  -0.073  0.00  0.00    +0.031 C 
ATOM     19  C   UNL     1       0.153  -0.198  -0.151  0.00  0.00    +0.103 C 
BRANCH  19  20
ATOM     20  C   UNL     1       0.910  -0.846   0.980  0.00  0.00    -0.029 A 
ATOM     21  C   UNL     1       0.356  -0.889   2.246  0.00  0.00    +0.009 A 
ATOM     22  C   UNL     1       1.048  -1.482   3.284  0.00  0.00    +0.046 A 
ATOM     23  C   UNL     1       2.300  -2.034   3.055  0.00  0.00    +0.120 A 
ATOM     24  C   UNL     1       2.854  -1.990   1.784  0.00  0.00    +0.046 A 
ATOM     25  C   UNL     1       2.155  -1.401   0.748  0.00  0.00    +0.009 A 
BRANCH  23  26
ATOM     26  O   UNL     1       2.984  -2.617   4.075  0.00  0.00    -0.495 OA
ATOM     27  C   UNL     1       4.267  -3.165   3.767  0.00  0.00    +0.277 C 
ENDBRANCH  23  26
ENDBRANCH  19  20
ENDBRANCH  16  19
ENDBRANCH   1  16
TORSDOF 5
