REMARK  Name = ZINC34737339
REMARK  7 active torsions:
REMARK  status: ('A' for Active; 'I' for Inactive)
REMARK    1  A    between atoms: C_1  and  C_2
REMARK    2  A    between atoms: C_5  and  N_15
REMARK    3  A    between atoms: C_6  and  N_8
REMARK    4  A    between atoms: N_11  and  C_12
REMARK    5  A    between atoms: C_12  and  C_13
REMARK    6  A    between atoms: N_19  and  C_22
REMARK    7  A    between atoms: C_22  and  C_23
REMARK                            x       y       z     vdW  Elec       q    Type
REMARK                         _______ _______ _______ _____ _____    ______ ____
ROOT
ATOM      1  C   UNL     1      -0.043   1.514   0.030  0.00  0.00    +0.044 C 
ATOM      2  C   UNL     1      -0.019   0.007   0.015  0.00  0.00    -0.049 A 
ATOM      3  C   UNL     1      -0.022  -0.671  -1.190  0.00  0.00    +0.005 A 
ATOM      4  C   UNL     1      -0.000  -2.052  -1.212  0.00  0.00    +0.026 A 
ATOM      5  C   UNL     1       0.024  -2.764  -0.021  0.00  0.00    +0.059 A 
ATOM      6  C   UNL     1       0.028  -2.081   1.194  0.00  0.00    +0.057 A 
ATOM      7  C   UNL     1       0.011  -0.694   1.206  0.00  0.00    +0.028 A 
ENDROOT
BRANCH   5   8
ATOM      8  N   UNL     1       0.046  -4.165  -0.040  0.00  0.00    -0.254 N 
ATOM      9  C   UNL     1      -1.219  -4.901  -0.041  0.00  0.00    +0.117 C 
ATOM     10  C   UNL     1      -1.022  -6.238  -0.763  0.00  0.00    +0.038 C 
ATOM     11  C   UNL     1       0.131  -6.991  -0.090  0.00  0.00    +0.111 C 
ATOM     12  N   UNL     1       1.322  -6.141  -0.087  0.00  0.00    -0.281 N 
ATOM     13  C   UNL     1       1.225  -4.803  -0.062  0.00  0.00    +0.309 C 
ATOM     14  O   UNL     1       2.247  -4.144  -0.055  0.00  0.00    -0.252 OA
BRANCH  12  15
ATOM     15  C   UNL     1       2.648  -6.764  -0.117  0.00  0.00    +0.144 C 
BRANCH  15  16
ATOM     16  C   UNL     1       3.085  -6.947  -1.547  0.00  0.00    -0.027 A 
ATOM     17  C   UNL     1       2.771  -8.112  -2.221  0.00  0.00    +0.008 A 
ATOM     18  C   UNL     1       3.171  -8.283  -3.533  0.00  0.00    +0.041 A 
ATOM     19  C   UNL     1       3.886  -7.286  -4.174  0.00  0.00    +0.158 A 
ATOM     20  C   UNL     1       4.201  -6.117  -3.498  0.00  0.00    +0.159 A 
ATOM     21  C   UNL     1       3.795  -5.947  -2.185  0.00  0.00    +0.046 A 
ATOM     22  F   UNL     1       4.899  -5.142  -4.121  0.00  0.00    -0.202 F 
ATOM     23  F   UNL     1       4.278  -7.451  -5.456  0.00  0.00    -0.202 F 
ENDBRANCH  15  16
ENDBRANCH  12  15
ENDBRANCH   5   8
BRANCH   6  24
ATOM     24  N   UNL     1       0.052  -2.793   2.401  0.00  0.00    -0.268 N 
ATOM     25  C   UNL     1       0.724  -2.301   3.461  0.00  0.00    +0.304 C 
ATOM     26  O   UNL     1       1.240  -1.202   3.396  0.00  0.00    -0.252 OA
ATOM     27  N   UNL     1       0.823  -3.028   4.591  0.00  0.00    -0.296 N 
ATOM     28  H   UNL     1      -0.414  -3.641   2.473  0.00  0.00    +0.156 HD
ATOM     29  H   UNL     1       0.411  -3.904   4.643  0.00  0.00    +0.151 HD
BRANCH  27  30
ATOM     30  C   UNL     1       1.553  -2.493   5.744  0.00  0.00    +0.132 C 
BRANCH  30  31
ATOM     31  C   UNL     1       1.516  -3.493   6.870  0.00  0.00    -0.016 C 
ATOM     32  C   UNL     1       2.633  -3.909   7.414  0.00  0.00    +0.005 C 
ENDBRANCH  30  31
ENDBRANCH  27  30
ENDBRANCH   6  24
TORSDOF 6
