REMARK  Name = ZINC12609753
REMARK  5 active torsions:
REMARK  status: ('A' for Active; 'I' for Inactive)
REMARK    1  A    between atoms: N_7  and  C_15
REMARK    2  A    between atoms: C_9  and  C_12
REMARK    3  A    between atoms: C_15  and  C_16
REMARK    4  A    between atoms: N_18  and  C_19
REMARK    5  A    between atoms: C_20  and  C_27
REMARK                            x       y       z     vdW  Elec       q    Type
REMARK                         _______ _______ _______ _____ _____    ______ ____
ROOT
ATOM      1  C   UNL     1      -0.554  -4.757   0.301  0.00  0.00    +0.235 C 
ATOM      2  O   UNL     1       0.556  -4.787  -0.188  0.00  0.00    -0.274 OA
ATOM      3  N   UNL     1      -1.070  -3.588   0.731  0.00  0.00    -0.278 N 
ATOM      4  H   UNL     1      -1.957  -3.565   1.122  0.00  0.00    +0.155 HD
ENDROOT
BRANCH   3   5
ATOM      5  C   UNL     1      -0.332  -2.420   0.615  0.00  0.00    +0.084 A 
ATOM      6  C   UNL     1      -0.687  -1.137   0.995  0.00  0.00    +0.068 A 
ATOM      7  C   UNL     1       0.283  -0.069   0.759  0.00  0.00    -0.023 A 
ATOM      8  C   UNL     1       1.437  -0.460   0.189  0.00  0.00    -0.004 A 
ATOM      9  S   UNL     1       1.256  -2.212  -0.041  0.00  0.00    -0.077 S 
ATOM     10  C   UNL     1       2.383   0.692  -0.018  0.00  0.00    +0.043 C 
ATOM     11  C   UNL     1       1.840   1.810   0.899  0.00  0.00    +0.010 C 
ATOM     12  C   UNL     1       0.347   1.441   0.994  0.00  0.00    +0.037 C 
BRANCH   6  13
ATOM     13  C   UNL     1      -1.988  -0.860   1.612  0.00  0.00    +0.244 C 
ATOM     14  O   UNL     1      -2.944  -0.577   0.915  0.00  0.00    -0.270 OA
ATOM     15  N   UNL     1      -2.124  -0.918   2.952  0.00  0.00    -0.325 N 
ATOM     16  H   UNL     1      -1.362  -1.144   3.508  0.00  0.00    +0.145 HD
ATOM     17  H   UNL     1      -2.985  -0.735   3.360  0.00  0.00    +0.145 HD
ENDBRANCH   6  13
ENDBRANCH   3   5
BRANCH   1  18
ATOM     18  C   UNL     1      -1.356  -6.027   0.427  0.00  0.00    +0.201 C 
BRANCH  18  25
ATOM     19  C   UNL     1      -3.377  -9.231  -1.013  0.00  0.00    +0.002 A 
ATOM     20  C   UNL     1      -2.932 -10.502  -0.702  0.00  0.00    +0.004 A 
ATOM     21  C   UNL     1      -1.682 -10.679  -0.141  0.00  0.00    +0.047 A 
ATOM     22  C   UNL     1      -0.869  -9.583   0.112  0.00  0.00    +0.143 A 
ATOM     23  C   UNL     1      -1.313  -8.304  -0.203  0.00  0.00    +0.073 A 
ATOM     24  C   UNL     1      -2.574  -8.136  -0.765  0.00  0.00    +0.027 A 
ATOM     25  N   UNL     1      -0.526  -7.171   0.029  0.00  0.00    -0.314 N 
ATOM     26  C   UNL     1       0.531  -7.424   1.015  0.00  0.00    +0.160 C 
ATOM     27  C   UNL     1       1.281  -8.700   0.613  0.00  0.00    +0.275 C 
ATOM     28  O   UNL     1       0.356  -9.791   0.670  0.00  0.00    -0.476 OA
BRANCH  27  29
ATOM     29  C   UNL     1       2.419  -8.946   1.570  0.00  0.00    +0.253 C 
ATOM     30  O   UNL     1       2.409  -9.926   2.284  0.00  0.00    -0.272 OA
ATOM     31  N   UNL     1       3.447  -8.077   1.632  0.00  0.00    -0.326 N 
ATOM     32  H   UNL     1       3.455  -7.293   1.061  0.00  0.00    +0.145 HD
ATOM     33  H   UNL     1       4.179  -8.235   2.248  0.00  0.00    +0.145 HD
ENDBRANCH  27  29
ENDBRANCH  18  25
ENDBRANCH   1  18
TORSDOF 5
