REMARK  Name = ZINC34792156
REMARK  5 active torsions:
REMARK  status: ('A' for Active; 'I' for Inactive)
REMARK    1  A    between atoms: C_1  and  N_2
REMARK    2  A    between atoms: C_5  and  C_10
REMARK    3  A    between atoms: C_15  and  C_16
REMARK    4  A    between atoms: N_22  and  C_24
REMARK    5  A    between atoms: C_24  and  C_25
REMARK                            x       y       z     vdW  Elec       q    Type
REMARK                         _______ _______ _______ _____ _____    ______ ____
ROOT
ATOM      1  C   UNL     1       0.067   1.475   0.070  0.00  0.00    +0.139 C 
ATOM      2  N   UNL     1       0.080   0.010   0.036  0.00  0.00    -0.260 N 
ATOM      3  C   UNL     1      -1.109  -0.642  -0.128  0.00  0.00    +0.042 C 
ATOM      4  C   UNL     1      -1.168  -1.988  -0.168  0.00  0.00    +0.058 C 
ATOM      5  C   UNL     1       0.131  -2.755  -0.024  0.00  0.00    +0.142 C 
ATOM      6  N   UNL     1       1.359  -1.960   0.148  0.00  0.00    -0.288 N 
ATOM      7  C   UNL     1       1.257  -0.616   0.163  0.00  0.00    +0.307 C 
ATOM      8  O   UNL     1       2.265   0.049   0.300  0.00  0.00    -0.252 OA
ATOM      9  C   UNL     1      -2.500  -2.416  -0.344  0.00  0.00    +0.247 C 
ATOM     10  O   UNL     1      -2.845  -3.582  -0.414  0.00  0.00    -0.270 OA
ATOM     11  N   UNL     1      -3.340  -1.368  -0.423  0.00  0.00    -0.283 N 
ATOM     12  C   UNL     1      -2.529  -0.149  -0.292  0.00  0.00    +0.160 C 
ATOM     13  H   UNL     1       2.221  -2.393   0.245  0.00  0.00    +0.151 HD
ENDROOT
BRANCH   5  14
ATOM     14  C   UNL     1       0.001  -3.671   1.165  0.00  0.00    -0.011 A 
ATOM     15  C   UNL     1      -0.013  -3.146   2.444  0.00  0.00    +0.006 A 
ATOM     16  C   UNL     1      -0.132  -3.987   3.535  0.00  0.00    +0.000 A 
ATOM     17  C   UNL     1      -0.238  -5.352   3.347  0.00  0.00    +0.001 A 
ATOM     18  C   UNL     1      -0.225  -5.877   2.068  0.00  0.00    +0.013 A 
ATOM     19  C   UNL     1      -0.110  -5.036   0.977  0.00  0.00    +0.060 A 
BRANCH  19  20
ATOM     20  C   UNL     1      -0.102  -5.608  -0.417  0.00  0.00    +0.418 C 
ATOM     21  F   UNL     1      -0.307  -6.990  -0.356  0.00  0.00    -0.166 F 
ATOM     22  F   UNL     1      -1.123  -5.018  -1.169  0.00  0.00    -0.166 F 
ATOM     23  F   UNL     1       1.133  -5.346  -1.021  0.00  0.00    -0.166 F 
ENDBRANCH  19  20
ENDBRANCH   5  14
BRANCH  11  24
ATOM     24  C   UNL     1      -4.793  -1.431  -0.605  0.00  0.00    +0.204 C 
BRANCH  24  25
ATOM     25  C   UNL     1      -5.466  -1.486   0.742  0.00  0.00    +0.233 C 
ATOM     26  O   UNL     1      -4.799  -1.474   1.754  0.00  0.00    -0.274 OA
ATOM     27  N   UNL     1      -6.810  -1.549   0.821  0.00  0.00    -0.297 N 
ATOM     28  C   UNL     1      -7.631  -1.570  -0.398  0.00  0.00    +0.126 C 
ATOM     29  C   UNL     1      -8.537  -2.807  -0.358  0.00  0.00    +0.125 C 
ATOM     30  N   UNL     1      -9.207  -2.856   0.949  0.00  0.00    -0.314 N 
ATOM     31  C   UNL     1      -8.386  -2.835   2.168  0.00  0.00    +0.125 C 
ATOM     32  C   UNL     1      -7.481  -1.603   2.127  0.00  0.00    +0.126 C 
ATOM     33  C   UNL     1     -10.593  -2.920   1.030  0.00  0.00    +0.099 A 
ATOM     34  C   UNL     1     -11.346  -3.079  -0.129  0.00  0.00    +0.042 A 
ATOM     35  C   UNL     1     -12.724  -3.142  -0.033  0.00  0.00    +0.005 A 
ATOM     36  C   UNL     1     -13.306  -3.043   1.224  0.00  0.00    +0.018 A 
ATOM     37  C   UNL     1     -12.499  -2.886   2.332  0.00  0.00    +0.084 A 
ATOM     38  N   UNL     1     -11.186  -2.835   2.212  0.00  0.00    -0.350 N 
ATOM     39  H   UNL     1     -10.641  -2.729   3.007  0.00  0.00    +0.166 HD
ENDBRANCH  24  25
ENDBRANCH  11  24
TORSDOF 4
