REMARK  Name = ZINC21726282
REMARK  6 active torsions:
REMARK  status: ('A' for Active; 'I' for Inactive)
REMARK    1  A    between atoms: C_1  and  C_2
REMARK    2  A    between atoms: C_13  and  C_16
REMARK    3  A    between atoms: C_21  and  C_23
REMARK    4  A    between atoms: C_28  and  O_29
REMARK    5  A    between atoms: O_29  and  C_30
REMARK    6  A    between atoms: C_30  and  C_31
REMARK                            x       y       z     vdW  Elec       q    Type
REMARK                         _______ _______ _______ _____ _____    ______ ____
ROOT
ATOM      1  C   UNL     1      -2.962   1.036   3.542  0.00  0.00    +0.068 C 
ATOM      2  C   UNL     1      -3.183   1.168   2.057  0.00  0.00    +0.066 A 
ATOM      3  C   UNL     1      -2.197   1.390   1.105  0.00  0.00    +0.023 A 
ATOM      4  C   UNL     1      -2.800   1.436  -0.124  0.00  0.00    +0.134 A 
ATOM      5  N   UNL     1      -4.125   1.269   0.065  0.00  0.00    -0.198 N 
ATOM      6  N   UNL     1      -4.340   1.093   1.442  0.00  0.00    -0.168 NA
ATOM      7  C   UNL     1      -5.108   1.271  -0.929  0.00  0.00    +0.176 A 
ATOM      8  C   UNL     1      -6.320   0.590  -0.710  0.00  0.00    +0.054 A 
ATOM      9  C   UNL     1      -7.283   0.585  -1.670  0.00  0.00    +0.054 A 
ATOM     10  C   UNL     1      -7.049   1.268  -2.878  0.00  0.00    +0.178 A 
ATOM     11  N   UNL     1      -7.760   1.451  -3.980  0.00  0.00    -0.128 NA
ATOM     12  N   UNL     1      -7.082   2.166  -4.808  0.00  0.00    -0.132 NA
ATOM     13  C   UNL     1      -5.918   2.476  -4.292  0.00  0.00    +0.152 A 
ATOM     14  N   UNL     1      -5.856   1.924  -3.061  0.00  0.00    -0.195 N 
ATOM     15  N   UNL     1      -4.890   1.913  -2.052  0.00  0.00    -0.144 NA
ATOM     16  C   UNL     1      -4.844   3.301  -4.952  0.00  0.00    +0.090 C 
ATOM     17  N   UNL     1      -2.069   1.644  -1.293  0.00  0.00    -0.270 N 
ATOM     18  C   UNL     1      -0.723   1.575  -1.222  0.00  0.00    +0.219 C 
ATOM     19  O   UNL     1      -0.066   1.920  -2.182  0.00  0.00    -0.275 OA
ATOM     20  C   UNL     1      -0.013   1.086   0.008  0.00  0.00    +0.109 C 
ATOM     21  C   UNL     1      -0.713   1.571   1.282  0.00  0.00    +0.066 C 
ATOM     22  H   UNL     1      -2.592   1.856  -2.237  0.00  0.00    +0.156 HD
ENDROOT
BRANCH  21  23
ATOM     23  C   UNL     1      -0.240   0.762   2.461  0.00  0.00    +0.002 A 
ATOM     24  C   UNL     1      -0.435  -0.606   2.484  0.00  0.00    +0.008 A 
ATOM     25  C   UNL     1       0.003  -1.350   3.564  0.00  0.00    +0.001 A 
ATOM     26  C   UNL     1       0.627  -0.726   4.628  0.00  0.00    +0.004 A 
ATOM     27  C   UNL     1       0.820   0.641   4.613  0.00  0.00    +0.046 A 
ATOM     28  C   UNL     1       0.386   1.390   3.528  0.00  0.00    +0.125 A 
BRANCH  28  29
ATOM     29  O   UNL     1       0.575   2.735   3.510  0.00  0.00    -0.488 OA
BRANCH  29  30
ATOM     30  C   UNL     1       1.227   3.314   4.643  0.00  0.00    +0.256 C 
BRANCH  30  31
ATOM     31  C   UNL     1       1.346   4.803   4.446  0.00  0.00    +0.006 C 
ATOM     32  C   UNL     1       1.053   5.619   5.429  0.00  0.00    +0.007 C 
ENDBRANCH  30  31
ENDBRANCH  29  30
ENDBRANCH  28  29
ENDBRANCH  21  23
TORSDOF 4
