REMARK  Name = ZINC39883352
REMARK  5 active torsions:
REMARK  status: ('A' for Active; 'I' for Inactive)
REMARK    1  A    between atoms: C_6  and  C_7
REMARK    2  A    between atoms: C_7  and  N_8
REMARK    3  A    between atoms: N_8  and  C_9
REMARK    4  A    between atoms: C_17  and  C_19
REMARK    5  A    between atoms: C_19  and  C_20
REMARK                            x       y       z     vdW  Elec       q    Type
REMARK                         _______ _______ _______ _____ _____    ______ ____
ROOT
ATOM      1  N   UNL     1      -1.749  -0.923  -1.323  0.00  0.00    -0.292 N 
ATOM      2  C   UNL     1      -2.410  -0.031  -2.087  0.00  0.00    +0.221 C 
ATOM      3  O   UNL     1      -2.859   0.979  -1.588  0.00  0.00    -0.275 OA
ENDROOT
BRANCH   1   4
ATOM      4  C   UNL     1      -1.305  -2.195  -1.899  0.00  0.00    +0.099 C 
ATOM      5  C   UNL     1      -0.442  -2.947  -0.872  0.00  0.00    +0.046 C 
ATOM      6  C   UNL     1      -0.250  -4.405  -1.377  0.00  0.00    +0.168 C 
ATOM      7  S   UNL     1      -1.939  -4.766  -2.017  0.00  0.00    -0.029 S 
ATOM      8  O   UNL     1      -2.704  -5.374  -0.986  0.00  0.00    -0.174 OA
ATOM      9  O   UNL     1      -1.827  -5.412  -3.278  0.00  0.00    -0.174 OA
ATOM     10  C   UNL     1      -2.541  -3.048  -2.273  0.00  0.00    +0.188 C 
ENDBRANCH   1   4
BRANCH   1  11
ATOM     11  C   UNL     1      -1.473  -0.620   0.084  0.00  0.00    +0.143 C 
BRANCH  11  17
ATOM     12  C   UNL     1      -0.274   1.575   0.007  0.00  0.00    +0.006 A 
ATOM     13  C   UNL     1       0.879   2.333   0.099  0.00  0.00    +0.020 A 
ATOM     14  C   UNL     1       2.090   1.720   0.367  0.00  0.00    +0.041 A 
ATOM     15  C   UNL     1       2.146   0.349   0.543  0.00  0.00    +0.020 A 
ATOM     16  C   UNL     1       0.993  -0.408   0.452  0.00  0.00    +0.006 A 
ATOM     17  C   UNL     1      -0.216   0.205   0.184  0.00  0.00    -0.030 A 
ATOM     18 CL   UNL     1       3.538   2.671   0.481  0.00  0.00    -0.084 Cl
ENDBRANCH  11  17
ENDBRANCH   1  11
BRANCH   2  19
ATOM     19  C   UNL     1      -2.593  -0.290  -3.560  0.00  0.00    +0.134 C 
BRANCH  19  20
ATOM     20  C   UNL     1      -3.224   0.915  -4.207  0.00  0.00    +0.007 A 
ATOM     21  C   UNL     1      -4.529   1.113  -4.439  0.00  0.00    +0.200 A 
ATOM     22  O   UNL     1      -4.718   2.304  -5.034  0.00  0.00    -0.463 OA
ATOM     23  C   UNL     1      -3.544   2.942  -5.218  0.00  0.00    +0.135 A 
ATOM     24  C   UNL     1      -2.534   2.111  -4.705  0.00  0.00    +0.025 A 
ATOM     25  C   UNL     1      -1.201   2.518  -4.754  0.00  0.00    +0.027 A 
ATOM     26  C   UNL     1      -0.882   3.740  -5.305  0.00  0.00    +0.019 A 
ATOM     27  C   UNL     1      -1.880   4.562  -5.809  0.00  0.00    +0.019 A 
ATOM     28  C   UNL     1      -3.201   4.168  -5.774  0.00  0.00    +0.048 A 
ATOM     29 BR   UNL     1       0.923   4.299  -5.374  0.00  0.00    -0.050 Br
ENDBRANCH  19  20
ENDBRANCH   2  19
TORSDOF 5
