REMARK  Name = ZINC33063180
REMARK  5 active torsions:
REMARK  status: ('A' for Active; 'I' for Inactive)
REMARK    1  A    between atoms: C_1  and  O_2
REMARK    2  A    between atoms: O_2  and  C_3
REMARK    3  A    between atoms: C_7  and  N_9
REMARK    4  A    between atoms: C_10  and  C_12
REMARK    5  A    between atoms: C_15  and  C_18
REMARK                            x       y       z     vdW  Elec       q    Type
REMARK                         _______ _______ _______ _____ _____    ______ ____
ROOT
ATOM      1  C   UNL     1       2.523   4.273  -4.683  0.00  0.00    +0.037 A 
ATOM      2  C   UNL     1       1.258   4.269  -4.093  0.00  0.00    +0.013 A 
ATOM      3  C   UNL     1       1.140   4.334  -2.720  0.00  0.00    +0.007 A 
ATOM      4  C   UNL     1       2.273   4.403  -1.928  0.00  0.00    -0.011 A 
ATOM      5  C   UNL     1       3.529   4.412  -2.507  0.00  0.00    +0.007 A 
ATOM      6  C   UNL     1       3.661   4.343  -3.878  0.00  0.00    +0.013 A 
ENDROOT
BRANCH   4   7
ATOM      7  C   UNL     1       2.136   4.474  -0.429  0.00  0.00    +0.191 C 
ATOM      8  N   UNL     1       0.923   3.774  -0.013  0.00  0.00    -0.322 N 
ATOM      9  C   UNL     1       0.776   2.391  -0.085  0.00  0.00    +0.055 A 
ATOM     10  C   UNL     1      -0.509   1.853  -0.111  0.00  0.00    +0.025 A 
ATOM     11  C   UNL     1      -0.689   0.485  -0.144  0.00  0.00    +0.002 A 
ATOM     12  C   UNL     1       0.405  -0.361  -0.153  0.00  0.00    +0.002 A 
ATOM     13  C   UNL     1       1.684   0.166  -0.135  0.00  0.00    +0.030 A 
ATOM     14  C   UNL     1       1.867   1.533  -0.108  0.00  0.00    +0.126 A 
ATOM     15  S   UNL     1       3.502   2.203  -0.122  0.00  0.00    +0.062 S 
ATOM     16  O   UNL     1       4.192   1.636   0.983  0.00  0.00    -0.153 OA
ATOM     17  O   UNL     1       3.978   2.108  -1.458  0.00  0.00    -0.153 OA
ATOM     18  N   UNL     1       3.300   3.825   0.208  0.00  0.00    -0.166 NA
ATOM     19  H   UNL     1       0.068   4.342   0.379  0.00  0.00    +0.148 HD
ATOM     20  H   UNL     1       4.059   4.436   0.718  0.00  0.00    +0.150 HD
ENDBRANCH   4   7
BRANCH   1  22
ATOM     21  N   UNL     1       3.879   4.209  -6.720  0.00  0.00    -0.281 N 
ATOM     22  C   UNL     1       2.656   4.205  -6.154  0.00  0.00    +0.248 C 
ATOM     23  O   UNL     1       1.663   4.145  -6.852  0.00  0.00    -0.270 OA
ATOM     24  H   UNL     1       4.774   4.350  -6.096  0.00  0.00    +0.155 HD
BRANCH  21  29
ATOM     25  C   UNL     1       3.253   3.046 -10.155  0.00  0.00    +0.122 A 
ATOM     26  C   UNL     1       4.276   3.690 -10.838  0.00  0.00    +0.046 A 
ATOM     27  C   UNL     1       5.162   4.501 -10.155  0.00  0.00    +0.005 A 
ATOM     28  C   UNL     1       5.032   4.674  -8.790  0.00  0.00    +0.023 A 
ATOM     29  C   UNL     1       4.010   4.034  -8.101  0.00  0.00    +0.037 A 
ATOM     30  C   UNL     1       3.123   3.214  -8.785  0.00  0.00    +0.069 A 
BRANCH  25  32
ATOM     31  C   UNL     1       2.579   2.119 -12.237  0.00  0.00    +0.277 C 
ATOM     32  O   UNL     1       2.382   2.249 -10.828  0.00  0.00    -0.495 OA
ENDBRANCH  25  32
ENDBRANCH  21  29
ENDBRANCH   1  22
TORSDOF 4
