REMARK  Name = ZINC36970876
REMARK  3 active torsions:
REMARK  status: ('A' for Active; 'I' for Inactive)
REMARK    1  A    between atoms: C_3  and  N_17
REMARK    2  A    between atoms: C_4  and  N_8
REMARK    3  A    between atoms: N_8  and  C_9
REMARK                            x       y       z     vdW  Elec       q    Type
REMARK                         _______ _______ _______ _____ _____    ______ ____
ROOT
ATOM      1  C   UNL     1      -0.005   1.397   0.060  0.00  0.00    +0.022 A 
ATOM      2  C   UNL     1       1.189   2.062   0.275  0.00  0.00    +0.036 A 
ATOM      3  C   UNL     1       2.385   1.374   0.210  0.00  0.00    +0.147 A 
ATOM      4  C   UNL     1       2.389   0.014  -0.071  0.00  0.00    +0.059 A 
ATOM      5  C   UNL     1       1.189  -0.651  -0.287  0.00  0.00    +0.045 A 
ATOM      6  C   UNL     1      -0.005   0.042  -0.221  0.00  0.00    +0.043 A 
ATOM      7 CL   UNL     1      -1.506  -0.787  -0.490  0.00  0.00    -0.083 Cl
ENDROOT
BRANCH   3   8
ATOM      8  N   UNL     1       3.662   2.087   0.440  0.00  0.00    +0.058 N 
ATOM      9  O   UNL     1       4.560   1.540   1.036  0.00  0.00    -0.126 OA
ATOM     10  O   UNL     1       3.806   3.215   0.031  0.00  0.00    -0.126 OA
ENDBRANCH   3   8
BRANCH   4  11
ATOM     11  N   UNL     1       3.597  -0.684  -0.138  0.00  0.00    -0.339 N 
ATOM     12  H   UNL     1       4.438  -0.205  -0.070  0.00  0.00    +0.146 HD
BRANCH  11  13
ATOM     13  C   UNL     1       3.594  -2.138  -0.311  0.00  0.00    +0.073 C 
ATOM     14  C   UNL     1       3.418  -2.806   1.049  0.00  0.00    +0.045 C 
ATOM     15  C   UNL     1       3.144  -4.301   0.866  0.00  0.00    +0.167 C 
ATOM     16  S   UNL     1       4.590  -5.073   0.082  0.00  0.00    -0.031 S 
ATOM     17  O   UNL     1       4.231  -6.382  -0.339  0.00  0.00    -0.174 OA
ATOM     18  O   UNL     1       5.712  -4.902   0.936  0.00  0.00    -0.174 OA
ATOM     19  C   UNL     1       4.819  -4.035  -1.393  0.00  0.00    +0.167 C 
ATOM     20  C   UNL     1       4.907  -2.570  -0.958  0.00  0.00    +0.045 C 
ENDBRANCH  11  13
ENDBRANCH   4  11
TORSDOF 3
