REMARK  Name = ZINC10122923
REMARK  13 active torsions:
REMARK  status: ('A' for Active; 'I' for Inactive)
REMARK    1  A    between atoms: C_1  and  C_2
REMARK    2  A    between atoms: C_2  and  C_3
REMARK    3  A    between atoms: C_3  and  C_5
REMARK    4  A    between atoms: C_3  and  O_6
REMARK    5  A    between atoms: O_6  and  C_7
REMARK    6  A    between atoms: C_11  and  C_13
REMARK    7  A    between atoms: N_15  and  C_16
REMARK    8  A    between atoms: C_16  and  N_18
REMARK    9  A    between atoms: N_18  and  C_19
REMARK   10  A    between atoms: C_24  and  C_25
REMARK   11  A    between atoms: N_27  and  C_28
REMARK   12  A    between atoms: C_28  and  C_30
REMARK   13  A    between atoms: C_28  and  C_31
REMARK                            x       y       z     vdW  Elec       q    Type
REMARK                         _______ _______ _______ _____ _____    ______ ____
ROOT
ATOM      1  N   UNL     1       5.447   4.679  -1.000  0.00  0.00    -0.296 N 
ATOM      2  H   UNL     1       4.621   5.139  -1.215  0.00  0.00    +0.154 HD
ENDROOT
BRANCH   1   3
ATOM      3  C   UNL     1       6.666   5.336  -1.142  0.00  0.00    +0.045 A 
ATOM      4  C   UNL     1       7.736   4.698  -1.757  0.00  0.00    +0.024 A 
ATOM      5  C   UNL     1       8.941   5.354  -1.902  0.00  0.00    +0.002 A 
ATOM      6  C   UNL     1       9.099   6.646  -1.426  0.00  0.00    +0.001 A 
ATOM      7  C   UNL     1       8.051   7.293  -0.808  0.00  0.00    +0.015 A 
ATOM      8  C   UNL     1       6.822   6.644  -0.659  0.00  0.00    +0.058 A 
BRANCH   8   9
ATOM      9  C   UNL     1       5.696   7.331   0.001  0.00  0.00    +0.246 C 
ATOM     10  O   UNL     1       4.603   6.801   0.045  0.00  0.00    -0.270 OA
ATOM     11  N   UNL     1       5.879   8.546   0.554  0.00  0.00    -0.305 N 
ATOM     12  H   UNL     1       6.752   8.969   0.519  0.00  0.00    +0.150 HD
BRANCH  11  13
ATOM     13  C   UNL     1       4.761   9.228   1.210  0.00  0.00    +0.100 C 
ATOM     14  C   UNL     1       4.648   8.747   2.658  0.00  0.00    +0.033 C 
BRANCH  13  15
ATOM     15  C   UNL     1       5.000  10.716   1.192  0.00  0.00    -0.027 A 
ATOM     16  C   UNL     1       6.267  11.215   1.426  0.00  0.00    +0.005 A 
ATOM     17  C   UNL     1       6.487  12.580   1.405  0.00  0.00    +0.000 A 
ATOM     18  C   UNL     1       5.438  13.445   1.160  0.00  0.00    +0.000 A 
ATOM     19  C   UNL     1       4.169  12.946   0.931  0.00  0.00    +0.000 A 
ATOM     20  C   UNL     1       3.950  11.582   0.948  0.00  0.00    +0.005 A 
ENDBRANCH  13  15
ENDBRANCH  11  13
ENDBRANCH   8   9
ENDBRANCH   1   3
BRANCH   1  21
ATOM     21  C   UNL     1       5.416   3.404  -0.564  0.00  0.00    +0.141 C 
ATOM     22  S   UNL     1       6.861   2.635  -0.062  0.00  0.00    -0.018 S 
BRANCH  21  25
ATOM     23  C   UNL     1       4.215   1.460  -0.085  0.00  0.00    +0.250 C 
ATOM     24  O   UNL     1       5.241   0.914   0.271  0.00  0.00    -0.270 OA
ATOM     25  N   UNL     1       4.247   2.735  -0.522  0.00  0.00    -0.264 N 
ATOM     26  H   UNL     1       3.428   3.171  -0.806  0.00  0.00    +0.157 HD
BRANCH  23  31
ATOM     27  C   UNL     1       1.693  -1.275   0.453  0.00  0.00    +0.122 A 
ATOM     28  C   UNL     1       0.525  -0.645   0.045  0.00  0.00    +0.046 A 
ATOM     29  C   UNL     1       0.558   0.663  -0.402  0.00  0.00    +0.004 A 
ATOM     30  C   UNL     1       1.754   1.351  -0.447  0.00  0.00    +0.013 A 
ATOM     31  C   UNL     1       2.933   0.726  -0.039  0.00  0.00    +0.041 A 
ATOM     32  C   UNL     1       2.898  -0.594   0.412  0.00  0.00    +0.058 A 
BRANCH  27  33
ATOM     33  O   UNL     1       1.654  -2.560   0.892  0.00  0.00    -0.489 OA
BRANCH  33  34
ATOM     34  C   UNL     1       0.365  -3.162   1.023  0.00  0.00    +0.170 C 
ATOM     35  C   UNL     1      -0.072  -3.733  -0.327  0.00  0.00    +0.052 C 
BRANCH  34  37
ATOM     36  C   UNL     1       0.745  -3.700   3.433  0.00  0.00    +0.007 C 
ATOM     37  C   UNL     1       0.430  -4.288   2.056  0.00  0.00    +0.041 C 
ENDBRANCH  34  37
ENDBRANCH  33  34
ENDBRANCH  27  33
ENDBRANCH  23  31
ENDBRANCH  21  25
ENDBRANCH   1  21
TORSDOF 10
