REMARK  Name = ZINC36203578
REMARK  11 active torsions:
REMARK  status: ('A' for Active; 'I' for Inactive)
REMARK    1  A    between atoms: C_1  and  C_2
REMARK    2  A    between atoms: C_5  and  C_7
REMARK    3  A    between atoms: C_7  and  N_8
REMARK    4  A    between atoms: N_8  and  C_9
REMARK    5  A    between atoms: N_8  and  C_31
REMARK    6  A    between atoms: C_9  and  C_10
REMARK    7  A    between atoms: C_13  and  C_15
REMARK    8  A    between atoms: C_15  and  C_16
REMARK    9  A    between atoms: C_15  and  C_23
REMARK   10  A    between atoms: C_15  and  O_30
REMARK   11  A    between atoms: C_31  and  C_32
REMARK                            x       y       z     vdW  Elec       q    Type
REMARK                         _______ _______ _______ _____ _____    ______ ____
ROOT
ATOM      1  C   UNL     1       2.812  -5.657  -3.610  0.00  0.00    +0.089 A 
ATOM      2  C   UNL     1       3.354  -5.516  -4.833  0.00  0.00    +0.043 A 
ATOM      3  C   UNL     1       2.470  -6.134  -5.747  0.00  0.00    +0.048 A 
ATOM      4  C   UNL     1       1.440  -6.616  -5.027  0.00  0.00    +0.146 A 
ATOM      5  O   UNL     1       1.656  -6.329  -3.733  0.00  0.00    -0.463 OA
ENDROOT
BRANCH   1   6
ATOM      6  C   UNL     1       3.405  -5.152  -2.320  0.00  0.00    -0.003 C 
BRANCH   6   7
ATOM      7  N   UNL     1       2.919  -3.790  -2.058  0.00  0.00    +0.389 N 
ATOM      8  H   UNL     1       3.123  -3.202  -2.852  0.00  0.00    -0.081 HD
BRANCH   7   9
ATOM      9  C   UNL     1       3.588  -3.253  -0.866  0.00  0.00    -0.035 C 
BRANCH   9  14
ATOM     10  C   UNL     1       9.211  -3.499  -1.507  0.00  0.00    +0.051 C 
ATOM     11  C   UNL     1       7.735  -3.199  -1.454  0.00  0.00    -0.013 A 
ATOM     12  C   UNL     1       7.070  -2.106  -1.901  0.00  0.00    +0.011 A 
ATOM     13  C   UNL     1       5.698  -2.046  -1.744  0.00  0.00    +0.009 A 
ATOM     14  C   UNL     1       5.058  -3.082  -1.149  0.00  0.00    -0.026 A 
ATOM     15  S   UNL     1       6.409  -4.194  -0.793  0.00  0.00    -0.100 S 
ENDBRANCH   9  14
ENDBRANCH   7   9
BRANCH   7  16
ATOM     16  C   UNL     1       1.468  -3.823  -1.832  0.00  0.00    -0.046 C 
BRANCH  16  17
ATOM     17  C   UNL     1       0.937  -2.393  -1.721  0.00  0.00    +0.102 C 
ATOM     18  C   UNL     1      -0.583  -2.418  -1.446  0.00  0.00    +0.032 C 
ATOM     19  C   UNL     1      -1.094  -1.236  -2.315  0.00  0.00    +0.030 C 
ATOM     20  C   UNL     1      -0.123  -1.315  -3.520  0.00  0.00    +0.160 C 
ATOM     21  O   UNL     1       1.143  -1.700  -2.957  0.00  0.00    -0.378 OA
ENDBRANCH  16  17
ENDBRANCH   7  16
ENDBRANCH   6   7
ENDBRANCH   1   6
BRANCH   4  22
ATOM     22  C   UNL     1       0.249  -7.357  -5.579  0.00  0.00    +0.174 C 
BRANCH  22  23
ATOM     23  C   UNL     1      -0.263  -8.326  -4.545  0.00  0.00    -0.004 A 
ATOM     24  C   UNL     1      -0.232  -9.685  -4.797  0.00  0.00    +0.010 A 
ATOM     25  C   UNL     1      -0.701 -10.575  -3.850  0.00  0.00    +0.039 A 
ATOM     26  C   UNL     1      -1.201 -10.105  -2.647  0.00  0.00    +0.123 A 
ATOM     27  C   UNL     1      -1.232  -8.743  -2.396  0.00  0.00    +0.039 A 
ATOM     28  C   UNL     1      -0.757  -7.856  -3.343  0.00  0.00    +0.010 A 
ATOM     29  F   UNL     1      -1.661 -10.974  -1.720  0.00  0.00    -0.205 F 
ENDBRANCH  22  23
BRANCH  22  30
ATOM     30  C   UNL     1      -0.838  -6.372  -5.927  0.00  0.00    -0.004 A 
ATOM     31  C   UNL     1      -1.106  -5.313  -5.081  0.00  0.00    +0.010 A 
ATOM     32  C   UNL     1      -2.103  -4.409  -5.399  0.00  0.00    +0.039 A 
ATOM     33  C   UNL     1      -2.832  -4.566  -6.566  0.00  0.00    +0.123 A 
ATOM     34  C   UNL     1      -2.562  -5.628  -7.413  0.00  0.00    +0.039 A 
ATOM     35  C   UNL     1      -1.561  -6.527  -7.095  0.00  0.00    +0.010 A 
ATOM     36  F   UNL     1      -3.806  -3.684  -6.878  0.00  0.00    -0.205 F 
ENDBRANCH  22  30
BRANCH  22  37
ATOM     37  O   UNL     1       0.637  -8.073  -6.753  0.00  0.00    -0.372 OA
ATOM     38  H   UNL     1       0.977  -7.511  -7.463  0.00  0.00    +0.212 HD
ENDBRANCH  22  37
ENDBRANCH   4  22
TORSDOF 10
