REMARK  Name = ZINC20413507
REMARK  7 active torsions:
REMARK  status: ('A' for Active; 'I' for Inactive)
REMARK    1  A    between atoms: C_1  and  C_2
REMARK    2  A    between atoms: C_7  and  N_8
REMARK    3  A    between atoms: C_9  and  C_11
REMARK    4  A    between atoms: C_12  and  C_30
REMARK    5  A    between atoms: C_16  and  S_28
REMARK    6  A    between atoms: C_19  and  C_21
REMARK    7  A    between atoms: S_28  and  C_29
REMARK                            x       y       z     vdW  Elec       q    Type
REMARK                         _______ _______ _______ _____ _____    ______ ____
ROOT
ATOM      1  C   UNL     1       2.366   0.046   0.240  0.00  0.00    +0.060 C 
ATOM      2  C   UNL     1       1.206  -0.626   0.234  0.00  0.00    +0.018 C 
ATOM      3  N   UNL     1       0.005  -0.011  -0.027  0.00  0.00    -0.287 N 
ATOM      4  C   UNL     1      -0.015   1.377  -0.026  0.00  0.00    +0.219 A 
ATOM      5  N   UNL     1      -1.026   2.203  -0.017  0.00  0.00    -0.187 NA
ATOM      6  C   UNL     1      -0.573   3.465  -0.016  0.00  0.00    +0.210 A 
ATOM      7  N   UNL     1       0.743   3.449  -0.019  0.00  0.00    -0.141 NA
ATOM      8  N   UNL     1       1.127   2.109  -0.030  0.00  0.00    -0.220 N 
ATOM      9  C   UNL     1       2.464   1.521  -0.045  0.00  0.00    +0.177 C 
ATOM     10  C   UNL     1       1.219  -2.105   0.521  0.00  0.00    +0.061 C 
ATOM     11  H   UNL     1      -0.891  -0.616  -0.225  0.00  0.00    +0.155 HD
ENDROOT
BRANCH   9  12
ATOM     12  C   UNL     1       3.088   1.730  -1.401  0.00  0.00    -0.018 A 
ATOM     13  C   UNL     1       2.484   1.206  -2.528  0.00  0.00    +0.009 A 
ATOM     14  C   UNL     1       3.053   1.402  -3.772  0.00  0.00    +0.039 A 
ATOM     15  C   UNL     1       4.235   2.113  -3.888  0.00  0.00    +0.123 A 
ATOM     16  C   UNL     1       4.843   2.633  -2.757  0.00  0.00    +0.039 A 
ATOM     17  C   UNL     1       4.269   2.441  -1.515  0.00  0.00    +0.009 A 
ATOM     18  F   UNL     1       4.796   2.300  -5.103  0.00  0.00    -0.205 F 
ENDBRANCH   9  12
BRANCH   1  20
ATOM     19  N   UNL     1       4.738  -0.020   0.545  0.00  0.00    -0.281 N 
ATOM     20  C   UNL     1       3.555  -0.665   0.530  0.00  0.00    +0.248 C 
ATOM     21  O   UNL     1       3.508  -1.859   0.765  0.00  0.00    -0.270 OA
ATOM     22  H   UNL     1       4.790   1.041   0.260  0.00  0.00    +0.155 HD
BRANCH  19  29
ATOM     23  C   UNL     1       6.728   1.415   1.987  0.00  0.00    +0.045 C 
ATOM     24  C   UNL     1       6.897  -0.039   1.627  0.00  0.00    -0.029 A 
ATOM     25  C   UNL     1       8.043  -0.714   1.999  0.00  0.00    +0.005 A 
ATOM     26  C   UNL     1       8.199  -2.048   1.670  0.00  0.00    +0.000 A 
ATOM     27  C   UNL     1       7.208  -2.710   0.968  0.00  0.00    +0.002 A 
ATOM     28  C   UNL     1       6.058  -2.042   0.598  0.00  0.00    +0.023 A 
ATOM     29  C   UNL     1       5.900  -0.701   0.922  0.00  0.00    +0.037 A 
ENDBRANCH  19  29
ENDBRANCH   1  20
BRANCH   6  30
ATOM     30  S   UNL     1      -1.578   4.912  -0.006  0.00  0.00    -0.088 S 
ATOM     31  C   UNL     1      -3.274   4.269  -0.005  0.00  0.00    +0.093 C 
ENDBRANCH   6  30
TORSDOF 4
