REMARK  Name = ZINC19791812
REMARK  12 active torsions:
REMARK  status: ('A' for Active; 'I' for Inactive)
REMARK    1  A    between atoms: C_1  and  C_2
REMARK    2  A    between atoms: C_2  and  C_3
REMARK    3  A    between atoms: C_2  and  C_4
REMARK    4  A    between atoms: C_4  and  N_5
REMARK    5  A    between atoms: N_5  and  C_6
REMARK    6  A    between atoms: N_5  and  C_26
REMARK    7  A    between atoms: C_6  and  C_7
REMARK    8  A    between atoms: C_8  and  O_25
REMARK    9  A    between atoms: C_15  and  C_18
REMARK   10  A    between atoms: C_26  and  C_27
REMARK   11  A    between atoms: C_27  and  C_28
REMARK   12  A    between atoms: C_27  and  C_29
REMARK                            x       y       z     vdW  Elec       q    Type
REMARK                         _______ _______ _______ _____ _____    ______ ____
ROOT
ATOM      1  C   UNL     1      -1.067   0.873   1.060  0.00  0.00    +0.020 A 
ATOM      2  C   UNL     1      -0.893   2.017   1.821  0.00  0.00    +0.122 A 
ATOM      3  C   UNL     1      -1.788   2.333   2.841  0.00  0.00    +0.046 A 
ATOM      4  C   UNL     1      -2.843   1.510   3.112  0.00  0.00    +0.019 A 
ATOM      5  C   UNL     1      -3.028   0.351   2.358  0.00  0.00    +0.065 A 
ATOM      6  C   UNL     1      -2.135   0.026   1.322  0.00  0.00    +0.143 A 
ATOM      7  O   UNL     1      -2.316  -1.094   0.594  0.00  0.00    -0.462 OA
ATOM      8  C   UNL     1      -3.324  -1.946   0.798  0.00  0.00    +0.208 A 
ATOM      9  C   UNL     1      -4.258  -1.755   1.765  0.00  0.00    +0.066 A 
ATOM     10  C   UNL     1      -4.157  -0.560   2.621  0.00  0.00    +0.200 A 
ATOM     11  O   UNL     1      -4.967  -0.336   3.504  0.00  0.00    -0.286 OA
ENDROOT
BRANCH   9  12
ATOM     12  C   UNL     1      -5.360  -2.730   1.955  0.00  0.00    +0.007 A 
ATOM     13  C   UNL     1      -5.079  -4.030   2.369  0.00  0.00    +0.010 A 
ATOM     14  C   UNL     1      -6.108  -4.933   2.545  0.00  0.00    +0.001 A 
ATOM     15  C   UNL     1      -7.417  -4.550   2.311  0.00  0.00    +0.001 A 
ATOM     16  C   UNL     1      -7.702  -3.260   1.900  0.00  0.00    +0.020 A 
ATOM     17  C   UNL     1      -6.681  -2.346   1.726  0.00  0.00    +0.049 A 
ATOM     18 CL   UNL     1      -7.041  -0.727   1.216  0.00  0.00    -0.083 Cl
ENDBRANCH   9  12
BRANCH   2  19
ATOM     19  O   UNL     1       0.155   2.841   1.566  0.00  0.00    -0.506 OA
ATOM     20  H   UNL     1       0.298   3.751   2.167  0.00  0.00    +0.292 HD
ENDBRANCH   2  19
BRANCH   1  21
ATOM     21  C   UNL     1      -0.097   0.546  -0.046  0.00  0.00    -0.036 C 
BRANCH  21  22
ATOM     22  N   UNL     1      -0.564   1.149  -1.302  0.00  0.00    +0.383 N 
ATOM     23  H   UNL     1      -0.683   2.229  -1.134  0.00  0.00    -0.081 HD
BRANCH  22  24
ATOM     24  C   UNL     1       0.424   0.965  -2.373  0.00  0.00    -0.075 C 
BRANCH  24  26
ATOM     25  C   UNL     1       2.288   1.883  -0.986  0.00  0.00    +0.005 C 
ATOM     26  C   UNL     1       1.489   2.058  -2.279  0.00  0.00    -0.034 C 
ATOM     27  C   UNL     1       2.433   1.956  -3.479  0.00  0.00    +0.005 C 
ENDBRANCH  24  26
ENDBRANCH  22  24
BRANCH  22  28
ATOM     28  C   UNL     1      -1.872   0.606  -1.692  0.00  0.00    -0.075 C 
BRANCH  28  29
ATOM     29  C   UNL     1      -2.473   1.470  -2.802  0.00  0.00    -0.034 C 
ATOM     30  C   UNL     1      -3.781   0.841  -3.286  0.00  0.00    +0.005 C 
ATOM     31  C   UNL     1      -2.752   2.874  -2.260  0.00  0.00    +0.005 C 
ENDBRANCH  28  29
ENDBRANCH  22  28
ENDBRANCH  21  22
ENDBRANCH   1  21
TORSDOF 8
