REMARK  Name = ZINC05283824
REMARK  7 active torsions:
REMARK  status: ('A' for Active; 'I' for Inactive)
REMARK    1  A    between atoms: C_1  and  C_2
REMARK    2  A    between atoms: C_2  and  C_3
REMARK    3  A    between atoms: C_2  and  C_4
REMARK    4  A    between atoms: C_2  and  O_18
REMARK    5  A    between atoms: C_5  and  C_6
REMARK    6  A    between atoms: C_7  and  C_8
REMARK    7  A    between atoms: N_16  and  C_17
REMARK                            x       y       z     vdW  Elec       q    Type
REMARK                         _______ _______ _______ _____ _____    ______ ____
ROOT
ATOM      1  C   UNL     1      -0.016   1.357   0.009  0.00  0.00    +0.095 A 
ATOM      2  C   UNL     1       0.002  -0.004   0.002  0.00  0.00    +0.045 A 
ATOM      3  C   UNL     1       1.357  -0.417  -0.013  0.00  0.00    +0.001 A 
ATOM      4  C   UNL     1       1.980  -1.672  -0.026  0.00  0.00    +0.010 A 
ATOM      5  C   UNL     1       3.342  -1.753  -0.040  0.00  0.00    +0.001 A 
ATOM      6  C   UNL     1       4.119  -0.602  -0.041  0.00  0.00    +0.002 A 
ATOM      7  C   UNL     1       3.529   0.643  -0.029  0.00  0.00    +0.026 A 
ATOM      8  C   UNL     1       2.143   0.751  -0.014  0.00  0.00    +0.050 A 
ATOM      9  N   UNL     1       1.281   1.827  -0.000  0.00  0.00    -0.337 N 
ATOM     10  C   UNL     1       1.677   3.238   0.003  0.00  0.00    +0.150 C 
ENDROOT
BRANCH   1  12
ATOM     11  C   UNL     1      -2.160   2.839   0.028  0.00  0.00    -0.008 C 
ATOM     12  C   UNL     1      -1.194   2.171   0.020  0.00  0.00    -0.034 C 
BRANCH  11  14
ATOM     13  C   UNL     1      -4.258   4.290   0.046  0.00  0.00    -0.054 C 
ATOM     14  C   UNL     1      -3.293   3.622   0.038  0.00  0.00    -0.012 C 
BRANCH  13  16
ATOM     15  C   UNL     1      -6.305   4.830  -1.190  0.00  0.00    +0.055 C 
ATOM     16  C   UNL     1      -5.469   5.127   0.057  0.00  0.00    +0.122 C 
ATOM     17  C   UNL     1      -6.293   4.816   1.308  0.00  0.00    +0.055 C 
BRANCH  16  18
ATOM     18  O   UNL     1      -5.095   6.506   0.062  0.00  0.00    -0.377 OA
ATOM     19  H   UNL     1      -4.562   6.765   0.826  0.00  0.00    +0.211 HD
ENDBRANCH  16  18
ENDBRANCH  13  16
ENDBRANCH  11  14
ENDBRANCH   1  12
TORSDOF 4
