REMARK  Name = ZINC63529392
REMARK  5 active torsions:
REMARK  status: ('A' for Active; 'I' for Inactive)
REMARK    1  A    between atoms: C_1  and  C_2
REMARK    2  A    between atoms: C_2  and  C_3
REMARK    3  A    between atoms: C_3  and  C_23
REMARK    4  A    between atoms: C_4  and  C_22
REMARK    5  A    between atoms: C_10  and  C_15
REMARK                            x       y       z     vdW  Elec       q    Type
REMARK                         _______ _______ _______ _____ _____    ______ ____
ROOT
ATOM      1  C   UNL     1       0.718  -0.497  -1.257  0.00  0.00    +0.135 C 
ATOM      2  C   UNL     1       0.831  -2.031  -1.244  0.00  0.00    +0.101 C 
ATOM      3  C   UNL     1       0.214  -2.588   0.044  0.00  0.00    +0.133 C 
ATOM      4  C   UNL     1       0.818  -3.973   0.248  0.00  0.00    -0.035 C 
ATOM      5  C   UNL     1      -0.204  -4.821   0.308  0.00  0.00    -0.000 A 
ATOM      6  C   UNL     1      -0.256  -6.272   0.551  0.00  0.00    +0.013 A 
ATOM      7  C   UNL     1      -1.492  -6.837   0.534  0.00  0.00    -0.050 A 
ATOM      8  C   UNL     1      -2.666  -6.114   0.303  0.00  0.00    +0.005 A 
ATOM      9  C   UNL     1      -2.711  -4.777   0.074  0.00  0.00    +0.026 A 
ATOM     10  C   UNL     1      -1.474  -4.070   0.073  0.00  0.00    +0.043 A 
ATOM     11  N   UNL     1      -1.230  -2.792  -0.100  0.00  0.00    -0.375 N 
ATOM     12  C   UNL     1      -1.603  -8.320   0.778  0.00  0.00    +0.044 C 
ATOM     13  C   UNL     1       2.305  -4.228   0.290  0.00  0.00    +0.052 C 
ATOM     14  C   UNL     1       2.911  -3.585  -0.973  0.00  0.00    +0.116 C 
ATOM     15  N   UNL     1       2.290  -2.267  -1.163  0.00  0.00    -0.255 N 
ATOM     16  C   UNL     1       2.911  -1.087  -1.264  0.00  0.00    +0.404 C 
ATOM     17  O   UNL     1       4.119  -0.975  -1.343  0.00  0.00    -0.226 OA
ATOM     18  O   UNL     1       2.077  -0.041  -1.272  0.00  0.00    -0.442 OA
ATOM     19  C   UNL     1       0.218  -2.659  -2.498  0.00  0.00    +0.038 C 
ATOM     20  C   UNL     1      -0.019  -0.023  -2.511  0.00  0.00    +0.058 C 
ATOM     21  H   UNL     1      -1.883  -2.101  -0.291  0.00  0.00    +0.160 HD
ENDROOT
BRANCH   1  23
ATOM     22  C   UNL     1      -0.108   1.521  -0.039  0.00  0.00    +0.008 C 
ATOM     23  C   UNL     1       0.002  -0.004   0.002  0.00  0.00    +0.047 C 
ENDBRANCH   1  23
TORSDOF 1
