REMARK  Name = ZINC39951177
REMARK  5 active torsions:
REMARK  status: ('A' for Active; 'I' for Inactive)
REMARK    1  A    between atoms: C_1  and  C_2
REMARK    2  A    between atoms: C_2  and  C_3
REMARK    3  A    between atoms: C_3  and  C_4
REMARK    4  A    between atoms: C_9  and  C_26
REMARK    5  A    between atoms: C_26  and  C_27
REMARK                            x       y       z     vdW  Elec       q    Type
REMARK                         _______ _______ _______ _____ _____    ______ ____
ROOT
ATOM      1  C   UNL     1       0.715  -2.031  -1.258  0.00  0.00    +0.028 C 
ATOM      2  C   UNL     1       1.427  -2.542  -2.498  0.00  0.00    -0.059 C 
ATOM      3  N   UNL     1       1.272  -3.926  -2.831  0.00  0.00    +0.401 N 
ATOM      4  C   UNL     1       2.198  -4.874  -2.260  0.00  0.00    -0.074 C 
ATOM      5  C   UNL     1       2.613  -4.619  -0.854  0.00  0.00    -0.003 C 
ATOM      6  C   UNL     1       1.556  -4.057   0.047  0.00  0.00    +0.040 C 
ATOM      7  C   UNL     1       1.453  -2.565  -0.035  0.00  0.00    +0.146 C 
ATOM      8  O   UNL     1       1.930  -1.837   0.801  0.00  0.00    -0.296 OA
ATOM      9  C   UNL     1       0.188  -4.688  -0.200  0.00  0.00    +0.098 C 
ATOM     10  N   UNL     1      -0.562  -4.082  -1.288  0.00  0.00    -0.299 NA
ATOM     11  C   UNL     1      -0.707  -2.608  -1.160  0.00  0.00    +0.096 C 
ATOM     12  C   UNL     1      -0.094  -4.420  -2.629  0.00  0.00    +0.095 C 
ATOM     13  C   UNL     1      -1.019  -3.880  -3.675  0.00  0.00    -0.013 A 
ATOM     14  C   UNL     1      -1.390  -2.590  -3.987  0.00  0.00    +0.021 A 
ATOM     15  C   UNL     1      -2.291  -2.428  -5.035  0.00  0.00    +0.018 A 
ATOM     16  C   UNL     1      -2.788  -3.513  -5.729  0.00  0.00    +0.017 A 
ATOM     17  C   UNL     1      -2.419  -4.813  -5.421  0.00  0.00    +0.024 A 
ATOM     18  C   UNL     1      -1.515  -4.988  -4.372  0.00  0.00    +0.037 A 
ATOM     19  N   UNL     1      -0.981  -6.157  -3.858  0.00  0.00    -0.285 N 
ATOM     20  C   UNL     1      -0.135  -5.920  -2.834  0.00  0.00    +0.225 C 
ATOM     21  O   UNL     1       0.476  -6.752  -2.197  0.00  0.00    -0.275 OA
ATOM     22 BR   UNL     1      -2.845  -0.686  -5.519  0.00  0.00    -0.050 Br
ATOM     23  H   UNL     1      -1.190  -7.043  -4.195  0.00  0.00    +0.155 HD
ATOM     24  H   UNL     1       1.428  -3.985  -3.826  0.00  0.00    -0.078 HD
ENDROOT
BRANCH   6  25
ATOM     25  C   UNL     1       1.950  -4.406   1.483  0.00  0.00    +0.012 C 
ATOM     26  C   UNL     1       1.897  -5.923   1.673  0.00  0.00    +0.005 C 
ENDBRANCH   6  25
BRANCH   1  27
ATOM     27  C   UNL     1       0.680  -0.501  -1.245  0.00  0.00    +0.013 C 
BRANCH  27  29
ATOM     28  C   UNL     1      -0.074   1.512   0.028  0.00  0.00    +0.004 C 
ATOM     29  C   UNL     1      -0.039  -0.018   0.016  0.00  0.00    -0.002 C 
ENDBRANCH  27  29
ENDBRANCH   1  27
TORSDOF 3
