REMARK  Name = ZINC20611461
REMARK  3 active torsions:
REMARK  status: ('A' for Active; 'I' for Inactive)
REMARK    1  A    between atoms: C_4  and  C_7
REMARK    2  A    between atoms: C_7  and  C_8
REMARK    3  A    between atoms: N_16  and  C_19
REMARK                            x       y       z     vdW  Elec       q    Type
REMARK                         _______ _______ _______ _____ _____    ______ ____
ROOT
ATOM      1  C   UNL     1       4.171  -0.963   1.399  0.00  0.00    +0.072 C 
ATOM      2  C   UNL     1       5.559  -1.638   1.406  0.00  0.00    +0.107 C 
ATOM      3  C   UNL     1       5.501  -2.660   2.576  0.00  0.00    +0.122 C 
ATOM      4  C   UNL     1       5.618  -3.996   1.876  0.00  0.00    +0.228 C 
ATOM      5  O   UNL     1       5.620  -5.076   2.426  0.00  0.00    -0.275 OA
ATOM      6  N   UNL     1       5.718  -3.800   0.557  0.00  0.00    -0.238 N 
ATOM      7  C   UNL     1       5.700  -2.503   0.174  0.00  0.00    +0.227 C 
ATOM      8  O   UNL     1       5.781  -2.092  -0.964  0.00  0.00    -0.275 OA
ATOM      9  C   UNL     1       4.094  -2.492   3.163  0.00  0.00    +0.136 C 
ATOM     10  N   UNL     1       3.267  -1.937   2.066  0.00  0.00    -0.295 NA
ATOM     11  C   UNL     1       4.107  -1.601   4.373  0.00  0.00    +0.003 A 
ATOM     12  C   UNL     1       4.493  -0.297   4.586  0.00  0.00    +0.008 A 
ATOM     13  C   UNL     1       4.384   0.260   5.848  0.00  0.00    +0.000 A 
ATOM     14  C   UNL     1       3.887  -0.496   6.894  0.00  0.00    +0.002 A 
ATOM     15  C   UNL     1       3.499  -1.803   6.685  0.00  0.00    +0.023 A 
ATOM     16  C   UNL     1       3.605  -2.372   5.418  0.00  0.00    +0.039 A 
ATOM     17  N   UNL     1       3.281  -3.652   4.961  0.00  0.00    -0.283 N 
ATOM     18  C   UNL     1       3.538  -3.802   3.647  0.00  0.00    +0.243 C 
ATOM     19  O   UNL     1       3.356  -4.801   2.984  0.00  0.00    -0.273 OA
ATOM     20  H   UNL     1       2.447  -1.476   2.433  0.00  0.00    +0.124 HD
ATOM     21  H   UNL     1       2.915  -4.351   5.525  0.00  0.00    +0.155 HD
ENDROOT
BRANCH   6  22
ATOM     22  C   UNL     1       5.845  -4.902  -0.400  0.00  0.00    +0.084 C 
ATOM     23  C   UNL     1       7.204  -4.784  -1.121  0.00  0.00    +0.023 C 
ATOM     24  C   UNL     1       7.559  -6.130  -1.694  0.00  0.00    +0.002 C 
ATOM     25  C   UNL     1       7.117  -6.279  -3.162  0.00  0.00    +0.000 C 
ATOM     26  C   UNL     1       5.716  -5.696  -3.427  0.00  0.00    +0.000 C 
ATOM     27  C   UNL     1       4.739  -6.024  -2.331  0.00  0.00    +0.002 C 
ATOM     28  C   UNL     1       4.721  -4.855  -1.324  0.00  0.00    +0.023 C 
ENDBRANCH   6  22
BRANCH   1  29
ATOM     29  C   UNL     1       3.711  -0.707  -0.038  0.00  0.00    +0.054 C 
BRANCH  29  33
ATOM     30  C   UNL     1      -0.017   1.378   0.010  0.00  0.00    +0.000 A 
ATOM     31  C   UNL     1       1.171   2.086   0.002  0.00  0.00    +0.000 A 
ATOM     32  C   UNL     1       2.377   1.411  -0.013  0.00  0.00    +0.004 A 
ATOM     33  C   UNL     1       2.396   0.029  -0.020  0.00  0.00    -0.046 A 
ATOM     34  C   UNL     1       1.208  -0.679  -0.012  0.00  0.00    +0.004 A 
ATOM     35  C   UNL     1       0.002  -0.004   0.002  0.00  0.00    +0.000 A 
ENDBRANCH  29  33
ENDBRANCH   1  29
TORSDOF 3
