REMARK  Name = ZINC31677038
REMARK  7 active torsions:
REMARK  status: ('A' for Active; 'I' for Inactive)
REMARK    1  A    between atoms: C_1  and  C_2
REMARK    2  A    between atoms: N_4  and  C_5
REMARK    3  A    between atoms: C_10  and  O_11
REMARK    4  A    between atoms: O_11  and  C_12
REMARK    5  A    between atoms: C_12  and  C_13
REMARK    6  A    between atoms: N_15  and  C_16
REMARK    7  A    between atoms: C_17  and  C_24
REMARK                            x       y       z     vdW  Elec       q    Type
REMARK                         _______ _______ _______ _____ _____    ______ ____
ROOT
ATOM      1  C   UNL     1      -1.056  -2.150  -0.003  0.00  0.00    +0.255 C 
ATOM      2  O   UNL     1       0.069  -2.602  -0.007  0.00  0.00    -0.272 OA
ATOM      3  N   UNL     1      -2.117  -2.981   0.001  0.00  0.00    -0.277 N 
ATOM      4  H   UNL     1      -3.138  -2.571   0.005  0.00  0.00    +0.155 HD
ENDROOT
BRANCH   3   5
ATOM      5  C   UNL     1      -1.921  -4.354  -0.001  0.00  0.00    +0.084 A 
ATOM      6  C   UNL     1      -2.873  -5.359   0.007  0.00  0.00    +0.068 A 
ATOM      7  C   UNL     1      -2.398  -6.742  -0.001  0.00  0.00    -0.023 A 
ATOM      8  C   UNL     1      -1.061  -6.887  -0.006  0.00  0.00    -0.004 A 
ATOM      9  S   UNL     1      -0.427  -5.228  -0.007  0.00  0.00    -0.077 S 
ATOM     10  C   UNL     1      -0.650  -8.334  -0.012  0.00  0.00    +0.043 C 
ATOM     11  C   UNL     1      -1.921  -9.098  -0.446  0.00  0.00    +0.010 C 
ATOM     12  C   UNL     1      -3.036  -8.132   0.002  0.00  0.00    +0.037 C 
BRANCH   6  13
ATOM     13  C   UNL     1      -4.306  -5.048   0.020  0.00  0.00    +0.244 C 
ATOM     14  O   UNL     1      -4.910  -4.919  -1.029  0.00  0.00    -0.270 OA
ATOM     15  N   UNL     1      -4.954  -4.904   1.193  0.00  0.00    -0.325 N 
ATOM     16  H   UNL     1      -6.029  -4.671   1.203  0.00  0.00    +0.145 HD
ATOM     17  H   UNL     1      -4.408  -5.020   2.141  0.00  0.00    +0.145 HD
ENDBRANCH   6  13
ENDBRANCH   3   5
BRANCH   1  18
ATOM     18  C   UNL     1      -1.269  -0.658  -0.001  0.00  0.00    +0.325 C 
BRANCH  18  19
ATOM     19  O   UNL     1      -0.003   0.004  -0.005  0.00  0.00    -0.481 OA
BRANCH  19  25
ATOM     20  C   UNL     1       1.182   2.074  -0.008  0.00  0.00    +0.076 A 
ATOM     21  C   UNL     1       1.161   3.461  -0.008  0.00  0.00    +0.027 A 
ATOM     22  C   UNL     1      -0.046   4.134  -0.003  0.00  0.00    +0.002 A 
ATOM     23  C   UNL     1      -1.235   3.428   0.001  0.00  0.00    +0.004 A 
ATOM     24  C   UNL     1      -1.222   2.046  -0.005  0.00  0.00    +0.047 A 
ATOM     25  C   UNL     1      -0.017   1.364  -0.004  0.00  0.00    +0.142 A 
BRANCH  20  29
ATOM     26  C   UNL     1       4.849   1.300   0.354  0.00  0.00    +0.109 C 
ATOM     27  C   UNL     1       3.512   1.985   0.472  0.00  0.00    +0.214 C 
ATOM     28  O   UNL     1       3.432   3.072   1.004  0.00  0.00    -0.276 OA
ATOM     29  N   UNL     1       2.404   1.390  -0.013  0.00  0.00    -0.283 N 
ATOM     30  H   UNL     1       2.460   0.367  -0.414  0.00  0.00    +0.155 HD
ENDBRANCH  20  29
ENDBRANCH  19  25
ENDBRANCH  18  19
ENDBRANCH   1  18
TORSDOF 6
