REMARK  Name = ZINC13064885
REMARK  13 active torsions:
REMARK  status: ('A' for Active; 'I' for Inactive)
REMARK    1  A    between atoms: C_1  and  C_2
REMARK    2  A    between atoms: C_2  and  C_3
REMARK    3  A    between atoms: C_3  and  C_5
REMARK    4  A    between atoms: C_3  and  N_72
REMARK    5  A    between atoms: N_9  and  C_10
REMARK    6  A    between atoms: C_10  and  C_11
REMARK    7  A    between atoms: C_17  and  C_18
REMARK    8  A    between atoms: C_17  and  N_72
REMARK    9  A    between atoms: C_18  and  C_19
REMARK   10  A    between atoms: C_25  and  C_26
REMARK   11  A    between atoms: C_25  and  N_72
REMARK   12  A    between atoms: C_29  and  C_39
REMARK   13  A    between atoms: C_31  and  C_38
REMARK                            x       y       z     vdW  Elec       q    Type
REMARK                         _______ _______ _______ _____ _____    ______ ____
ROOT
ATOM      1  N   UNL     1       3.849   0.680  -2.977  0.00  0.00    +0.389 N 
ATOM      2  H   UNL     1       4.198   0.605  -3.939  0.00  0.00    -0.080 HD
ENDROOT
BRANCH   1   3
ATOM      3  C   UNL     1       4.139   2.036  -2.465  0.00  0.00    +0.003 C 
BRANCH   3   4
ATOM      4  C   UNL     1       3.343   3.041  -3.256  0.00  0.00    +0.138 A 
ATOM      5  N   UNL     1       3.183   3.063  -4.557  0.00  0.00    -0.115 NA
ATOM      6  N   UNL     1       2.443   4.076  -4.850  0.00  0.00    -0.023 NA
ATOM      7  N   UNL     1       2.123   4.699  -3.769  0.00  0.00    -0.044 NA
ATOM      8  N   UNL     1       2.656   4.089  -2.765  0.00  0.00    -0.226 N 
BRANCH   8   9
ATOM      9  C   UNL     1       2.541   4.470  -1.355  0.00  0.00    +0.182 C 
BRANCH   9  10
ATOM     10  C   UNL     1       1.342   3.789  -0.747  0.00  0.00    -0.026 A 
ATOM     11  C   UNL     1       1.476   2.545  -0.161  0.00  0.00    +0.005 A 
ATOM     12  C   UNL     1       0.376   1.920   0.397  0.00  0.00    +0.000 A 
ATOM     13  C   UNL     1      -0.860   2.538   0.363  0.00  0.00    +0.000 A 
ATOM     14  C   UNL     1      -0.994   3.785  -0.219  0.00  0.00    +0.000 A 
ATOM     15  C   UNL     1       0.107   4.410  -0.776  0.00  0.00    +0.005 A 
ENDBRANCH   9  10
ENDBRANCH   8   9
ENDBRANCH   3   4
BRANCH   3  17
ATOM     16  C   UNL     1       5.973   3.667  -1.996  0.00  0.00    +0.002 C 
ATOM     17  C   UNL     1       5.633   2.319  -2.636  0.00  0.00    -0.011 C 
ENDBRANCH   3  17
ENDBRANCH   1   3
BRANCH   1  18
ATOM     18  C   UNL     1       2.390   0.441  -2.974  0.00  0.00    -0.073 C 
BRANCH  18  19
ATOM     19  C   UNL     1       2.091  -0.777  -3.850  0.00  0.00    +0.016 C 
BRANCH  19  20
ATOM     20  C   UNL     1       0.599  -0.942  -3.990  0.00  0.00    -0.049 A 
ATOM     21  C   UNL     1      -0.113  -1.633  -3.027  0.00  0.00    +0.003 A 
ATOM     22  C   UNL     1      -1.482  -1.780  -3.152  0.00  0.00    +0.000 A 
ATOM     23  C   UNL     1      -2.137  -1.243  -4.245  0.00  0.00    +0.000 A 
ATOM     24  C   UNL     1      -1.425  -0.557  -5.210  0.00  0.00    +0.000 A 
ATOM     25  C   UNL     1      -0.056  -0.406  -5.082  0.00  0.00    +0.003 A 
ENDBRANCH  19  20
ENDBRANCH  18  19
ENDBRANCH   1  18
BRANCH   1  26
ATOM     26  C   UNL     1       4.528  -0.332  -2.140  0.00  0.00    -0.037 C 
BRANCH  26  27
ATOM     27  C   UNL     1       3.999  -0.293  -0.729  0.00  0.00    +0.001 A 
ATOM     28  C   UNL     1       2.999  -1.130  -0.359  0.00  0.00    +0.017 A 
ATOM     29  C   UNL     1       2.507  -1.067   1.018  0.00  0.00    +0.002 A 
ATOM     30  C   UNL     1       1.478  -1.906   1.459  0.00  0.00    -0.041 A 
ATOM     31  C   UNL     1       1.042  -1.822   2.751  0.00  0.00    +0.007 A 
ATOM     32  C   UNL     1       1.612  -0.912   3.631  0.00  0.00    -0.048 A 
ATOM     33  C   UNL     1       2.627  -0.076   3.219  0.00  0.00    +0.029 A 
ATOM     34  C   UNL     1       3.087  -0.143   1.908  0.00  0.00    +0.050 A 
ATOM     35  N   UNL     1       4.102   0.681   1.469  0.00  0.00    -0.322 N 
ATOM     36  H   UNL     1       4.501   1.317   2.083  0.00  0.00    +0.169 HD
ATOM     37  C   UNL     1       4.550   0.612   0.203  0.00  0.00    +0.251 A 
ATOM     38  O   UNL     1       5.452   1.352  -0.149  0.00  0.00    -0.268 OA
ATOM     39  C   UNL     1       1.115  -0.838   5.052  0.00  0.00    +0.044 C 
ATOM     40  C   UNL     1       0.852  -2.897   0.512  0.00  0.00    +0.044 C 
ENDBRANCH  26  27
ENDBRANCH   1  26
TORSDOF 10
