REMARK  Name = ZINC22358764
REMARK  8 active torsions:
REMARK  status: ('A' for Active; 'I' for Inactive)
REMARK    1  A    between atoms: C_1  and  C_2
REMARK    2  A    between atoms: C_2  and  C_3
REMARK    3  A    between atoms: C_2  and  C_4
REMARK    4  A    between atoms: C_7  and  S_10
REMARK    5  A    between atoms: S_10  and  N_13
REMARK    6  A    between atoms: N_13  and  C_14
REMARK    7  A    between atoms: C_18  and  S_20
REMARK    8  A    between atoms: S_20  and  N_23
REMARK                            x       y       z     vdW  Elec       q    Type
REMARK                         _______ _______ _______ _____ _____    ______ ____
ROOT
ATOM      1  C   UNL     1       3.703   0.546  -2.850  0.00  0.00    +0.050 A 
ATOM      2  C   UNL     1       3.452   1.356  -3.951  0.00  0.00    +0.024 A 
ATOM      3  C   UNL     1       2.579   2.420  -3.839  0.00  0.00    +0.004 A 
ATOM      4  C   UNL     1       1.955   2.680  -2.632  0.00  0.00    +0.029 A 
ATOM      5  C   UNL     1       2.203   1.877  -1.534  0.00  0.00    +0.114 A 
ATOM      6  C   UNL     1       3.079   0.814  -1.639  0.00  0.00    +0.053 A 
ENDROOT
BRANCH   5   7
ATOM      7  S   UNL     1       1.406   2.213   0.001  0.00  0.00    +0.100 S 
ATOM      8  O   UNL     1       1.058   3.591  -0.016  0.00  0.00    -0.146 OA
ATOM      9  O   UNL     1       2.223   1.646   1.015  0.00  0.00    -0.146 OA
BRANCH   7  10
ATOM     10  N   UNL     1      -0.017   1.366   0.010  0.00  0.00    -0.118 NA
ATOM     11  C   UNL     1       0.002  -0.004   0.002  0.00  0.00    +0.117 C 
ATOM     12  N   UNL     1       1.073  -0.719  -0.012  0.00  0.00    -0.331 N 
ATOM     13  C   UNL     1       0.783  -2.157  -0.014  0.00  0.00    +0.103 C 
ATOM     14  C   UNL     1      -0.706  -2.269  -0.419  0.00  0.00    +0.026 C 
ATOM     15  C   UNL     1      -1.233  -0.878   0.015  0.00  0.00    +0.074 C 
ATOM     16  H   UNL     1       2.115  -0.367  -0.021  0.00  0.00    +0.147 HD
ENDBRANCH   7  10
ENDBRANCH   5   7
BRANCH   1  17
ATOM     17  N   UNL     1       4.585  -0.531  -2.961  0.00  0.00    -0.216 N 
ATOM     18  H   UNL     1       4.315  -1.509  -2.535  0.00  0.00    +0.174 HD
BRANCH  17  19
ATOM     19  S   UNL     1       6.037  -0.337  -3.733  0.00  0.00    +0.072 S 
ATOM     20  O   UNL     1       6.708  -1.587  -3.656  0.00  0.00    -0.150 OA
ATOM     21  O   UNL     1       5.756   0.303  -4.970  0.00  0.00    -0.150 OA
BRANCH  19  25
ATOM     22  C   UNL     1       8.473   2.591  -1.286  0.00  0.00    -0.045 A 
ATOM     23  C   UNL     1       8.558   1.236  -1.028  0.00  0.00    +0.006 A 
ATOM     24  C   UNL     1       7.814   0.342  -1.775  0.00  0.00    +0.029 A 
ATOM     25  C   UNL     1       6.985   0.803  -2.780  0.00  0.00    +0.109 A 
ATOM     26  C   UNL     1       6.904   2.158  -3.042  0.00  0.00    +0.029 A 
ATOM     27  C   UNL     1       7.644   3.053  -2.292  0.00  0.00    +0.006 A 
BRANCH  22  29
ATOM     28  C   UNL     1      10.221   4.347  -1.394  0.00  0.00    +0.012 C 
ATOM     29  C   UNL     1       9.283   3.566  -0.471  0.00  0.00    +0.013 C 
ATOM     30  C   UNL     1       8.342   4.540   0.242  0.00  0.00    +0.012 C 
ENDBRANCH  22  29
ENDBRANCH  19  25
ENDBRANCH  17  19
ENDBRANCH   1  17
TORSDOF 6
