REMARK  Name = ZINC25156081
REMARK  10 active torsions:
REMARK  status: ('A' for Active; 'I' for Inactive)
REMARK    1  A    between atoms: C_1  and  C_2
REMARK    2  A    between atoms: C_8  and  C_27
REMARK    3  A    between atoms: C_12  and  C_13
REMARK    4  A    between atoms: N_15  and  C_16
REMARK    5  A    between atoms: C_16  and  C_17
REMARK    6  A    between atoms: C_17  and  C_19
REMARK    7  A    between atoms: C_17  and  N_24
REMARK    8  A    between atoms: N_24  and  C_25
REMARK    9  A    between atoms: N_24  and  C_26
REMARK   10  A    between atoms: C_27  and  C_28
REMARK                            x       y       z     vdW  Elec       q    Type
REMARK                         _______ _______ _______ _____ _____    ______ ____
ROOT
ATOM      1  C   UNL     1      -0.182   1.194  -0.110  0.00  0.00    +0.046 C 
ATOM      2  C   UNL     1       0.011  -0.299  -0.049  0.00  0.00    -0.017 A 
ATOM      3  C   UNL     1       0.141  -1.037  -1.228  0.00  0.00    +0.076 A 
ATOM      4  C   UNL     1       0.119  -0.568  -2.632  0.00  0.00    +0.260 A 
ATOM      5  O   UNL     1      -0.028   0.613  -2.895  0.00  0.00    -0.267 OA
ATOM      6  N   UNL     1       0.266  -1.481  -3.612  0.00  0.00    -0.310 N 
ATOM      7  H   UNL     1       0.255  -1.190  -4.537  0.00  0.00    +0.170 HD
ATOM      8  C   UNL     1       0.431  -2.797  -3.332  0.00  0.00    +0.115 A 
ATOM      9  N   UNL     1       0.455  -3.243  -2.105  0.00  0.00    -0.226 NA
ATOM     10  C   UNL     1       0.319  -2.430  -1.066  0.00  0.00    +0.116 A 
ATOM     11  S   UNL     1       0.296  -2.641   0.696  0.00  0.00    -0.064 S 
ATOM     12  C   UNL     1       0.066  -0.933   1.158  0.00  0.00    +0.079 A 
ENDROOT
BRANCH  12  13
ATOM     13  C   UNL     1      -0.041  -0.354   2.501  0.00  0.00    +0.251 C 
ATOM     14  O   UNL     1      -0.200   0.845   2.636  0.00  0.00    -0.270 OA
ATOM     15  N   UNL     1       0.038  -1.150   3.586  0.00  0.00    -0.312 N 
ATOM     16  H   UNL     1       0.165  -2.106   3.478  0.00  0.00    +0.149 HD
BRANCH  15  17
ATOM     17  C   UNL     1      -0.069  -0.572   4.928  0.00  0.00    +0.094 C 
BRANCH  17  18
ATOM     18  C   UNL     1      -0.062  -1.694   5.968  0.00  0.00    -0.014 C 
BRANCH  18  19
ATOM     19  C   UNL     1       1.265  -2.405   5.932  0.00  0.00    -0.022 A 
ATOM     20  C   UNL     1       1.590  -3.576   5.332  0.00  0.00    +0.009 A 
ATOM     21  C   UNL     1       2.887  -4.043   5.430  0.00  0.00    +0.008 A 
ATOM     22  C   UNL     1       3.796  -3.316   6.125  0.00  0.00    +0.045 A 
ATOM     23  S   UNL     1       2.821  -1.921   6.661  0.00  0.00    -0.103 S 
ENDBRANCH  18  19
BRANCH  18  24
ATOM     24  N   UNL     1      -0.275  -1.123   7.305  0.00  0.00    +0.382 N 
ATOM     25  C   UNL     1      -1.585  -0.458   7.351  0.00  0.00    -0.096 C 
ATOM     26  C   UNL     1      -0.236  -2.196   8.308  0.00  0.00    -0.096 C 
ATOM     27  H   UNL     1       0.450  -0.450   7.503  0.00  0.00    -0.082 HD
ENDBRANCH  18  24
ENDBRANCH  17  18
ENDBRANCH  15  17
ENDBRANCH  12  13
BRANCH   8  28
ATOM     28  C   UNL     1       0.591  -3.773  -4.469  0.00  0.00    +0.109 C 
BRANCH  28  29
ATOM     29  C   UNL     1       0.759  -5.165  -3.916  0.00  0.00    -0.040 A 
ATOM     30  C   UNL     1       2.021  -5.645  -3.624  0.00  0.00    +0.004 A 
ATOM     31  C   UNL     1       2.175  -6.922  -3.117  0.00  0.00    +0.000 A 
ATOM     32  C   UNL     1       1.065  -7.718  -2.902  0.00  0.00    +0.000 A 
ATOM     33  C   UNL     1      -0.197  -7.237  -3.193  0.00  0.00    +0.000 A 
ATOM     34  C   UNL     1      -0.351  -5.959  -3.696  0.00  0.00    +0.004 A 
ENDBRANCH  28  29
ENDBRANCH   8  28
TORSDOF 7
