REMARK  Name = ZINC64636797
REMARK  5 active torsions:
REMARK  status: ('A' for Active; 'I' for Inactive)
REMARK    1  A    between atoms: C_1  and  C_2
REMARK    2  A    between atoms: N_11  and  C_14
REMARK    3  A    between atoms: C_14  and  C_15
REMARK    4  A    between atoms: C_14  and  C_16
REMARK    5  A    between atoms: N_21  and  C_22
REMARK                            x       y       z     vdW  Elec       q    Type
REMARK                         _______ _______ _______ _____ _____    ______ ____
ROOT
ATOM      1  C   UNL     1      -3.286  -5.487   3.022  0.00  0.00    +0.017 C 
ATOM      2  C   UNL     1      -3.149  -6.827   2.296  0.00  0.00    -0.004 C 
ENDROOT
BRANCH   1  13
ATOM      3  C   UNL     1       1.217   1.103   0.810  0.00  0.00    +0.066 C 
ATOM      4  C   UNL     1       1.082  -0.398   0.783  0.00  0.00    +0.047 A 
ATOM      5  C   UNL     1       1.239  -1.102  -0.364  0.00  0.00    +0.071 A 
ATOM      6  S   UNL     1       0.969  -2.765   0.227  0.00  0.00    -0.060 S 
ATOM      7  C   UNL     1       0.688  -2.395   1.844  0.00  0.00    +0.161 A 
ATOM      8  N   UNL     1       0.810  -1.085   1.878  0.00  0.00    -0.230 NA
ATOM      9  N   UNL     1       0.404  -3.261   2.889  0.00  0.00    -0.311 N 
ATOM     10  C   UNL     1       0.187  -2.702   4.238  0.00  0.00    +0.105 C 
ATOM     11  C   UNL     1      -0.989  -3.401   4.945  0.00  0.00    +0.000 C 
ATOM     12  C   UNL     1      -2.099  -3.649   3.948  0.00  0.00    -0.076 C 
ATOM     13  N   UNL     1      -1.953  -4.989   3.386  0.00  0.00    +0.388 N 
ATOM     14  C   UNL     1      -1.120  -5.071   2.248  0.00  0.00    -0.059 C 
ATOM     15  C   UNL     1       0.325  -4.682   2.616  0.00  0.00    +0.088 C 
ATOM     16  H   UNL     1      -1.576  -5.594   4.100  0.00  0.00    -0.081 HD
ENDBRANCH   1  13
BRANCH   1  17
ATOM     17  C   UNL     1      -4.111  -5.674   4.269  0.00  0.00    +0.207 C 
ATOM     18  O   UNL     1      -3.636  -5.417   5.354  0.00  0.00    -0.277 OA
ATOM     19  N   UNL     1      -5.378  -6.125   4.178  0.00  0.00    -0.242 N 
ATOM     20  C   UNL     1      -6.115  -6.292   5.293  0.00  0.00    +0.306 C 
ATOM     21  O   UNL     1      -5.639  -6.035   6.381  0.00  0.00    -0.252 OA
ATOM     22  N   UNL     1      -7.382  -6.744   5.202  0.00  0.00    -0.296 N 
ATOM     23  H   UNL     1      -5.758  -6.331   3.310  0.00  0.00    +0.159 HD
ATOM     24  H   UNL     1      -7.762  -6.949   4.334  0.00  0.00    +0.151 HD
BRANCH  22  25
ATOM     25  C   UNL     1      -8.184  -6.925   6.415  0.00  0.00    +0.074 C 
ATOM     26  C   UNL     1      -7.892  -8.300   7.019  0.00  0.00    +0.022 C 
ATOM     27  C   UNL     1      -8.730  -8.489   8.285  0.00  0.00    +0.002 C 
ATOM     28  C   UNL     1     -10.216  -8.391   7.933  0.00  0.00    +0.000 C 
ATOM     29  C   UNL     1     -10.507  -7.016   7.329  0.00  0.00    +0.002 C 
ATOM     30  C   UNL     1      -9.670  -6.827   6.063  0.00  0.00    +0.022 C 
ENDBRANCH  22  25
ENDBRANCH   1  17
TORSDOF 3
