REMARK  Name = ZINC42342859
REMARK  3 active torsions:
REMARK  status: ('A' for Active; 'I' for Inactive)
REMARK    1  A    between atoms: C_5  and  S_6
REMARK    2  A    between atoms: S_6  and  N_9
REMARK    3  A    between atoms: N_9  and  C_10
REMARK                            x       y       z     vdW  Elec       q    Type
REMARK                         _______ _______ _______ _____ _____    ______ ____
ROOT
ATOM      1  N   UNL     1      -1.744  -1.437  -1.570  0.00  0.00    -0.182 NA
ATOM      2  H   UNL     1      -2.606  -1.159  -1.918  0.00  0.00    +0.149 HD
ENDROOT
BRANCH   1   3
ATOM      3  C   UNL     1      -0.789  -2.127  -2.442  0.00  0.00    +0.110 C 
ATOM      4  C   UNL     1      -0.906  -1.579  -3.870  0.00  0.00    +0.025 C 
ATOM      5  C   UNL     1      -0.110  -2.474  -4.824  0.00  0.00    +0.010 C 
ATOM      6  C   UNL     1      -0.816  -3.827  -4.967  0.00  0.00    +0.075 C 
ATOM      7  C   UNL     1      -1.116  -4.357  -3.586  0.00  0.00    +0.110 A 
ATOM      8  C   UNL     1      -1.101  -3.600  -2.470  0.00  0.00    +0.012 A 
ATOM      9  C   UNL     1      -1.424  -4.443  -1.391  0.00  0.00    +0.046 A 
ATOM     10  C   UNL     1      -1.620  -5.672  -1.907  0.00  0.00    +0.195 A 
ATOM     11  O   UNL     1      -1.433  -5.610  -3.240  0.00  0.00    -0.467 OA
ENDBRANCH   1   3
BRANCH   1  12
ATOM     12  S   UNL     1      -1.352  -1.132   0.010  0.00  0.00    +0.065 S 
ATOM     13  O   UNL     1      -0.861  -2.352   0.549  0.00  0.00    -0.153 OA
ATOM     14  O   UNL     1      -2.455  -0.438   0.576  0.00  0.00    -0.153 OA
BRANCH  12  19
ATOM     15  C   UNL     1      -0.016   1.351   0.009  0.00  0.00    +0.037 A 
ATOM     16  C   UNL     1       1.183   2.038   0.002  0.00  0.00    +0.025 A 
ATOM     17  C   UNL     1       2.343   1.335  -0.013  0.00  0.00    +0.057 A 
ATOM     18  S   UNL     1       1.753  -0.350  -0.017  0.00  0.00    -0.062 S 
ATOM     19  C   UNL     1       0.002  -0.004   0.002  0.00  0.00    +0.143 A 
ATOM     20 BR   UNL     1       4.123   1.974  -0.027  0.00  0.00    -0.043 Br
ENDBRANCH  12  19
ENDBRANCH   1  12
TORSDOF 3
