REMARK  Name = ZINC02136565
REMARK  4 active torsions:
REMARK  status: ('A' for Active; 'I' for Inactive)
REMARK    1  A    between atoms: C_12  and  C_14
REMARK    2  A    between atoms: C_14  and  C_15
REMARK    3  A    between atoms: C_18  and  O_21
REMARK    4  A    between atoms: N_24  and  C_27
REMARK                            x       y       z     vdW  Elec       q    Type
REMARK                         _______ _______ _______ _____ _____    ______ ____
ROOT
ATOM      1  C   UNL     1      -2.067   5.860   2.845  0.00  0.00    +0.000 A 
ATOM      2  C   UNL     1      -1.475   7.099   3.014  0.00  0.00    +0.002 A 
ATOM      3  C   UNL     1      -0.157   7.295   2.658  0.00  0.00    +0.023 A 
ATOM      4  C   UNL     1       0.589   6.246   2.127  0.00  0.00    +0.036 A 
ATOM      5  C   UNL     1      -0.016   5.003   1.963  0.00  0.00    -0.028 A 
ATOM      6  C   UNL     1      -1.333   4.813   2.318  0.00  0.00    +0.004 A 
ATOM      7  C   UNL     1       1.039   4.107   1.380  0.00  0.00    +0.050 C 
ATOM      8  C   UNL     1       0.608   3.532   0.026  0.00  0.00    +0.088 C 
ATOM      9  C   UNL     1       1.207   2.098   0.002  0.00  0.00    +0.073 C 
ATOM     10  C   UNL     1       1.951   1.956   1.347  0.00  0.00    -0.053 C 
ATOM     11  C   UNL     1      -0.014   1.208   0.009  0.00  0.00    +0.224 C 
ATOM     12  O   UNL     1       0.002  -0.004   0.002  0.00  0.00    -0.275 OA
ATOM     13  N   UNL     1      -1.117   1.966   0.017  0.00  0.00    -0.239 N 
ATOM     14  C   UNL     1      -0.884   3.284   0.031  0.00  0.00    +0.225 C 
ATOM     15  O   UNL     1      -1.737   4.145   0.042  0.00  0.00    -0.275 OA
ATOM     16  C   UNL     1       2.260   4.976   1.244  0.00  0.00    +0.211 C 
ATOM     17  O   UNL     1       3.342   4.641   0.811  0.00  0.00    -0.277 OA
ATOM     18  N   UNL     1       1.917   6.197   1.698  0.00  0.00    -0.286 N 
ATOM     19  H   UNL     1       2.523   6.954   1.724  0.00  0.00    +0.155 HD
ATOM     20  N   UNL     1       1.309   2.947   2.213  0.00  0.00    +0.394 N 
ATOM     21  H   UNL     1       0.432   2.572   2.593  0.00  0.00    -0.083 HD
ATOM     22  H   UNL     1       1.935   3.203   2.985  0.00  0.00    -0.083 HD
ENDROOT
BRANCH  13  23
ATOM     23  C   UNL     1      -2.468   1.400   0.016  0.00  0.00    +0.084 C 
ATOM     24  C   UNL     1      -2.655   0.476   1.237  0.00  0.00    +0.023 C 
ATOM     25  C   UNL     1      -3.528  -0.687   0.702  0.00  0.00    +0.002 C 
ATOM     26  C   UNL     1      -2.975  -0.900  -0.729  0.00  0.00    +0.002 C 
ATOM     27  C   UNL     1      -2.671   0.526  -1.234  0.00  0.00    +0.023 C 
ENDBRANCH  13  23
BRANCH  10  28
ATOM     28  C   UNL     1       1.783   0.539   1.900  0.00  0.00    +0.020 C 
BRANCH  28  29
ATOM     29  C   UNL     1       2.615   0.386   3.147  0.00  0.00    -0.049 A 
ATOM     30  C   UNL     1       3.921  -0.059   3.055  0.00  0.00    +0.007 A 
ATOM     31  C   UNL     1       4.688  -0.195   4.196  0.00  0.00    +0.045 A 
ATOM     32  C   UNL     1       4.143   0.104   5.436  0.00  0.00    +0.117 A 
ATOM     33  C   UNL     1       2.830   0.544   5.527  0.00  0.00    +0.045 A 
ATOM     34  C   UNL     1       2.070   0.684   4.382  0.00  0.00    +0.007 A 
BRANCH  32  35
ATOM     35  O   UNL     1       4.893  -0.034   6.561  0.00  0.00    -0.507 OA
ATOM     36  H   UNL     1       4.836  -0.910   6.967  0.00  0.00    +0.292 HD
ENDBRANCH  32  35
ENDBRANCH  28  29
ENDBRANCH  10  28
TORSDOF 4
