REMARK  Name = ZINC36272522
REMARK  5 active torsions:
REMARK  status: ('A' for Active; 'I' for Inactive)
REMARK    1  A    between atoms: C_1  and  C_2
REMARK    2  A    between atoms: N_8  and  C_9
REMARK    3  A    between atoms: C_9  and  C_10
REMARK    4  A    between atoms: C_11  and  C_20
REMARK    5  A    between atoms: C_16  and  N_19
REMARK                            x       y       z     vdW  Elec       q    Type
REMARK                         _______ _______ _______ _____ _____    ______ ____
ROOT
ATOM      1  C   UNL     1       1.032  -0.504   3.488  0.00  0.00    +0.035 A 
ATOM      2  C   UNL     1       0.642  -1.429   4.410  0.00  0.00    +0.091 A 
ATOM      3  N   UNL     1       1.402  -1.278   5.506  0.00  0.00    -0.228 NA
ATOM      4  C   UNL     1       2.259  -0.286   5.306  0.00  0.00    +0.138 A 
ATOM      5  N   UNL     1       2.053   0.213   4.046  0.00  0.00    -0.303 N 
ATOM      6  C   UNL     1       2.814   1.248   3.577  0.00  0.00    +0.115 A 
ATOM      7  C   UNL     1       3.785   1.794   4.350  0.00  0.00    +0.041 A 
ATOM      8  C   UNL     1       4.020   1.297   5.647  0.00  0.00    +0.028 A 
ATOM      9  C   UNL     1       3.262   0.274   6.124  0.00  0.00    +0.048 A 
ENDROOT
BRANCH   2  10
ATOM     10  C   UNL     1      -0.438  -2.432   4.233  0.00  0.00    +0.004 A 
ATOM     11  C   UNL     1      -0.244  -3.747   4.652  0.00  0.00    +0.014 A 
ATOM     12  C   UNL     1      -1.247  -4.681   4.489  0.00  0.00    +0.048 A 
ATOM     13  C   UNL     1      -2.450  -4.314   3.908  0.00  0.00    +0.142 A 
ATOM     14  C   UNL     1      -2.648  -2.999   3.486  0.00  0.00    +0.076 A 
ATOM     15  C   UNL     1      -1.648  -2.058   3.653  0.00  0.00    +0.037 A 
ATOM     16  N   UNL     1      -3.872  -2.645   2.898  0.00  0.00    -0.280 N 
ATOM     17  C   UNL     1      -4.929  -3.475   3.036  0.00  0.00    +0.255 C 
ATOM     18  O   UNL     1      -5.988  -3.204   2.511  0.00  0.00    -0.272 OA
ATOM     19  C   UNL     1      -4.786  -4.739   3.845  0.00  0.00    +0.325 C 
ATOM     20  O   UNL     1      -3.445  -5.226   3.743  0.00  0.00    -0.481 OA
ATOM     21  H   UNL     1      -3.958  -1.817   2.401  0.00  0.00    +0.155 HD
ENDBRANCH   2  10
BRANCH   7  22
ATOM     22  N   UNL     1       4.557   2.854   3.856  0.00  0.00    -0.357 N 
ATOM     23  H   UNL     1       4.396   3.197   2.963  0.00  0.00    +0.142 HD
ATOM     24  H   UNL     1       5.252   3.245   4.408  0.00  0.00    +0.142 HD
ENDBRANCH   7  22
BRANCH   1  25
ATOM     25  C   UNL     1       0.451  -0.313   2.111  0.00  0.00    -0.021 C 
BRANCH  25  32
ATOM     26  C   UNL     1       0.780   0.771  -0.458  0.00  0.00    -0.013 C 
ATOM     27  C   UNL     1       0.781  -0.741  -0.224  0.00  0.00    -0.071 C 
ATOM     28  C   UNL     1       1.688  -1.415  -1.256  0.00  0.00    -0.016 C 
ATOM     29  C   UNL     1       1.685  -2.928  -1.018  0.00  0.00    -0.003 C 
ATOM     30  C   UNL     1       2.133  -3.209   0.419  0.00  0.00    -0.019 C 
ATOM     31  C   UNL     1       1.210  -2.468   1.389  0.00  0.00    -0.078 C 
ATOM     32  N   UNL     1       1.277  -1.026   1.128  0.00  0.00    +0.385 N 
ATOM     33  H   UNL     1       2.234  -0.714   1.206  0.00  0.00    -0.081 HD
ENDBRANCH  25  32
ENDBRANCH   1  25
TORSDOF 4
