REMARK  Name = ZINC06575789
REMARK  1 active torsions:
REMARK  status: ('A' for Active; 'I' for Inactive)
REMARK    1  A    between atoms: C_4  and  P_7
REMARK                            x       y       z     vdW  Elec       q    Type
REMARK                         _______ _______ _______ _____ _____    ______ ____
ROOT
ATOM      1  P   UNL     1      -3.021   1.134  -0.107  0.00  0.00    +0.177 P 
ATOM      2  O   UNL     1      -3.501   2.534  -0.139  0.00  0.00    -0.299 OA
ATOM      3  C   UNL     1      -2.057   0.844   1.422  0.00  0.00    +0.089 C 
ATOM      4  C   UNL     1      -0.714   1.572   1.275  0.00  0.00    +0.010 C 
ATOM      5  C   UNL     1      -0.013   1.086   0.008  0.00  0.00    +0.016 C 
ATOM      6  C   UNL     1      -0.737   1.585  -1.238  0.00  0.00    +0.088 C 
ATOM      7  N   UNL     1      -1.998   0.848  -1.421  0.00  0.00    -0.263 NA
ATOM      8  H   UNL     1      -1.826  -0.139  -1.538  0.00  0.00    +0.130 HD
ENDROOT
BRANCH   1  12
ATOM      9  C   UNL     1      -6.586  -1.735  -0.263  0.00  0.00    +0.000 A 
ATOM     10  C   UNL     1      -5.979  -1.323  -1.434  0.00  0.00    +0.001 A 
ATOM     11  C   UNL     1      -4.902  -0.457  -1.387  0.00  0.00    +0.012 A 
ATOM     12  C   UNL     1      -4.434  -0.002  -0.169  0.00  0.00    +0.026 A 
ATOM     13  C   UNL     1      -5.038  -0.417   1.003  0.00  0.00    +0.012 A 
ATOM     14  C   UNL     1      -6.118  -1.280   0.956  0.00  0.00    +0.001 A 
ENDBRANCH   1  12
TORSDOF 1
