REMARK  Name = ZINC66430567
REMARK  7 active torsions:
REMARK  status: ('A' for Active; 'I' for Inactive)
REMARK    1  A    between atoms: C_1  and  C_2
REMARK    2  A    between atoms: C_5  and  C_7
REMARK    3  A    between atoms: C_9  and  C_27
REMARK    4  A    between atoms: C_10  and  C_12
REMARK    5  A    between atoms: N_14  and  C_15
REMARK    6  A    between atoms: C_15  and  C_16
REMARK    7  A    between atoms: C_20  and  C_22
REMARK                            x       y       z     vdW  Elec       q    Type
REMARK                         _______ _______ _______ _____ _____    ______ ____
ROOT
ATOM      1  C   UNL     1       4.871  -5.819  -0.047  0.00  0.00    +0.253 C 
ATOM      2  O   UNL     1       4.801  -7.035  -0.057  0.00  0.00    -0.270 OA
ATOM      3  N   UNL     1       6.075  -5.214  -0.042  0.00  0.00    -0.304 N 
ATOM      4  H   UNL     1       6.131  -4.245  -0.034  0.00  0.00    +0.149 HD
ENDROOT
BRANCH   1   8
ATOM      5  C   UNL     1       1.659  -3.218  -0.024  0.00  0.00    +0.144 A 
ATOM      6  N   UNL     1       1.377  -4.521  -0.035  0.00  0.00    -0.240 NA
ATOM      7  C   UNL     1       2.318  -5.422  -0.043  0.00  0.00    +0.058 A 
ATOM      8  C   UNL     1       3.647  -5.016  -0.040  0.00  0.00    +0.097 A 
ATOM      9  S   UNL     1       3.447  -3.238  -0.032  0.00  0.00    -0.059 S 
ATOM     10  C   UNL     1       1.969  -6.888  -0.055  0.00  0.00    +0.067 C 
BRANCH   5  15
ATOM     11  C   UNL     1      -0.018   1.503   0.010  0.00  0.00    +0.086 C 
ATOM     12  C   UNL     1       0.002  -0.004   0.002  0.00  0.00    +0.103 A 
ATOM     13  C   UNL     1      -1.084  -0.805   0.003  0.00  0.00    +0.045 A 
ATOM     14  C   UNL     1      -0.619  -2.132  -0.007  0.00  0.00    +0.052 A 
ATOM     15  C   UNL     1       0.744  -2.070  -0.013  0.00  0.00    +0.160 A 
ATOM     16  O   UNL     1       1.103  -0.771  -0.013  0.00  0.00    -0.458 OA
ENDBRANCH   5  15
ENDBRANCH   1   8
BRANCH   3  17
ATOM     17  C   UNL     1       7.300  -6.018  -0.049  0.00  0.00    +0.180 C 
BRANCH  17  18
ATOM     18  C   UNL     1       8.499  -5.106  -0.042  0.00  0.00    +0.143 A 
ATOM     19  N   UNL     1       9.187  -4.718   1.047  0.00  0.00    -0.261 N 
ATOM     20  H   UNL     1       9.008  -4.970   1.967  0.00  0.00    +0.190 HD
ATOM     21  N   UNL     1      10.217  -3.879   0.592  0.00  0.00    -0.152 NA
ATOM     22  C   UNL     1      10.096  -3.808  -0.717  0.00  0.00    +0.188 A 
ATOM     23  N   UNL     1       9.053  -4.561  -1.093  0.00  0.00    -0.209 NA
BRANCH  22  24
ATOM     24  C   UNL     1      10.970  -3.031  -1.622  0.00  0.00    +0.058 A 
ATOM     25  C   UNL     1      12.054  -2.252  -1.317  0.00  0.00    +0.019 A 
ATOM     26  C   UNL     1      12.721  -1.616  -2.341  0.00  0.00    +0.008 A 
ATOM     27  C   UNL     1      12.286  -1.779  -3.617  0.00  0.00    +0.046 A 
ATOM     28  S   UNL     1      10.890  -2.870  -3.399  0.00  0.00    -0.093 S 
ENDBRANCH  22  24
ENDBRANCH  17  18
ENDBRANCH   3  17
TORSDOF 5
