REMARK  Name = ZINC35851818
REMARK  3 active torsions:
REMARK  status: ('A' for Active; 'I' for Inactive)
REMARK    1  A    between atoms: C_1  and  C_2
REMARK    2  A    between atoms: C_2  and  C_3
REMARK    3  A    between atoms: N_22  and  C_25
REMARK                            x       y       z     vdW  Elec       q    Type
REMARK                         _______ _______ _______ _____ _____    ______ ____
ROOT
ATOM      1  C   UNL     1       0.731  -0.503   1.223  0.00  0.00    -0.047 A 
ATOM      2  C   UNL     1       2.098  -0.710   1.178  0.00  0.00    +0.005 A 
ATOM      3  C   UNL     1       2.770  -1.167   2.292  0.00  0.00    +0.024 A 
ATOM      4  C   UNL     1       2.077  -1.424   3.473  0.00  0.00    +0.039 A 
ATOM      5  C   UNL     1       0.702  -1.212   3.506  0.00  0.00    +0.004 A 
ATOM      6  C   UNL     1       0.035  -0.750   2.393  0.00  0.00    +0.011 A 
ATOM      7  C   UNL     1       0.265  -1.575   4.897  0.00  0.00    +0.138 C 
ATOM      8  C   UNL     1      -0.802  -2.656   4.905  0.00  0.00    +0.123 C 
ATOM      9  C   UNL     1      -1.273  -2.446   6.395  0.00  0.00    +0.107 C 
ATOM     10  C   UNL     1      -1.412  -0.987   6.539  0.00  0.00    +0.071 C 
ATOM     11  N   UNL     1      -0.395  -0.437   5.570  0.00  0.00    -0.281 NA
ATOM     12  C   UNL     1       0.517   0.468   6.256  0.00  0.00    +0.086 C 
ATOM     13  C   UNL     1      -0.104   0.759   7.640  0.00  0.00    +0.017 C 
ATOM     14  C   UNL     1      -0.942  -0.526   7.939  0.00  0.00    +0.021 C 
ATOM     15  C   UNL     1      -2.010  -3.660   6.652  0.00  0.00    +0.232 C 
ATOM     16  O   UNL     1      -2.994  -3.796   7.346  0.00  0.00    -0.274 OA
ATOM     17  N   UNL     1      -1.349  -4.627   5.934  0.00  0.00    -0.210 N 
ATOM     18  C   UNL     1      -0.450  -4.106   5.025  0.00  0.00    +0.233 C 
ATOM     19  O   UNL     1       0.441  -4.691   4.446  0.00  0.00    -0.274 OA
ATOM     20  C   UNL     1       1.520  -1.996   5.605  0.00  0.00    +0.243 C 
ATOM     21  O   UNL     1       1.613  -2.365   6.757  0.00  0.00    -0.273 OA
ATOM     22  N   UNL     1       2.525  -1.884   4.713  0.00  0.00    -0.283 N 
ATOM     23  H   UNL     1       3.450  -2.097   4.910  0.00  0.00    +0.155 HD
ENDROOT
BRANCH  17  24
ATOM     24  C   UNL     1      -1.570  -6.002   6.097  0.00  0.00    +0.044 A 
ATOM     25  C   UNL     1      -0.855  -6.916   5.336  0.00  0.00    +0.027 A 
ATOM     26  C   UNL     1      -1.074  -8.270   5.498  0.00  0.00    +0.040 A 
ATOM     27  C   UNL     1      -2.007  -8.716   6.419  0.00  0.00    +0.124 A 
ATOM     28  C   UNL     1      -2.721  -7.806   7.179  0.00  0.00    +0.040 A 
ATOM     29  C   UNL     1      -2.501  -6.451   7.024  0.00  0.00    +0.027 A 
ATOM     30  F   UNL     1      -2.221 -10.041   6.576  0.00  0.00    -0.205 F 
ENDBRANCH  17  24
BRANCH   1  32
ATOM     31  C   UNL     1      -0.019   1.526   0.010  0.00  0.00    +0.009 C 
ATOM     32  C   UNL     1       0.002  -0.004   0.002  0.00  0.00    +0.032 C 
ENDBRANCH   1  32
TORSDOF 2
