REMARK  Name = ZINC08742502
REMARK  8 active torsions:
REMARK  status: ('A' for Active; 'I' for Inactive)
REMARK    1  A    between atoms: C_1  and  C_2
REMARK    2  A    between atoms: N_4  and  C_5
REMARK    3  A    between atoms: C_7  and  O_27
REMARK    4  A    between atoms: C_9  and  O_26
REMARK    5  A    between atoms: C_11  and  C_24
REMARK    6  A    between atoms: C_14  and  O_16
REMARK    7  A    between atoms: O_16  and  C_17
REMARK    8  A    between atoms: C_24  and  O_25
REMARK                            x       y       z     vdW  Elec       q    Type
REMARK                         _______ _______ _______ _____ _____    ______ ____
ROOT
ATOM      1  C   UNL     1      -1.049  -2.167   0.251  0.00  0.00    +0.173 C 
ATOM      2  C   UNL     1      -2.403  -2.882   0.199  0.00  0.00    +0.172 C 
ATOM      3  C   UNL     1      -3.066  -2.599  -1.153  0.00  0.00    +0.176 C 
ATOM      4  C   UNL     1      -3.201  -1.086  -1.339  0.00  0.00    +0.179 C 
ATOM      5  O   UNL     1      -1.910  -0.479  -1.249  0.00  0.00    -0.332 OA
ATOM      6  C   UNL     1      -1.262  -0.670   0.011  0.00  0.00    +0.331 C 
ENDROOT
BRANCH   1  10
ATOM      7  C   UNL     1       1.530  -2.496   3.061  0.00  0.00    +0.109 C 
ATOM      8  C   UNL     1       0.900  -2.288   1.708  0.00  0.00    +0.210 C 
ATOM      9  O   UNL     1       1.598  -2.048   0.745  0.00  0.00    -0.276 OA
ATOM     10  N   UNL     1      -0.438  -2.369   1.567  0.00  0.00    -0.304 N 
ATOM     11  H   UNL     1      -0.996  -2.561   2.337  0.00  0.00    +0.149 HD
ENDBRANCH   1  10
BRANCH   3  12
ATOM     12  O   UNL     1      -2.261  -3.141  -2.202  0.00  0.00    -0.387 OA
ATOM     13  H   UNL     1      -2.621  -2.998  -3.088  0.00  0.00    +0.210 HD
ENDBRANCH   3  12
BRANCH   2  14
ATOM     14  O   UNL     1      -2.206  -4.289   0.351  0.00  0.00    -0.387 OA
ATOM     15  H   UNL     1      -3.023  -4.806   0.328  0.00  0.00    +0.210 HD
ENDBRANCH   2  14
BRANCH   6  16
ATOM     16  O   UNL     1       0.002  -0.004   0.002  0.00  0.00    -0.462 OA
BRANCH  16  17
ATOM     17  C   UNL     1      -0.016   1.355   0.009  0.00  0.00    +0.124 A 
ATOM     18  C   UNL     1      -1.226   2.033   0.019  0.00  0.00    +0.047 A 
ATOM     19  C   UNL     1      -1.243   3.414   0.031  0.00  0.00    +0.018 A 
ATOM     20  C   UNL     1      -0.054   4.121   0.023  0.00  0.00    +0.014 A 
ATOM     21  C   UNL     1       1.154   3.447   0.009  0.00  0.00    +0.018 A 
ATOM     22  C   UNL     1       1.175   2.066   0.002  0.00  0.00    +0.047 A 
ATOM     23  I   UNL     1      -0.082   6.216   0.033  0.00  0.00    -0.044 I 
ENDBRANCH  16  17
ENDBRANCH   6  16
BRANCH   4  24
ATOM     24  C   UNL     1      -3.808  -0.793  -2.713  0.00  0.00    +0.190 C 
BRANCH  24  25
ATOM     25  O   UNL     1      -4.041   0.611  -2.841  0.00  0.00    -0.392 OA
ATOM     26  H   UNL     1      -4.426   0.870  -3.689  0.00  0.00    +0.210 HD
ENDBRANCH  24  25
ENDBRANCH   4  24
TORSDOF 7
