REMARK  Name = ZINC36609808
REMARK  17 active torsions:
REMARK  status: ('A' for Active; 'I' for Inactive)
REMARK    1  A    between atoms: C_1  and  C_2
REMARK    2  A    between atoms: C_2  and  C_3
REMARK    3  A    between atoms: C_2  and  C_4
REMARK    4  A    between atoms: C_2  and  C_5
REMARK    5  A    between atoms: C_5  and  C_6
REMARK    6  A    between atoms: C_6  and  C_7
REMARK    7  A    between atoms: C_6  and  C_8
REMARK    8  A    between atoms: C_6  and  N_9
REMARK    9  A    between atoms: C_10  and  C_12
REMARK   10  A    between atoms: C_12  and  C_14
REMARK   11  A    between atoms: C_12  and  N_23
REMARK   12  A    between atoms: C_15  and  O_22
REMARK   13  A    between atoms: C_17  and  O_21
REMARK   14  A    between atoms: C_19  and  O_20
REMARK   15  A    between atoms: N_23  and  C_24
REMARK   16  A    between atoms: C_30  and  C_32
REMARK   17  A    between atoms: C_35  and  O_38
REMARK                            x       y       z     vdW  Elec       q    Type
REMARK                         _______ _______ _______ _____ _____    ______ ____
ROOT
ATOM      1  C   UNL     1       5.646   1.710  -3.905  0.00  0.00    +0.204 C 
ENDROOT
BRANCH   1   2
ATOM      2  C   UNL     1       5.366   2.762  -4.947  0.00  0.00    +0.065 A 
ATOM      3  C   UNL     1       6.189   3.873  -5.050  0.00  0.00    +0.129 A 
ATOM      4  C   UNL     1       5.931   4.840  -6.010  0.00  0.00    +0.091 A 
ATOM      5  C   UNL     1       4.851   4.697  -6.866  0.00  0.00    +0.124 A 
ATOM      6  C   UNL     1       4.028   3.585  -6.764  0.00  0.00    +0.091 A 
ATOM      7  C   UNL     1       4.288   2.615  -5.807  0.00  0.00    +0.129 A 
BRANCH   7   8
ATOM      8  O   UNL     1       3.484   1.524  -5.710  0.00  0.00    -0.506 OA
ATOM      9  H   UNL     1       2.736   1.639  -5.109  0.00  0.00    +0.292 HD
ENDBRANCH   7   8
BRANCH   5  10
ATOM     10  O   UNL     1       4.597   5.645  -7.806  0.00  0.00    -0.507 OA
ATOM     11  H   UNL     1       5.037   5.487  -8.653  0.00  0.00    +0.292 HD
ENDBRANCH   5  10
BRANCH   3  12
ATOM     12  O   UNL     1       7.248   4.013  -4.211  0.00  0.00    -0.506 OA
ATOM     13  H   UNL     1       8.085   3.692  -4.575  0.00  0.00    +0.292 HD
ENDBRANCH   3  12
ENDBRANCH   1   2
BRANCH   1  15
ATOM     14  N   UNL     1       3.634   2.059  -2.509  0.00  0.00    -0.308 N 
ATOM     15  C   UNL     1       4.977   2.096  -2.610  0.00  0.00    +0.239 C 
ATOM     16  O   UNL     1       5.648   2.439  -1.660  0.00  0.00    -0.273 OA
ATOM     17  H   UNL     1       3.097   1.785  -3.269  0.00  0.00    +0.149 HD
BRANCH  14  18
ATOM     18  C   UNL     1       2.984   2.434  -1.250  0.00  0.00    +0.030 C 
ATOM     19  C   UNL     1       3.458   3.825  -0.826  0.00  0.00    +0.031 C 
ATOM     20  C   UNL     1       3.349   1.418  -0.166  0.00  0.00    +0.031 C 
BRANCH  18  21
ATOM     21  C   UNL     1       1.466   2.449  -1.445  0.00  0.00    +0.031 C 
BRANCH  21  23
ATOM     22  C   UNL     1       1.344   2.385  -3.940  0.00  0.00    +0.010 C 
ATOM     23  C   UNL     1       1.121   3.253  -2.700  0.00  0.00    -0.036 C 
ATOM     24  C   UNL     1       2.018   4.490  -2.776  0.00  0.00    +0.010 C 
ATOM     25  C   UNL     1      -0.344   3.689  -2.639  0.00  0.00    +0.010 C 
ENDBRANCH  21  23
ENDBRANCH  18  21
ENDBRANCH  14  18
ENDBRANCH   1  15
BRANCH   1  26
ATOM     26  N   UNL     1       7.092   1.604  -3.695  0.00  0.00    -0.251 N 
ATOM     27  C   UNL     1       7.915   1.431  -4.748  0.00  0.00    +0.252 C 
ATOM     28  O   UNL     1       9.116   1.351  -4.574  0.00  0.00    -0.270 OA
BRANCH  26  29
ATOM     29  C   UNL     1       7.618   1.681  -2.401  0.00  0.00    +0.038 A 
ATOM     30  C   UNL     1       7.309   0.704  -1.464  0.00  0.00    +0.023 A 
ATOM     31  C   UNL     1       7.830   0.783  -0.188  0.00  0.00    +0.002 A 
ATOM     32  C   UNL     1       8.659   1.835   0.158  0.00  0.00    +0.000 A 
ATOM     33  C   UNL     1       8.969   2.810  -0.773  0.00  0.00    +0.002 A 
ATOM     34  C   UNL     1       8.456   2.733  -2.053  0.00  0.00    +0.023 A 
ENDBRANCH  26  29
BRANCH  27  35
ATOM     35  C   UNL     1       7.359   1.339  -6.112  0.00  0.00    +0.037 A 
ATOM     36  C   UNL     1       5.994   1.103  -6.297  0.00  0.00    +0.016 A 
ATOM     37  C   UNL     1       5.479   1.018  -7.571  0.00  0.00    +0.046 A 
ATOM     38  C   UNL     1       6.314   1.165  -8.672  0.00  0.00    +0.117 A 
ATOM     39  C   UNL     1       7.673   1.400  -8.492  0.00  0.00    +0.046 A 
ATOM     40  C   UNL     1       8.194   1.493  -7.221  0.00  0.00    +0.016 A 
BRANCH  38  41
ATOM     41  O   UNL     1       5.803   1.080  -9.926  0.00  0.00    -0.507 OA
ATOM     42  H   UNL     1       5.504   1.926 -10.287  0.00  0.00    +0.292 HD
ENDBRANCH  38  41
ENDBRANCH  27  35
ENDBRANCH   1  26
TORSDOF 12
