REMARK  Name = ZINC02430986
REMARK  6 active torsions:
REMARK  status: ('A' for Active; 'I' for Inactive)
REMARK    1  A    between atoms: C_1  and  C_2
REMARK    2  A    between atoms: C_2  and  C_3
REMARK    3  A    between atoms: C_3  and  C_5
REMARK    4  A    between atoms: C_3  and  N_6
REMARK    5  A    between atoms: C_7  and  C_9
REMARK    6  A    between atoms: C_18  and  C_21
REMARK                            x       y       z     vdW  Elec       q    Type
REMARK                         _______ _______ _______ _____ _____    ______ ____
ROOT
ATOM      1  C   UNL     1       2.770  -1.090   2.373  0.00  0.00    +0.237 A 
ATOM      2  N   UNL     1       4.095  -1.246   2.474  0.00  0.00    -0.202 NA
ATOM      3  C   UNL     1       4.394  -1.694   3.674  0.00  0.00    +0.168 A 
ATOM      4  C   UNL     1       5.667  -2.041   4.340  0.00  0.00    +0.055 A 
ATOM      5  C   UNL     1       6.988  -1.965   3.808  0.00  0.00    -0.024 A 
ATOM      6  C   UNL     1       8.005  -2.334   4.611  0.00  0.00    -0.004 A 
ATOM      7  S   UNL     1       7.221  -2.811   6.135  0.00  0.00    -0.073 S 
ATOM      8  C   UNL     1       5.540  -2.500   5.658  0.00  0.00    +0.114 A 
ATOM      9  N   UNL     1       4.361  -2.614   6.258  0.00  0.00    -0.225 NA
ATOM     10  C   UNL     1       3.246  -2.306   5.657  0.00  0.00    +0.131 A 
ATOM     11  N   UNL     1       3.230  -1.846   4.375  0.00  0.00    -0.198 N 
ATOM     12  N   UNL     1       2.201  -1.448   3.509  0.00  0.00    -0.138 NA
ATOM     13  C   UNL     1       1.944  -2.460   6.399  0.00  0.00    +0.088 C 
ATOM     14  C   UNL     1       9.341  -2.203   3.934  0.00  0.00    +0.043 C 
ATOM     15  C   UNL     1       9.072  -1.287   2.720  0.00  0.00    +0.010 C 
ATOM     16  C   UNL     1       7.575  -1.544   2.458  0.00  0.00    +0.037 C 
ENDROOT
BRANCH   1  18
ATOM     17  N   UNL     1       0.711  -0.489   1.189  0.00  0.00    -0.306 N 
ATOM     18  C   UNL     1       2.054  -0.600   1.174  0.00  0.00    +0.283 C 
ATOM     19  O   UNL     1       2.677  -0.297   0.175  0.00  0.00    -0.267 OA
ATOM     20  H   UNL     1       0.213  -0.731   1.986  0.00  0.00    +0.149 HD
BRANCH  17  21
ATOM     21  C   UNL     1       0.002  -0.004   0.002  0.00  0.00    +0.070 C 
ATOM     22  C   UNL     1      -0.019   1.526   0.010  0.00  0.00    +0.028 C 
BRANCH  21  24
ATOM     23  C   UNL     1      -1.416  -2.058  -0.121  0.00  0.00    +0.005 C 
ATOM     24  C   UNL     1      -1.433  -0.534   0.013  0.00  0.00    +0.018 C 
ENDBRANCH  21  24
ENDBRANCH  17  21
ENDBRANCH   1  18
TORSDOF 3
