REMARK  Name = ZINC19731631
REMARK  6 active torsions:
REMARK  status: ('A' for Active; 'I' for Inactive)
REMARK    1  A    between atoms: C_3  and  S_24
REMARK    2  A    between atoms: C_6  and  C_7
REMARK    3  A    between atoms: C_7  and  N_8
REMARK    4  A    between atoms: N_8  and  C_9
REMARK    5  A    between atoms: N_14  and  C_17
REMARK    6  A    between atoms: S_24  and  N_27
REMARK                            x       y       z     vdW  Elec       q    Type
REMARK                         _______ _______ _______ _____ _____    ______ ____
ROOT
ATOM      1  N   UNL     1      -1.868  -1.122  -1.038  0.00  0.00    -0.301 NA
ATOM      2  H   UNL     1      -1.938  -0.182  -1.396  0.00  0.00    +0.123 HD
ENDROOT
BRANCH   1   3
ATOM      3  C   UNL     1      -3.081  -1.893  -1.344  0.00  0.00    +0.150 C 
ATOM      4  C   UNL     1      -3.059  -2.380  -2.807  0.00  0.00    +0.125 C 
ATOM      5  C   UNL     1      -4.274  -1.717  -3.419  0.00  0.00    +0.228 C 
ATOM      6  O   UNL     1      -4.633  -1.835  -4.571  0.00  0.00    -0.275 OA
ATOM      7  N   UNL     1      -4.891  -0.980  -2.487  0.00  0.00    -0.209 N 
ATOM      8  C   UNL     1      -4.306  -1.008  -1.279  0.00  0.00    +0.244 C 
ATOM      9  O   UNL     1      -4.694  -0.418  -0.293  0.00  0.00    -0.273 OA
BRANCH   7  10
ATOM     10  C   UNL     1      -6.053  -0.242  -2.749  0.00  0.00    +0.044 A 
ATOM     11  C   UNL     1      -7.244  -0.897  -3.033  0.00  0.00    +0.025 A 
ATOM     12  C   UNL     1      -8.388  -0.167  -3.291  0.00  0.00    +0.017 A 
ATOM     13  C   UNL     1      -8.348   1.216  -3.267  0.00  0.00    +0.018 A 
ATOM     14  C   UNL     1      -7.162   1.871  -2.985  0.00  0.00    +0.017 A 
ATOM     15  C   UNL     1      -6.017   1.146  -2.720  0.00  0.00    +0.025 A 
ATOM     16 BR   UNL     1      -9.915   2.212  -3.622  0.00  0.00    -0.050 Br
ENDBRANCH   7  10
ENDBRANCH   1   3
BRANCH   1  17
ATOM     17  C   UNL     1      -1.599  -1.117   0.406  0.00  0.00    +0.117 C 
BRANCH  17  23
ATOM     18  C   UNL     1      -0.439   1.040   0.926  0.00  0.00    +0.007 A 
ATOM     19  C   UNL     1       0.706   1.772   1.179  0.00  0.00    +0.029 A 
ATOM     20  C   UNL     1       1.939   1.147   1.186  0.00  0.00    +0.105 A 
ATOM     21  C   UNL     1       2.027  -0.211   0.941  0.00  0.00    +0.029 A 
ATOM     22  C   UNL     1       0.882  -0.943   0.690  0.00  0.00    +0.007 A 
ATOM     23  C   UNL     1      -0.351  -0.318   0.681  0.00  0.00    -0.033 A 
BRANCH  20  24
ATOM     24  S   UNL     1       3.398   2.081   1.506  0.00  0.00    +0.056 S 
ATOM     25  O   UNL     1       4.476   1.365   0.918  0.00  0.00    -0.153 OA
ATOM     26  O   UNL     1       3.102   3.428   1.165  0.00  0.00    -0.153 OA
BRANCH  24  27
ATOM     27  N   UNL     1       3.649   2.052   3.143  0.00  0.00    -0.204 NA
ATOM     28  H   UNL     1       3.033   1.573   3.720  0.00  0.00    +0.144 HD
ATOM     29  H   UNL     1       4.411   2.514   3.526  0.00  0.00    +0.144 HD
ENDBRANCH  24  27
ENDBRANCH  20  24
ENDBRANCH  17  23
ENDBRANCH   1  17
TORSDOF 6
