REMARK  Name = ZINC38744721
REMARK  5 active torsions:
REMARK  status: ('A' for Active; 'I' for Inactive)
REMARK    1  A    between atoms: C_1  and  C_2
REMARK    2  A    between atoms: C_2  and  C_3
REMARK    3  A    between atoms: C_3  and  C_4
REMARK    4  A    between atoms: C_10  and  C_13
REMARK    5  A    between atoms: C_16  and  C_19
REMARK                            x       y       z     vdW  Elec       q    Type
REMARK                         _______ _______ _______ _____ _____    ______ ____
ROOT
ATOM      1  C   UNL     1       0.739  -2.004  -1.265  0.00  0.00    +0.151 A 
ATOM      2  N   UNL     1       1.662  -2.759  -0.747  0.00  0.00    -0.132 NA
ATOM      3  N   UNL     1       1.378  -3.999  -0.940  0.00  0.00    -0.121 NA
ATOM      4  C   UNL     1       0.269  -4.089  -1.604  0.00  0.00    +0.210 A 
ATOM      5  N   UNL     1      -0.225  -2.828  -1.820  0.00  0.00    -0.224 N 
ATOM      6  N   UNL     1      -1.428  -2.682  -2.445  0.00  0.00    -0.265 N 
ATOM      7  C   UNL     1      -1.855  -3.846  -3.265  0.00  0.00    +0.182 C 
ATOM      8  S   UNL     1      -0.922  -5.165  -2.376  0.00  0.00    -0.058 S 
ATOM      9  H   UNL     1      -2.147  -2.419  -1.787  0.00  0.00    +0.168 HD
ENDROOT
BRANCH   7  10
ATOM     10  C   UNL     1      -1.386  -3.716  -4.715  0.00  0.00    +0.185 C 
ATOM     11  C   UNL     1      -1.888  -4.881  -5.548  0.00  0.00    +0.034 C 
ATOM     12  C   UNL     1      -0.761  -5.484  -5.973  0.00  0.00    +0.091 C 
ATOM     13  N   UNL     1       0.333  -4.830  -5.502  0.00  0.00    -0.154 NA
ATOM     14  N   UNL     1       0.078  -3.842  -4.802  0.00  0.00    -0.177 NA
BRANCH  12  15
ATOM     15  C   UNL     1      -0.719  -6.692  -6.833  0.00  0.00    +0.002 A 
ATOM     16  C   UNL     1      -1.904  -7.284  -7.266  0.00  0.00    +0.010 A 
ATOM     17  C   UNL     1      -1.859  -8.408  -8.066  0.00  0.00    +0.001 A 
ATOM     18  C   UNL     1      -0.641  -8.947  -8.438  0.00  0.00    +0.000 A 
ATOM     19  C   UNL     1       0.538  -8.364  -8.011  0.00  0.00    +0.001 A 
ATOM     20  C   UNL     1       0.506  -7.237  -7.215  0.00  0.00    +0.010 A 
ENDBRANCH  12  15
ENDBRANCH   7  10
BRANCH   1  21
ATOM     21  C   UNL     1       0.718  -0.497  -1.257  0.00  0.00    +0.078 C 
BRANCH  21  23
ATOM     22  C   UNL     1      -0.019   1.526   0.010  0.00  0.00    +0.004 C 
ATOM     23  C   UNL     1       0.002  -0.004   0.002  0.00  0.00    +0.004 C 
ENDBRANCH  21  23
ENDBRANCH   1  21
TORSDOF 4
