REMARK  Name = ZINC00545249
REMARK  2 active torsions:
REMARK  status: ('A' for Active; 'I' for Inactive)
REMARK    1  A    between atoms: C_6  and  C_7
REMARK    2  A    between atoms: C_10  and  C_13
REMARK                            x       y       z     vdW  Elec       q    Type
REMARK                         _______ _______ _______ _____ _____    ______ ____
ROOT
ATOM      1  C   UNL     1       1.351   1.864  -0.001  0.00  0.00    +0.240 C 
ATOM      2  C   UNL     1       2.075   0.668  -0.664  0.00  0.00    +0.111 C 
ATOM      3  C   UNL     1       1.140  -0.488  -0.369  0.00  0.00    +0.091 C 
ATOM      4  N   UNL     1       0.002  -0.004   0.002  0.00  0.00    -0.088 NA
ATOM      5  O   UNL     1      -0.017   1.410   0.010  0.00  0.00    -0.385 OA
ENDROOT
BRANCH   1  11
ATOM      6  C   UNL     1       0.712   3.292  -1.955  0.00  0.00    +0.009 A 
ATOM      7  C   UNL     1       0.844   4.439  -2.715  0.00  0.00    +0.020 A 
ATOM      8  C   UNL     1       1.769   5.403  -2.358  0.00  0.00    +0.041 A 
ATOM      9  C   UNL     1       2.560   5.220  -1.237  0.00  0.00    +0.020 A 
ATOM     10  C   UNL     1       2.424   4.075  -0.475  0.00  0.00    +0.009 A 
ATOM     11  C   UNL     1       1.499   3.113  -0.832  0.00  0.00    -0.004 A 
ATOM     12 CL   UNL     1       1.939   6.840  -3.316  0.00  0.00    -0.084 Cl
ENDBRANCH   1  11
BRANCH   3  13
ATOM     13  C   UNL     1       1.473  -1.922  -0.486  0.00  0.00    -0.000 A 
ATOM     14  C   UNL     1       2.745  -2.314  -0.907  0.00  0.00    +0.011 A 
ATOM     15  C   UNL     1       3.052  -3.655  -1.008  0.00  0.00    +0.016 A 
ATOM     16  C   UNL     1       2.098  -4.611  -0.706  0.00  0.00    +0.018 A 
ATOM     17  C   UNL     1       0.832  -4.229  -0.293  0.00  0.00    +0.016 A 
ATOM     18  C   UNL     1       0.515  -2.891  -0.182  0.00  0.00    +0.011 A 
ATOM     19 BR   UNL     1       2.524  -6.447  -0.856  0.00  0.00    -0.050 Br
ENDBRANCH   3  13
TORSDOF 2
