REMARK  Name = ZINC65502234
REMARK  8 active torsions:
REMARK  status: ('A' for Active; 'I' for Inactive)
REMARK    1  A    between atoms: C_1  and  C_2
REMARK    2  A    between atoms: C_4  and  C_9
REMARK    3  A    between atoms: C_5  and  C_8
REMARK    4  A    between atoms: C_9  and  C_11
REMARK    5  A    between atoms: C_9  and  N_12
REMARK    6  A    between atoms: N_12  and  C_13
REMARK    7  A    between atoms: N_12  and  C_14
REMARK    8  A    between atoms: C_14  and  C_15
REMARK                            x       y       z     vdW  Elec       q    Type
REMARK                         _______ _______ _______ _____ _____    ______ ____
ROOT
ATOM      1  N   UNL     1      -2.778   1.056  -0.980  0.00  0.00    +0.385 N 
ATOM      2  C   UNL     1      -4.019   1.252  -1.742  0.00  0.00    -0.095 C 
ATOM      3  H   UNL     1      -1.994   1.388  -1.522  0.00  0.00    -0.081 HD
ENDROOT
BRANCH   1   4
ATOM      4  C   UNL     1      -2.602  -0.373  -0.689  0.00  0.00    -0.041 C 
ATOM      5  C   UNL     1      -2.632  -1.167  -1.997  0.00  0.00    -0.009 C 
BRANCH   4   8
ATOM      6  C   UNL     1       0.242   1.263  -0.748  0.00  0.00    +0.039 C 
ATOM      7  C   UNL     1       0.109  -0.244  -0.515  0.00  0.00    +0.151 C 
ATOM      8  C   UNL     1      -1.278  -0.587  -0.002  0.00  0.00    -0.035 C 
ATOM      9  C   UNL     1      -1.053  -1.121   1.200  0.00  0.00    +0.060 C 
ATOM     10  N   UNL     1       0.270  -1.145   1.475  0.00  0.00    -0.159 NA
ATOM     11  N   UNL     1       0.990  -0.681   0.581  0.00  0.00    -0.180 NA
ATOM     12  C   UNL     1      -2.128  -1.629   2.126  0.00  0.00    +0.067 C 
ENDBRANCH   4   8
ENDBRANCH   1   4
BRANCH   1  13
ATOM     13  C   UNL     1      -2.854   1.806   0.281  0.00  0.00    -0.043 C 
BRANCH  13  14
ATOM     14  C   UNL     1      -2.911   3.283  -0.016  0.00  0.00    -0.063 A 
ATOM     15  C   UNL     1      -1.743   4.015  -0.118  0.00  0.00    +0.005 A 
ATOM     16  C   UNL     1      -1.789   5.366  -0.394  0.00  0.00    +0.046 A 
ATOM     17  C   UNL     1      -3.014   6.004  -0.572  0.00  0.00    +0.124 A 
ATOM     18  C   UNL     1      -4.181   5.259  -0.459  0.00  0.00    -0.002 A 
ATOM     19  C   UNL     1      -4.132   3.909  -0.193  0.00  0.00    +0.009 A 
ATOM     20  C   UNL     1      -5.340   6.213  -0.674  0.00  0.00    +0.080 C 
ATOM     21  C   UNL     1      -4.654   7.591  -0.516  0.00  0.00    +0.234 C 
ATOM     22  O   UNL     1      -3.287   7.307  -0.859  0.00  0.00    -0.491 OA
ENDBRANCH  13  14
ENDBRANCH   1  13
TORSDOF 4
