REMARK  Name = ZINC05017461
REMARK  6 active torsions:
REMARK  status: ('A' for Active; 'I' for Inactive)
REMARK    1  A    between atoms: C_1  and  O_2
REMARK    2  A    between atoms: O_2  and  C_3
REMARK    3  A    between atoms: C_3  and  C_5
REMARK    4  A    between atoms: C_6  and  C_20
REMARK    5  A    between atoms: C_11  and  C_13
REMARK    6  A    between atoms: C_20  and  N_44
REMARK                            x       y       z     vdW  Elec       q    Type
REMARK                         _______ _______ _______ _____ _____    ______ ____
ROOT
ATOM      1  C   UNL     1      -0.257   2.075  -4.475  0.00  0.00    +0.076 C 
ATOM      2  C   UNL     1      -1.070   1.362  -3.666  0.00  0.00    +0.008 C 
ATOM      3  N   UNL     1      -2.426   1.395  -3.824  0.00  0.00    -0.274 N 
ATOM      4  C   UNL     1      -3.047   2.123  -4.760  0.00  0.00    +0.304 C 
ATOM      5  O   UNL     1      -4.261   2.092  -4.820  0.00  0.00    -0.252 OA
ATOM      6  N   UNL     1      -2.371   2.886  -5.642  0.00  0.00    -0.288 N 
ATOM      7  C   UNL     1      -0.901   2.915  -5.559  0.00  0.00    +0.143 C 
ATOM      8  H   UNL     1      -2.970   0.863  -3.222  0.00  0.00    +0.156 HD
ATOM      9  H   UNL     1      -2.841   3.403  -6.314  0.00  0.00    +0.151 HD
ENDROOT
BRANCH   7  10
ATOM     10  C   UNL     1      -0.476   4.346  -5.351  0.00  0.00    -0.022 A 
ATOM     11  C   UNL     1      -1.109   5.124  -4.401  0.00  0.00    +0.007 A 
ATOM     12  C   UNL     1      -0.716   6.434  -4.206  0.00  0.00    +0.020 A 
ATOM     13  C   UNL     1       0.304   6.971  -4.970  0.00  0.00    +0.041 A 
ATOM     14  C   UNL     1       0.934   6.194  -5.926  0.00  0.00    +0.020 A 
ATOM     15  C   UNL     1       0.544   4.882  -6.116  0.00  0.00    +0.007 A 
ATOM     16 CL   UNL     1       0.793   8.620  -4.731  0.00  0.00    -0.084 Cl
ENDBRANCH   7  10
BRANCH   1  17
ATOM     17  C   UNL     1       1.148   2.037  -4.316  0.00  0.00    +0.338 C 
ATOM     18  O   UNL     1       1.827   1.354  -5.060  0.00  0.00    -0.245 OA
BRANCH  17  20
ATOM     19  C   UNL     1       3.159   2.674  -3.237  0.00  0.00    +0.280 C 
ATOM     20  O   UNL     1       1.736   2.759  -3.340  0.00  0.00    -0.465 OA
ENDBRANCH  17  20
ENDBRANCH   1  17
BRANCH   2  21
ATOM     21  C   UNL     1      -0.471   0.512  -2.575  0.00  0.00    -0.026 C 
BRANCH  21  26
ATOM     22  C   UNL     1      -0.078   0.404  -0.174  0.00  0.00    -0.078 C 
ATOM     23  C   UNL     1      -0.911   0.666   1.099  0.00  0.00    -0.020 C 
ATOM     24  C   UNL     1      -2.350   0.910   0.590  0.00  0.00    -0.020 C 
ATOM     25  C   UNL     1      -2.261   0.776  -0.945  0.00  0.00    -0.078 C 
ATOM     26  N   UNL     1      -0.849   1.054  -1.232  0.00  0.00    +0.383 N 
ATOM     27  H   UNL     1      -0.680   2.067  -1.217  0.00  0.00    -0.081 HD
ENDBRANCH  21  26
ENDBRANCH   2  21
TORSDOF 5
