REMARK  Name = ZINC20583574
REMARK  10 active torsions:
REMARK  status: ('A' for Active; 'I' for Inactive)
REMARK    1  A    between atoms: C_1  and  C_2
REMARK    2  A    between atoms: C_3  and  C_22
REMARK    3  A    between atoms: C_4  and  C_14
REMARK    4  A    between atoms: C_9  and  S_11
REMARK    5  A    between atoms: S_11  and  C_12
REMARK    6  A    between atoms: C_17  and  O_20
REMARK    7  A    between atoms: O_20  and  C_21
REMARK    8  A    between atoms: N_24  and  C_25
REMARK    9  A    between atoms: C_28  and  O_31
REMARK   10  A    between atoms: O_31  and  C_32
REMARK                            x       y       z     vdW  Elec       q    Type
REMARK                         _______ _______ _______ _____ _____    ______ ____
ROOT
ATOM      1  C   UNL     1       7.617   2.853   2.249  0.00  0.00    +0.061 C 
ATOM      2  C   UNL     1       6.763   3.009   1.018  0.00  0.00    +0.018 C 
ATOM      3  C   UNL     1       5.586   3.643   1.121  0.00  0.00    +0.060 C 
ATOM      4  C   UNL     1       4.654   3.841  -0.045  0.00  0.00    +0.177 C 
ATOM      5  N   UNL     1       5.351   3.514  -1.286  0.00  0.00    -0.220 N 
ATOM      6  C   UNL     1       6.549   2.881  -1.329  0.00  0.00    +0.219 A 
ATOM      7  N   UNL     1       6.886   2.735  -2.582  0.00  0.00    -0.187 NA
ATOM      8  C   UNL     1       5.936   3.266  -3.366  0.00  0.00    +0.210 A 
ATOM      9  N   UNL     1       4.978   3.755  -2.607  0.00  0.00    -0.141 NA
ATOM     10  N   UNL     1       7.216   2.498  -0.174  0.00  0.00    -0.287 N 
ATOM     11  H   UNL     1       8.077   1.813  -0.186  0.00  0.00    +0.155 HD
ENDROOT
BRANCH   4  12
ATOM     12  C   UNL     1       3.456   2.940   0.111  0.00  0.00    -0.018 A 
ATOM     13  C   UNL     1       2.188   3.485   0.191  0.00  0.00    +0.009 A 
ATOM     14  C   UNL     1       1.089   2.660   0.334  0.00  0.00    +0.046 A 
ATOM     15  C   UNL     1       1.258   1.285   0.397  0.00  0.00    +0.120 A 
ATOM     16  C   UNL     1       2.532   0.741   0.322  0.00  0.00    +0.046 A 
ATOM     17  C   UNL     1       3.628   1.569   0.173  0.00  0.00    +0.009 A 
BRANCH  15  18
ATOM     18  O   UNL     1       0.178   0.472   0.537  0.00  0.00    -0.495 OA
ATOM     19  C   UNL     1       0.427  -0.934   0.595  0.00  0.00    +0.277 C 
ENDBRANCH  15  18
ENDBRANCH   4  12
BRANCH   3  20
ATOM     20  C   UNL     1       5.202   4.150   2.385  0.00  0.00    +0.248 C 
ATOM     21  O   UNL     1       5.339   5.334   2.634  0.00  0.00    -0.270 OA
ATOM     22  N   UNL     1       4.684   3.322   3.313  0.00  0.00    -0.282 N 
ATOM     23  H   UNL     1       4.628   2.241   3.117  0.00  0.00    +0.155 HD
BRANCH  22  24
ATOM     24  C   UNL     1       4.215   3.838   4.528  0.00  0.00    +0.034 A 
ATOM     25  C   UNL     1       4.869   4.907   5.127  0.00  0.00    +0.027 A 
ATOM     26  C   UNL     1       4.403   5.418   6.322  0.00  0.00    +0.047 A 
ATOM     27  C   UNL     1       3.289   4.857   6.930  0.00  0.00    +0.120 A 
ATOM     28  C   UNL     1       2.640   3.786   6.336  0.00  0.00    +0.047 A 
ATOM     29  C   UNL     1       3.101   3.277   5.138  0.00  0.00    +0.027 A 
BRANCH  27  30
ATOM     30  O   UNL     1       2.835   5.359   8.110  0.00  0.00    -0.495 OA
ATOM     31  C   UNL     1       3.552   6.463   8.665  0.00  0.00    +0.277 C 
ENDBRANCH  27  30
ENDBRANCH  22  24
ENDBRANCH   3  20
BRANCH   8  32
ATOM     32  S   UNL     1       5.966   3.303  -5.127  0.00  0.00    -0.088 S 
ATOM     33  C   UNL     1       7.525   2.482  -5.557  0.00  0.00    +0.093 C 
ENDBRANCH   8  32
TORSDOF 6
