REMARK  Name = ZINC00543394
REMARK  6 active torsions:
REMARK  status: ('A' for Active; 'I' for Inactive)
REMARK    1  A    between atoms: C_1  and  C_2
REMARK    2  A    between atoms: C_5  and  C_28
REMARK    3  A    between atoms: C_15  and  O_23
REMARK    4  A    between atoms: C_16  and  O_21
REMARK    5  A    between atoms: O_21  and  C_22
REMARK    6  A    between atoms: O_23  and  C_24
REMARK                            x       y       z     vdW  Elec       q    Type
REMARK                         _______ _______ _______ _____ _____    ______ ____
ROOT
ATOM      1  C   UNL     1      -5.085   3.630   0.350  0.00  0.00    +0.009 C 
ATOM      2  C   UNL     1      -4.662   4.317  -0.950  0.00  0.00    +0.004 C 
ATOM      3  C   UNL     1      -5.128   5.776  -0.932  0.00  0.00    +0.009 C 
ATOM      4  C   UNL     1      -4.443   6.508   0.226  0.00  0.00    +0.004 C 
ATOM      5  C   UNL     1      -2.925   6.402   0.064  0.00  0.00    +0.109 C 
ATOM      6  N   UNL     1      -2.530   4.988   0.053  0.00  0.00    -0.313 N 
ATOM      7  C   UNL     1      -3.138   4.275  -1.078  0.00  0.00    +0.109 C 
ATOM      8  C   UNL     1      -1.150   4.858   0.039  0.00  0.00    +0.149 A 
ATOM      9  C   UNL     1      -0.552   3.591   0.027  0.00  0.00    +0.106 A 
ATOM     10  C   UNL     1       0.847   3.523   0.013  0.00  0.00    +0.101 A 
ATOM     11  C   UNL     1       1.196   2.095   0.002  0.00  0.00    +0.030 A 
ATOM     12  C   UNL     1       2.409   1.403  -0.014  0.00  0.00    +0.061 A 
ATOM     13  C   UNL     1       2.412   0.024  -0.021  0.00  0.00    +0.162 A 
ATOM     14  C   UNL     1       1.207  -0.680  -0.013  0.00  0.00    +0.163 A 
ATOM     15  C   UNL     1       0.002  -0.004   0.002  0.00  0.00    +0.075 A 
ATOM     16  C   UNL     1      -0.017   1.387   0.010  0.00  0.00    +0.053 A 
ATOM     17  N   UNL     1      -1.054   2.303   0.030  0.00  0.00    -0.350 N 
ATOM     18  H   UNL     1      -1.997   2.074   0.043  0.00  0.00    +0.166 HD
ATOM     19  N   UNL     1       1.554   4.654   0.012  0.00  0.00    -0.233 NA
ATOM     20  C   UNL     1       0.948   5.822   0.023  0.00  0.00    +0.224 A 
ATOM     21  N   UNL     1      -0.368   5.932   0.037  0.00  0.00    -0.219 NA
ATOM     22  C   UNL     1      -4.857   7.981   0.215  0.00  0.00    +0.009 C 
ENDROOT
BRANCH  14  23
ATOM     23  O   UNL     1       1.218  -2.039  -0.021  0.00  0.00    -0.491 OA
ATOM     24  C   UNL     1      -0.049  -2.699  -0.012  0.00  0.00    +0.277 C 
ENDBRANCH  14  23
BRANCH  13  25
ATOM     25  O   UNL     1       3.593  -0.652  -0.037  0.00  0.00    -0.491 OA
ATOM     26  C   UNL     1       4.789   0.131  -0.044  0.00  0.00    +0.277 C 
ENDBRANCH  13  25
TORSDOF 2
