REMARK  Name = ZINC11758599
REMARK  4 active torsions:
REMARK  status: ('A' for Active; 'I' for Inactive)
REMARK    1  A    between atoms: C_11  and  C_13
REMARK    2  A    between atoms: C_13  and  S_14
REMARK    3  A    between atoms: S_14  and  C_15
REMARK    4  A    between atoms: N_21  and  C_24
REMARK                            x       y       z     vdW  Elec       q    Type
REMARK                         _______ _______ _______ _____ _____    ______ ____
ROOT
ATOM      1  C   UNL     1       4.669   6.040  -1.547  0.00  0.00    +0.130 A 
ATOM      2  C   UNL     1       5.671   6.939  -1.968  0.00  0.00    +0.164 A 
ATOM      3  C   UNL     1       5.288   8.255  -2.281  0.00  0.00    +0.188 A 
ATOM      4  N   UNL     1       4.008   8.601  -2.170  0.00  0.00    -0.214 NA
ATOM      5  C   UNL     1       3.108   7.726  -1.774  0.00  0.00    +0.224 A 
ATOM      6  N   UNL     1       3.417   6.478  -1.473  0.00  0.00    -0.227 NA
ATOM      7  N   UNL     1       6.434   8.904  -2.654  0.00  0.00    -0.194 N 
ATOM      8  N   UNL     1       7.474   7.968  -2.556  0.00  0.00    -0.058 NA
ATOM      9  N   UNL     1       6.998   6.841  -2.157  0.00  0.00    -0.125 NA
ENDROOT
BRANCH   7  10
ATOM     10  C   UNL     1       6.546  10.243  -3.054  0.00  0.00    +0.070 A 
ATOM     11  C   UNL     1       5.528  10.837  -3.788  0.00  0.00    +0.031 A 
ATOM     12  C   UNL     1       5.639  12.157  -4.178  0.00  0.00    +0.040 A 
ATOM     13  C   UNL     1       6.768  12.886  -3.845  0.00  0.00    +0.124 A 
ATOM     14  C   UNL     1       7.787  12.294  -3.117  0.00  0.00    +0.040 A 
ATOM     15  C   UNL     1       7.678  10.976  -2.721  0.00  0.00    +0.031 A 
ATOM     16  F   UNL     1       6.877  14.176  -4.232  0.00  0.00    -0.205 F 
ENDBRANCH   7  10
BRANCH   1  17
ATOM     17  S   UNL     1       5.067   4.373  -1.137  0.00  0.00    -0.094 S 
BRANCH  17  18
ATOM     18  C   UNL     1       3.424   3.758  -0.692  0.00  0.00    +0.172 C 
BRANCH  18  29
ATOM     19  C   UNL     1       2.646  -2.492   0.696  0.00  0.00    +0.000 A 
ATOM     20  C   UNL     1       3.726  -1.816   0.156  0.00  0.00    +0.002 A 
ATOM     21  C   UNL     1       3.639  -0.460  -0.084  0.00  0.00    +0.024 A 
ATOM     22  C   UNL     1       2.468   0.227   0.217  0.00  0.00    +0.039 A 
ATOM     23  C   UNL     1       1.386  -0.451   0.755  0.00  0.00    -0.026 A 
ATOM     24  C   UNL     1       1.479  -1.813   0.989  0.00  0.00    +0.005 A 
ATOM     25  C   UNL     1       0.100   0.259   1.089  0.00  0.00    +0.038 C 
ATOM     26  C   UNL     1       0.341   1.760   1.242  0.00  0.00    +0.024 C 
ATOM     27  C   UNL     1       1.093   2.271   0.006  0.00  0.00    +0.114 C 
ATOM     28  N   UNL     1       2.402   1.605  -0.030  0.00  0.00    -0.270 N 
ATOM     29  C   UNL     1       3.522   2.308  -0.295  0.00  0.00    +0.230 C 
ATOM     30  O   UNL     1       4.607   1.773  -0.213  0.00  0.00    -0.274 OA
ENDBRANCH  18  29
ENDBRANCH  17  18
ENDBRANCH   1  17
TORSDOF 4
