REMARK  Name = ZINC13032723
REMARK  11 active torsions:
REMARK  status: ('A' for Active; 'I' for Inactive)
REMARK    1  A    between atoms: C_1  and  C_2
REMARK    2  A    between atoms: C_5  and  S_7
REMARK    3  A    between atoms: S_7  and  N_10
REMARK    4  A    between atoms: N_10  and  C_11
REMARK    5  A    between atoms: C_12  and  C_23
REMARK    6  A    between atoms: C_14  and  O_21
REMARK    7  A    between atoms: C_15  and  O_19
REMARK    8  A    between atoms: C_16  and  O_17
REMARK    9  A    between atoms: O_17  and  C_18
REMARK   10  A    between atoms: O_19  and  C_20
REMARK   11  A    between atoms: O_21  and  C_22
REMARK                            x       y       z     vdW  Elec       q    Type
REMARK                         _______ _______ _______ _____ _____    ______ ____
ROOT
ATOM      1  C   UNL     1       0.250   4.908   1.535  0.00  0.00    +0.108 A 
ATOM      2  C   UNL     1      -0.927   5.348   0.909  0.00  0.00    +0.093 A 
ATOM      3  C   UNL     1      -1.585   4.510  -0.002  0.00  0.00    +0.066 A 
ATOM      4  C   UNL     1      -1.074   3.260  -0.281  0.00  0.00    +0.166 A 
ATOM      5  C   UNL     1       0.095   2.824   0.342  0.00  0.00    +0.205 A 
ATOM      6  C   UNL     1       0.751   3.643   1.251  0.00  0.00    +0.188 A 
ENDROOT
BRANCH   2   7
ATOM      7  C   UNL     1      -1.468   6.682   1.208  0.00  0.00    +0.389 C 
ATOM      8  O   UNL     1      -0.860   7.433   1.945  0.00  0.00    -0.241 OA
ATOM      9  O   UNL     1      -2.639   7.072   0.664  0.00  0.00    -0.241 OA
ENDBRANCH   2   7
BRANCH   1  10
ATOM     10  N   UNL     1       0.909   5.734   2.442  0.00  0.00    -0.211 N 
ATOM     11  H   UNL     1       1.349   6.541   2.132  0.00  0.00    +0.174 HD
BRANCH  10  12
ATOM     12  S   UNL     1       0.942   5.338   4.050  0.00  0.00    +0.079 S 
ATOM     13  O   UNL     1       1.663   6.371   4.708  0.00  0.00    -0.149 OA
ATOM     14  O   UNL     1      -0.388   4.989   4.409  0.00  0.00    -0.149 OA
BRANCH  12  19
ATOM     15  C   UNL     1       3.313  -0.057   4.565  0.00  0.00    +0.051 C 
ATOM     16  C   UNL     1       2.970   1.405   4.441  0.00  0.00    -0.011 A 
ATOM     17  C   UNL     1       3.798   2.477   4.407  0.00  0.00    +0.013 A 
ATOM     18  C   UNL     1       3.254   3.741   4.287  0.00  0.00    +0.037 A 
ATOM     19  C   UNL     1       1.907   3.872   4.206  0.00  0.00    +0.146 A 
ATOM     20  S   UNL     1       1.364   2.175   4.307  0.00  0.00    -0.074 S 
ENDBRANCH  12  19
ENDBRANCH  10  12
ENDBRANCH   1  10
BRANCH   6  21
ATOM     21  O   UNL     1       1.889   3.209   1.859  0.00  0.00    -0.490 OA
ATOM     22  C   UNL     1       3.125   3.492   1.201  0.00  0.00    +0.277 C 
ENDBRANCH   6  21
BRANCH   5  23
ATOM     23  O   UNL     1       0.591   1.590   0.063  0.00  0.00    -0.488 OA
ATOM     24  C   UNL     1       0.063   0.493   0.811  0.00  0.00    +0.277 C 
ENDBRANCH   5  23
BRANCH   4  25
ATOM     25  O   UNL     1      -1.714   2.448  -1.166  0.00  0.00    -0.491 OA
ATOM     26  C   UNL     1      -2.906   2.957  -1.767  0.00  0.00    +0.277 C 
ENDBRANCH   4  25
TORSDOF 7
