REMARK  Name = ZINC16576159
REMARK  10 active torsions:
REMARK  status: ('A' for Active; 'I' for Inactive)
REMARK    1  A    between atoms: C_1  and  C_2
REMARK    2  A    between atoms: C_2  and  C_4
REMARK    3  A    between atoms: C_2  and  N_71
REMARK    4  A    between atoms: C_14  and  C_15
REMARK    5  A    between atoms: C_14  and  N_71
REMARK    6  A    between atoms: C_18  and  O_23
REMARK    7  A    between atoms: C_19  and  O_21
REMARK    8  A    between atoms: O_21  and  C_22
REMARK    9  A    between atoms: O_23  and  C_24
REMARK   10  A    between atoms: C_24  and  C_25
REMARK                            x       y       z     vdW  Elec       q    Type
REMARK                         _______ _______ _______ _____ _____    ______ ____
ROOT
ATOM      1  C   UNL     1       2.125   0.993   1.166  0.00  0.00    -0.061 A 
ATOM      2  C   UNL     1       2.120   1.661   2.377  0.00  0.00    +0.005 A 
ATOM      3  C   UNL     1       2.822   1.151   3.453  0.00  0.00    +0.049 A 
ATOM      4  C   UNL     1       3.542  -0.026   3.316  0.00  0.00    +0.163 A 
ATOM      5  C   UNL     1       3.551  -0.694   2.096  0.00  0.00    +0.162 A 
ATOM      6  C   UNL     1       2.840  -0.181   1.023  0.00  0.00    +0.051 A 
ENDROOT
BRANCH   5   7
ATOM      7  O   UNL     1       4.255  -1.849   1.957  0.00  0.00    -0.491 OA
ATOM      8  C   UNL     1       4.218  -2.482   0.676  0.00  0.00    +0.277 C 
ENDBRANCH   5   7
BRANCH   1   9
ATOM      9  C   UNL     1       1.353   1.550  -0.003  0.00  0.00    -0.046 C 
BRANCH   9  10
ATOM     10  N   UNL     1      -0.015   0.998   0.015  0.00  0.00    +0.384 N 
ATOM     11  H   UNL     1       0.032  -0.025  -0.054  0.00  0.00    -0.085 HD
ATOM     12  H   UNL     1      -0.475   1.261   0.894  0.00  0.00    -0.085 HD
BRANCH  10  14
ATOM     13  C   UNL     1      -0.534   0.673  -2.362  0.00  0.00    -0.013 C 
ATOM     14  C   UNL     1      -0.795   1.527  -1.120  0.00  0.00    -0.068 C 
BRANCH  14  15
ATOM     15  C   UNL     1      -2.284   1.478  -0.772  0.00  0.00    -0.041 C 
ATOM     16  C   UNL     1      -2.546   2.332   0.470  0.00  0.00    +0.009 C 
ATOM     17  C   UNL     1      -4.035   2.283   0.819  0.00  0.00    -0.010 C 
ATOM     18  C   UNL     1      -4.852   2.827  -0.356  0.00  0.00    +0.007 C 
ATOM     19  C   UNL     1      -4.590   1.973  -1.598  0.00  0.00    -0.010 C 
ATOM     20  C   UNL     1      -3.101   2.022  -1.946  0.00  0.00    +0.009 C 
ATOM     21  C   UNL     1      -5.001   0.526  -1.317  0.00  0.00    +0.007 C 
ATOM     22  C   UNL     1      -4.184  -0.018  -0.143  0.00  0.00    -0.010 C 
ATOM     23  C   UNL     1      -4.446   0.836   1.099  0.00  0.00    +0.007 C 
ATOM     24  C   UNL     1      -2.696   0.031  -0.491  0.00  0.00    +0.009 C 
ENDBRANCH  14  15
ENDBRANCH  10  14
ENDBRANCH   9  10
ENDBRANCH   1   9
BRANCH   4  25
ATOM     25  O   UNL     1       4.238  -0.525   4.372  0.00  0.00    -0.479 OA
BRANCH  25  26
ATOM     26  C   UNL     1       4.183   0.214   5.594  0.00  0.00    +0.324 C 
BRANCH  26  27
ATOM     27  C   UNL     1       5.008  -0.486   6.643  0.00  0.00    +0.253 C 
ATOM     28  O   UNL     1       5.585  -1.517   6.371  0.00  0.00    -0.272 OA
ATOM     29  N   UNL     1       5.103   0.033   7.883  0.00  0.00    -0.299 N 
ATOM     30  C   UNL     1       4.414   1.285   8.225  0.00  0.00    +0.108 C 
ATOM     31  C   UNL     1       3.550   1.042   9.472  0.00  0.00    +0.019 C 
ATOM     32  C   UNL     1       4.428   0.481  10.593  0.00  0.00    +0.003 C 
ATOM     33  C   UNL     1       5.027  -0.857  10.153  0.00  0.00    +0.019 C 
ATOM     34  C   UNL     1       5.903  -0.638   8.916  0.00  0.00    +0.108 C 
ENDBRANCH  26  27
ENDBRANCH  25  26
ENDBRANCH   4  25
TORSDOF 8
