REMARK  Name = ZINC13303557
REMARK  6 active torsions:
REMARK  status: ('A' for Active; 'I' for Inactive)
REMARK    1  A    between atoms: C_1  and  C_2
REMARK    2  A    between atoms: C_7  and  N_8
REMARK    3  A    between atoms: C_12  and  S_16
REMARK    4  A    between atoms: S_16  and  C_17
REMARK    5  A    between atoms: N_19  and  N_20
REMARK    6  A    between atoms: C_21  and  C_22
REMARK                            x       y       z     vdW  Elec       q    Type
REMARK                         _______ _______ _______ _____ _____    ______ ____
ROOT
ATOM      1  S   UNL     1       1.407   2.794   4.284  0.00  0.00    -0.078 S 
ENDROOT
BRANCH   1   6
ATOM      2  N   UNL     1       0.025  -0.013   2.419  0.00  0.00    -0.209 N 
ATOM      3  C   UNL     1      -1.099   0.325   3.062  0.00  0.00    +0.228 C 
ATOM      4  O   UNL     1      -2.225   0.081   2.684  0.00  0.00    -0.275 OA
ATOM      5  C   UNL     1      -0.743   1.057   4.337  0.00  0.00    +0.120 C 
ATOM      6  C   UNL     1       0.799   1.085   4.319  0.00  0.00    +0.149 C 
ATOM      7  C   UNL     1       1.152   0.360   3.038  0.00  0.00    +0.240 C 
ATOM      8  O   UNL     1       2.276   0.152   2.636  0.00  0.00    -0.274 OA
BRANCH   2  15
ATOM      9  C   UNL     1      -0.018   1.503   0.010  0.00  0.00    +0.045 C 
ATOM     10  C   UNL     1       0.002  -0.004   0.002  0.00  0.00    -0.029 A 
ATOM     11  C   UNL     1       0.006  -0.689  -1.198  0.00  0.00    +0.005 A 
ATOM     12  C   UNL     1       0.025  -2.071  -1.206  0.00  0.00    +0.000 A 
ATOM     13  C   UNL     1       0.041  -2.773  -0.014  0.00  0.00    +0.002 A 
ATOM     14  C   UNL     1       0.037  -2.094   1.188  0.00  0.00    +0.024 A 
ATOM     15  C   UNL     1       0.023  -0.705   1.200  0.00  0.00    +0.047 A 
ENDBRANCH   2  15
ENDBRANCH   1   6
BRANCH   1  16
ATOM     16  C   UNL     1       3.156   2.628   4.415  0.00  0.00    +0.146 C 
ATOM     17  N   UNL     1       3.693   1.442   4.507  0.00  0.00    -0.380 N 
ATOM     18  N   UNL     1       3.956   3.749   4.421  0.00  0.00    -0.217 N 
ATOM     19  H   UNL     1       4.656   1.351   4.580  0.00  0.00    +0.158 HD
ATOM     20  H   UNL     1       3.556   4.630   4.353  0.00  0.00    +0.176 HD
ATOM     21  H   UNL     1       3.130   0.653   4.503  0.00  0.00    +0.158 HD
BRANCH  18  22
ATOM     22  N   UNL     1       5.346   3.616   4.526  0.00  0.00    -0.188 NA
ATOM     23  C   UNL     1       6.100   4.673   4.531  0.00  0.00    +0.138 C 
BRANCH  23  24
ATOM     24  C   UNL     1       7.564   4.533   4.641  0.00  0.00    -0.005 A 
ATOM     25  C   UNL     1       8.143   3.265   4.734  0.00  0.00    +0.011 A 
ATOM     26  C   UNL     1       9.513   3.142   4.836  0.00  0.00    +0.020 A 
ATOM     27  C   UNL     1      10.314   4.271   4.847  0.00  0.00    +0.041 A 
ATOM     28  C   UNL     1       9.746   5.531   4.756  0.00  0.00    +0.020 A 
ATOM     29  C   UNL     1       8.379   5.668   4.647  0.00  0.00    +0.011 A 
ATOM     30 CL   UNL     1      12.037   4.107   4.977  0.00  0.00    -0.084 Cl
ENDBRANCH  23  24
ENDBRANCH  18  22
ENDBRANCH   1  16
TORSDOF 5
