REMARK  Name = ZINC13584642
REMARK  5 active torsions:
REMARK  status: ('A' for Active; 'I' for Inactive)
REMARK    1  A    between atoms: C_1  and  C_2
REMARK    2  A    between atoms: C_3  and  C_12
REMARK    3  A    between atoms: N_10  and  C_11
REMARK    4  A    between atoms: N_13  and  N_14
REMARK    5  A    between atoms: C_15  and  C_17
REMARK                            x       y       z     vdW  Elec       q    Type
REMARK                         _______ _______ _______ _____ _____    ______ ____
ROOT
ATOM      1  N   UNL     1      -2.154   8.176   0.499  0.00  0.00    -0.204 N 
ATOM      2  C   UNL     1      -1.099   7.378   0.239  0.00  0.00    +0.276 C 
ATOM      3  O   UNL     1      -0.137   7.818  -0.354  0.00  0.00    -0.270 OA
ATOM      4  H   UNL     1      -2.923   7.825   0.973  0.00  0.00    +0.177 HD
ENDROOT
BRANCH   2   5
ATOM      5  C   UNL     1      -1.116   5.939   0.687  0.00  0.00    +0.297 C 
ATOM      6  C   UNL     1      -2.220   5.178  -0.059  0.00  0.00    +0.283 C 
ATOM      7  O   UNL     1      -2.199   3.815   0.379  0.00  0.00    -0.484 OA
ATOM      8  C   UNL     1      -0.981   3.211   0.439  0.00  0.00    +0.162 A 
ATOM      9  C   UNL     1      -0.909   1.827   0.493  0.00  0.00    +0.049 A 
ATOM     10  C   UNL     1       0.321   1.200   0.563  0.00  0.00    +0.004 A 
ATOM     11  C   UNL     1       1.482   1.949   0.570  0.00  0.00    +0.004 A 
ATOM     12  C   UNL     1       1.418   3.329   0.511  0.00  0.00    +0.049 A 
ATOM     13  C   UNL     1       0.187   3.964   0.444  0.00  0.00    +0.163 A 
ATOM     14  O   UNL     1       0.139   5.323   0.379  0.00  0.00    -0.472 OA
ENDBRANCH   2   5
BRANCH   1  16
ATOM     15  C   UNL     1      -3.190  10.258   0.249  0.00  0.00    +0.140 C 
ATOM     16  N   UNL     1      -2.138   9.514   0.083  0.00  0.00    -0.188 NA
BRANCH  15  19
ATOM     17  C   UNL     1      -6.108  10.110  -0.811  0.00  0.00    +0.064 C 
ATOM     18  C   UNL     1      -5.633   9.664   0.548  0.00  0.00    +0.025 A 
ATOM     19  C   UNL     1      -4.349   9.738   0.992  0.00  0.00    +0.023 A 
ATOM     20  C   UNL     1      -4.346   9.190   2.360  0.00  0.00    +0.009 A 
ATOM     21  C   UNL     1      -3.357   9.005   3.325  0.00  0.00    +0.010 A 
ATOM     22  C   UNL     1      -3.688   8.457   4.544  0.00  0.00    +0.001 A 
ATOM     23  C   UNL     1      -5.000   8.093   4.816  0.00  0.00    +0.002 A 
ATOM     24  C   UNL     1      -5.988   8.275   3.873  0.00  0.00    +0.026 A 
ATOM     25  C   UNL     1      -5.674   8.828   2.636  0.00  0.00    +0.050 A 
ATOM     26  N   UNL     1      -6.425   9.125   1.518  0.00  0.00    -0.346 N 
ATOM     27  C   UNL     1      -7.865   8.894   1.390  0.00  0.00    +0.149 C 
ENDBRANCH  15  19
ENDBRANCH   1  16
TORSDOF 3
