REMARK  Name = ZINC09348687
REMARK  7 active torsions:
REMARK  status: ('A' for Active; 'I' for Inactive)
REMARK    1  A    between atoms: C_1  and  C_2
REMARK    2  A    between atoms: C_7  and  C_14
REMARK    3  A    between atoms: C_14  and  N_15
REMARK    4  A    between atoms: N_15  and  C_16
REMARK    5  A    between atoms: N_15  and  S_22
REMARK    6  A    between atoms: C_16  and  C_17
REMARK    7  A    between atoms: S_22  and  C_25
REMARK                            x       y       z     vdW  Elec       q    Type
REMARK                         _______ _______ _______ _____ _____    ______ ____
ROOT
ATOM      1  N   UNL     1       1.238  -2.580  -1.379  0.00  0.00    -0.165 NA
ENDROOT
BRANCH   1   2
ATOM      2  S   UNL     1      -0.167  -2.946  -2.175  0.00  0.00    +0.064 S 
ATOM      3  O   UNL     1      -0.072  -4.311  -2.561  0.00  0.00    -0.153 OA
ATOM      4  O   UNL     1      -1.230  -2.454  -1.370  0.00  0.00    -0.153 OA
BRANCH   2   5
ATOM      5  C   UNL     1      -0.184  -2.003  -3.663  0.00  0.00    +0.136 A 
ATOM      6  C   UNL     1      -0.075  -2.619  -4.866  0.00  0.00    +0.031 A 
ATOM      7  C   UNL     1      -0.084  -1.903  -6.070  0.00  0.00    +0.004 A 
ATOM      8  C   UNL     1      -0.204  -0.553  -6.100  0.00  0.00    +0.033 A 
ATOM      9  C   UNL     1      -0.323   0.158  -4.890  0.00  0.00    +0.136 A 
ATOM     10  C   UNL     1      -0.318  -0.601  -3.615  0.00  0.00    +0.160 A 
ATOM     11  N   UNL     1      -0.438   0.343  -2.715  0.00  0.00    -0.047 NA
ATOM     12  O   UNL     1      -0.509   1.419  -3.275  0.00  0.00    -0.242 OA
ATOM     13  N   UNL     1      -0.452   1.398  -4.488  0.00  0.00    -0.049 NA
ENDBRANCH   2   5
ENDBRANCH   1   2
BRANCH   1  14
ATOM     14  C   UNL     1       1.189  -1.910  -0.077  0.00  0.00    +0.150 C 
BRANCH  14  21
ATOM     15  C   UNL     1       1.026   6.007  -1.033  0.00  0.00    +0.044 C 
ATOM     16  C   UNL     1       0.824   4.527  -0.835  0.00  0.00    -0.048 A 
ATOM     17  C   UNL     1      -0.460   4.024  -0.673  0.00  0.00    +0.004 A 
ATOM     18  C   UNL     1      -0.664   2.686  -0.487  0.00  0.00    +0.010 A 
ATOM     19  C   UNL     1       0.428   1.813  -0.472  0.00  0.00    -0.001 A 
ATOM     20  C   UNL     1       0.245   0.373  -0.282  0.00  0.00    +0.020 A 
ATOM     21  C   UNL     1       1.342  -0.423  -0.271  0.00  0.00    +0.033 A 
ATOM     22  C   UNL     1       2.628   0.135  -0.440  0.00  0.00    +0.254 A 
ATOM     23  O   UNL     1       3.600  -0.600  -0.427  0.00  0.00    -0.268 OA
ATOM     24  N   UNL     1       2.806   1.456  -0.616  0.00  0.00    -0.322 N 
ATOM     25  H   UNL     1       3.820   1.861  -0.745  0.00  0.00    +0.169 HD
ATOM     26  C   UNL     1       1.732   2.319  -0.637  0.00  0.00    +0.049 A 
ATOM     27  C   UNL     1       1.916   3.686  -0.819  0.00  0.00    +0.029 A 
ENDBRANCH  14  21
ENDBRANCH   1  14
BRANCH   1  28
ATOM     28  C   UNL     1       2.530  -2.925  -1.977  0.00  0.00    +0.184 C 
BRANCH  28  29
ATOM     29  C   UNL     1       2.994  -4.254  -1.438  0.00  0.00    +0.120 A 
ATOM     30  C   UNL     1       2.722  -5.458  -1.973  0.00  0.00    +0.046 A 
ATOM     31  C   UNL     1       3.349  -6.422  -1.151  0.00  0.00    +0.041 A 
ATOM     32  C   UNL     1       3.967  -5.750  -0.164  0.00  0.00    +0.195 A 
ATOM     33  O   UNL     1       3.753  -4.436  -0.346  0.00  0.00    -0.466 OA
ENDBRANCH  28  29
ENDBRANCH   1  28
TORSDOF 6
