REMARK  Name = ZINC45723086
REMARK  6 active torsions:
REMARK  status: ('A' for Active; 'I' for Inactive)
REMARK    1  A    between atoms: C_4  and  C_7
REMARK    2  A    between atoms: C_7  and  C_9
REMARK    3  A    between atoms: C_7  and  N_15
REMARK    4  A    between atoms: N_18  and  C_19
REMARK    5  A    between atoms: C_24  and  C_25
REMARK    6  A    between atoms: C_25  and  C_26
REMARK                            x       y       z     vdW  Elec       q    Type
REMARK                         _______ _______ _______ _____ _____    ______ ____
ROOT
ATOM      1  N   UNL     1       3.595  -1.862  -0.932  0.00  0.00    -0.292 N 
ATOM      2  C   UNL     1       3.821  -1.715  -2.253  0.00  0.00    +0.304 C 
ATOM      3  O   UNL     1       4.103  -0.622  -2.704  0.00  0.00    -0.252 OA
ATOM      4  N   UNL     1       3.733  -2.781  -3.074  0.00  0.00    -0.269 N 
ATOM      5  H   UNL     1       3.370  -2.734  -0.573  0.00  0.00    +0.151 HD
ATOM      6  H   UNL     1       3.588  -3.666  -2.705  0.00  0.00    +0.156 HD
ENDROOT
BRANCH   4   7
ATOM      7  C   UNL     1       3.850  -2.609  -4.458  0.00  0.00    +0.038 A 
ATOM      8  C   UNL     1       3.545  -1.384  -5.035  0.00  0.00    +0.023 A 
ATOM      9  C   UNL     1       3.663  -1.217  -6.401  0.00  0.00    +0.002 A 
ATOM     10  C   UNL     1       4.083  -2.270  -7.194  0.00  0.00    +0.000 A 
ATOM     11  C   UNL     1       4.387  -3.491  -6.622  0.00  0.00    +0.006 A 
ATOM     12  C   UNL     1       4.278  -3.662  -5.255  0.00  0.00    -0.017 A 
BRANCH  12  13
ATOM     13  C   UNL     1       4.616  -4.992  -4.632  0.00  0.00    +0.132 C 
BRANCH  13  14
ATOM     14  C   UNL     1       3.358  -5.809  -4.479  0.00  0.00    +0.215 C 
ATOM     15  O   UNL     1       2.293  -5.356  -4.840  0.00  0.00    -0.276 OA
ATOM     16  N   UNL     1       3.418  -7.043  -3.940  0.00  0.00    -0.329 N 
ATOM     17  H   UNL     1       4.270  -7.405  -3.651  0.00  0.00    +0.145 HD
ATOM     18  H   UNL     1       2.609  -7.568  -3.841  0.00  0.00    +0.145 HD
ENDBRANCH  13  14
ENDBRANCH  12  13
ENDBRANCH   4   7
BRANCH   1  19
ATOM     19  C   UNL     1       3.691  -0.704  -0.040  0.00  0.00    +0.108 C 
BRANCH  19  23
ATOM     20  C   UNL     1      -0.031   1.394  -0.029  0.00  0.00    +0.000 A 
ATOM     21  C   UNL     1       1.159   2.097  -0.026  0.00  0.00    +0.000 A 
ATOM     22  C   UNL     1       2.364   1.418  -0.030  0.00  0.00    +0.005 A 
ATOM     23  C   UNL     1       2.378   0.036  -0.035  0.00  0.00    -0.027 A 
ATOM     24  C   UNL     1       1.188  -0.667  -0.037  0.00  0.00    +0.005 A 
ATOM     25  C   UNL     1      -0.016   0.011  -0.035  0.00  0.00    +0.000 A 
ENDBRANCH  19  23
BRANCH  19  26
ATOM     26  C   UNL     1       4.014  -1.178   1.378  0.00  0.00    +0.014 C 
ATOM     27  C   UNL     1       2.971  -2.206   1.822  0.00  0.00    +0.006 C 
ATOM     28  C   UNL     1       3.295  -2.681   3.240  0.00  0.00    +0.000 C 
ATOM     29  C   UNL     1       4.684  -3.322   3.260  0.00  0.00    +0.000 C 
ATOM     30  C   UNL     1       5.726  -2.294   2.816  0.00  0.00    +0.000 C 
ATOM     31  C   UNL     1       5.403  -1.819   1.397  0.00  0.00    +0.006 C 
ENDBRANCH  19  26
ENDBRANCH   1  19
TORSDOF 6
