REMARK  Name = ZINC31783433
REMARK  5 active torsions:
REMARK  status: ('A' for Active; 'I' for Inactive)
REMARK    1  A    between atoms: C_3  and  O_27
REMARK    2  A    between atoms: C_6  and  C_7
REMARK    3  A    between atoms: N_8  and  N_9
REMARK    4  A    between atoms: C_10  and  C_12
REMARK    5  A    between atoms: C_12  and  N_13
REMARK                            x       y       z     vdW  Elec       q    Type
REMARK                         _______ _______ _______ _____ _____    ______ ____
ROOT
ATOM      1  C   UNL     1       3.068  -4.904  -1.019  0.00  0.00    +0.223 C 
ENDROOT
BRANCH   1   2
ATOM      2  N   UNL     1       2.062  -3.908  -0.647  0.00  0.00    -0.290 N 
ATOM      3  C   UNL     1       1.067  -4.278   0.196  0.00  0.00    +0.203 A 
ATOM      4  N   UNL     1       0.117  -3.457   0.587  0.00  0.00    -0.230 NA
ATOM      5  C   UNL     1       0.155  -2.212   0.123  0.00  0.00    +0.116 A 
ATOM      6  C   UNL     1       1.150  -1.731  -0.757  0.00  0.00    +0.076 A 
ATOM      7  C   UNL     1       2.168  -2.659  -1.160  0.00  0.00    +0.263 A 
ATOM      8  O   UNL     1       3.071  -2.344  -1.916  0.00  0.00    -0.267 OA
ATOM      9  C   UNL     1       1.031  -0.341  -1.161  0.00  0.00    -0.023 A 
ATOM     10  C   UNL     1      -0.018   0.350  -0.654  0.00  0.00    -0.004 A 
ATOM     11  S   UNL     1      -0.885  -0.809   0.373  0.00  0.00    -0.073 S 
ATOM     12  C   UNL     1      -0.366   1.784  -0.909  0.00  0.00    +0.043 C 
ATOM     13  C   UNL     1       0.850   2.475  -1.541  0.00  0.00    +0.005 C 
ATOM     14  C   UNL     1       1.377   1.597  -2.679  0.00  0.00    +0.005 C 
ATOM     15  C   UNL     1       2.021   0.335  -2.105  0.00  0.00    +0.037 C 
ENDBRANCH   1   2
BRANCH   1  17
ATOM     16  N   UNL     1       3.391  -6.604  -2.787  0.00  0.00    -0.206 N 
ATOM     17  C   UNL     1       2.618  -5.635  -2.257  0.00  0.00    +0.252 C 
ATOM     18  O   UNL     1       1.560  -5.351  -2.778  0.00  0.00    -0.272 OA
ATOM     19  H   UNL     1       4.350  -6.862  -2.315  0.00  0.00    +0.177 HD
BRANCH  16  21
ATOM     20  C   UNL     1       3.656  -8.294  -4.380  0.00  0.00    +0.138 C 
ATOM     21  N   UNL     1       2.972  -7.284  -3.938  0.00  0.00    -0.188 NA
BRANCH  20  27
ATOM     22  C   UNL     1       5.494  -9.926  -3.991  0.00  0.00    +0.013 A 
ATOM     23  C   UNL     1       6.338 -10.606  -3.140  0.00  0.00    +0.046 A 
ATOM     24  C   UNL     1       6.253 -10.405  -1.768  0.00  0.00    +0.117 A 
ATOM     25  C   UNL     1       5.320  -9.517  -1.248  0.00  0.00    +0.046 A 
ATOM     26  C   UNL     1       4.476  -8.829  -2.092  0.00  0.00    +0.013 A 
ATOM     27  C   UNL     1       4.558  -9.027  -3.473  0.00  0.00    -0.005 A 
BRANCH  24  28
ATOM     28  O   UNL     1       7.084 -11.081  -0.932  0.00  0.00    -0.507 OA
ATOM     29  H   UNL     1       7.018 -10.924   0.154  0.00  0.00    +0.292 HD
ENDBRANCH  24  28
ENDBRANCH  20  27
ENDBRANCH  16  21
ENDBRANCH   1  17
TORSDOF 5
