REMARK  Name = ZINC04769189
REMARK  8 active torsions:
REMARK  status: ('A' for Active; 'I' for Inactive)
REMARK    1  A    between atoms: C_4  and  C_7
REMARK    2  A    between atoms: C_7  and  S_8
REMARK    3  A    between atoms: S_8  and  C_9
REMARK    4  A    between atoms: N_16  and  C1*_19
REMARK    5  A    between atoms: C2*_21  and  O2*_31
REMARK    6  A    between atoms: C3*_23  and  O3*_30
REMARK    7  A    between atoms: C4*_25  and  C5*_28
REMARK    8  A    between atoms: C5*_28  and  O5*_29
REMARK                            x       y       z     vdW  Elec       q    Type
REMARK                         _______ _______ _______ _____ _____    ______ ____
ROOT
ATOM      1  C   UNL     1       1.836   3.047  -0.007  0.00  0.00    +0.130 A 
ATOM      2  C   UNL     1       1.256   1.765  -0.004  0.00  0.00    +0.140 A 
ATOM      3  C   UNL     1       2.109   0.650  -0.020  0.00  0.00    +0.169 A 
ATOM      4  N   UNL     1       3.425   0.840  -0.038  0.00  0.00    -0.195 NA
ATOM      5  C   UNL     1       3.929   2.063  -0.041  0.00  0.00    +0.216 A 
ATOM      6  N   UNL     1       3.161   3.145  -0.025  0.00  0.00    -0.206 NA
ATOM      7  N   UNL     1       5.305   2.219  -0.059  0.00  0.00    -0.327 N 
ATOM      8  N   UNL     1       1.291  -0.452  -0.013  0.00  0.00    -0.285 N 
ATOM      9  C   UNL     1       0.002  -0.004   0.007  0.00  0.00    +0.203 A 
ATOM     10  N   UNL     1      -0.015   1.297   0.013  0.00  0.00    -0.231 NA
ATOM     11  H   UNL     1       5.881   1.439  -0.070  0.00  0.00    +0.145 HD
ATOM     12  H   UNL     1       5.692   3.109  -0.061  0.00  0.00    +0.145 HD
ENDROOT
BRANCH   8  13
ATOM     13  C1* UNL     1       1.722  -1.852  -0.024  0.00  0.00    +0.253 C 
ATOM     14  C2* UNL     1       2.135  -2.299   1.396  0.00  0.00    +0.195 C 
ATOM     15  C3* UNL     1       0.859  -2.958   1.968  0.00  0.00    +0.178 C 
ATOM     16  C4* UNL     1      -0.173  -2.830   0.825  0.00  0.00    +0.177 C 
ATOM     17  O4* UNL     1       0.619  -2.715  -0.377  0.00  0.00    -0.346 OA
BRANCH  15  18
ATOM     18  O3* UNL     1       1.101  -4.332   2.277  0.00  0.00    -0.386 OA
ATOM     19  H3* UNL     1       0.333  -4.794   2.640  0.00  0.00    +0.210 HD
ENDBRANCH  15  18
BRANCH  14  20
ATOM     20  O2* UNL     1       2.512  -1.170   2.187  0.00  0.00    -0.385 OA
ATOM     21  H2* UNL     1       2.781  -1.393   3.088  0.00  0.00    +0.210 HD
ENDBRANCH  14  20
BRANCH  16  22
ATOM     22  C5* UNL     1      -1.056  -4.079   0.764  0.00  0.00    +0.190 C 
BRANCH  22  23
ATOM     23  O5* UNL     1      -2.076  -3.893  -0.220  0.00  0.00    -0.392 OA
ATOM     24  H5* UNL     1      -2.674  -4.647  -0.314  0.00  0.00    +0.210 HD
ENDBRANCH  22  23
ENDBRANCH  16  22
ENDBRANCH   8  13
BRANCH   1  25
ATOM     25  S   UNL     1       0.827   4.491   0.013  0.00  0.00    -0.099 S 
BRANCH  25  26
ATOM     26  C   UNL     1       2.107   5.770  -0.001  0.00  0.00    +0.111 C 
BRANCH  26  30
ATOM     27  C   UNL     1       0.270   9.626   0.039  0.00  0.00    +0.000 A 
ATOM     28  C   UNL     1       0.585   8.998   1.229  0.00  0.00    +0.000 A 
ATOM     29  C   UNL     1       1.179   7.750   1.216  0.00  0.00    +0.004 A 
ATOM     30  C   UNL     1       1.459   7.130   0.013  0.00  0.00    -0.037 A 
ATOM     31  C   UNL     1       1.150   7.761  -1.178  0.00  0.00    +0.004 A 
ATOM     32  C   UNL     1       0.550   9.007  -1.165  0.00  0.00    +0.000 A 
ENDBRANCH  26  30
ENDBRANCH  25  26
ENDBRANCH   1  25
TORSDOF 8
