REMARK  Name = ZINC36597379
REMARK  16 active torsions:
REMARK  status: ('A' for Active; 'I' for Inactive)
REMARK    1  A    between atoms: C_1  and  C_2
REMARK    2  A    between atoms: C_5  and  C_7
REMARK    3  A    between atoms: C_7  and  N_8
REMARK    4  A    between atoms: N_8  and  C_9
REMARK    5  A    between atoms: C_9  and  C_11
REMARK    6  A    between atoms: C_9  and  C_18
REMARK    7  A    between atoms: N_20  and  C_21
REMARK    8  A    between atoms: C_21  and  C_22
REMARK    9  A    between atoms: C_21  and  C_23
REMARK   10  A    between atoms: C_21  and  C_24
REMARK   11  A    between atoms: C_24  and  C_25
REMARK   12  A    between atoms: C_25  and  C_26
REMARK   13  A    between atoms: C_25  and  C_27
REMARK   14  A    between atoms: C_25  and  C_28
REMARK   15  A    between atoms: C_29  and  C_31
REMARK   16  A    between atoms: C_34  and  O_37
REMARK                            x       y       z     vdW  Elec       q    Type
REMARK                         _______ _______ _______ _____ _____    ______ ____
ROOT
ATOM      1  C   UNL     1       2.348  -3.214  -2.379  0.00  0.00    +0.193 C 
ENDROOT
BRANCH   1   2
ATOM      2  C   UNL     1       3.555  -3.998  -1.934  0.00  0.00    -0.018 A 
ATOM      3  C   UNL     1       3.903  -4.030  -0.596  0.00  0.00    +0.007 A 
ATOM      4  C   UNL     1       5.010  -4.749  -0.187  0.00  0.00    +0.020 A 
ATOM      5  C   UNL     1       5.771  -5.436  -1.116  0.00  0.00    +0.041 A 
ATOM      6  C   UNL     1       5.422  -5.404  -2.455  0.00  0.00    +0.020 A 
ATOM      7  C   UNL     1       4.311  -4.689  -2.862  0.00  0.00    +0.007 A 
ATOM      8 CL   UNL     1       7.162  -6.339  -0.603  0.00  0.00    -0.084 Cl
ENDBRANCH   1   2
BRANCH   1   9
ATOM      9  C   UNL     1       2.784  -1.862  -2.882  0.00  0.00    +0.239 C 
ATOM     10  O   UNL     1       2.394  -0.855  -2.331  0.00  0.00    -0.273 OA
ATOM     11  N   UNL     1       3.609  -1.772  -3.945  0.00  0.00    -0.308 N 
ATOM     12  H   UNL     1       3.921  -2.578  -4.386  0.00  0.00    +0.149 HD
BRANCH  11  13
ATOM     13  C   UNL     1       4.033  -0.458  -4.434  0.00  0.00    +0.030 C 
ATOM     14  C   UNL     1       2.853   0.238  -5.115  0.00  0.00    +0.031 C 
ATOM     15  C   UNL     1       4.516   0.392  -3.257  0.00  0.00    +0.031 C 
BRANCH  13  16
ATOM     16  C   UNL     1       5.173  -0.631  -5.439  0.00  0.00    +0.031 C 
BRANCH  16  17
ATOM     17  C   UNL     1       6.144  -1.698  -4.930  0.00  0.00    -0.036 C 
ATOM     18  C   UNL     1       5.454  -3.064  -4.945  0.00  0.00    +0.010 C 
ATOM     19  C   UNL     1       7.377  -1.740  -5.836  0.00  0.00    +0.010 C 
ATOM     20  C   UNL     1       6.572  -1.358  -3.501  0.00  0.00    +0.010 C 
ENDBRANCH  16  17
ENDBRANCH  13  16
ENDBRANCH  11  13
ENDBRANCH   1   9
BRANCH   1  21
ATOM     21  N   UNL     1       1.433  -3.042  -1.248  0.00  0.00    -0.275 N 
ATOM     22  C   UNL     1       0.803  -4.111  -0.722  0.00  0.00    +0.248 C 
ATOM     23  O   UNL     1       0.090  -3.978   0.253  0.00  0.00    -0.270 OA
BRANCH  22  24
ATOM     24  C   UNL     1       0.980  -5.445  -1.331  0.00  0.00    +0.037 A 
ATOM     25  C   UNL     1       1.862  -5.615  -2.401  0.00  0.00    +0.016 A 
ATOM     26  C   UNL     1       2.024  -6.861  -2.965  0.00  0.00    +0.046 A 
ATOM     27  C   UNL     1       1.312  -7.947  -2.472  0.00  0.00    +0.117 A 
ATOM     28  C   UNL     1       0.433  -7.782  -1.408  0.00  0.00    +0.046 A 
ATOM     29  C   UNL     1       0.269  -6.541  -0.834  0.00  0.00    +0.016 A 
BRANCH  27  30
ATOM     30  O   UNL     1       1.474  -9.173  -3.032  0.00  0.00    -0.507 OA
ATOM     31  H   UNL     1       2.175  -9.701  -2.627  0.00  0.00    +0.292 HD
ENDBRANCH  27  30
ENDBRANCH  22  24
BRANCH  21  32
ATOM     32  C   UNL     1       1.201  -1.708  -0.689  0.00  0.00    +0.183 C 
BRANCH  32  37
ATOM     33  C   UNL     1      -1.242   1.189  -4.017  0.00  0.00    +0.086 C 
ATOM     34  C   UNL     1      -0.980   0.226  -2.889  0.00  0.00    +0.102 A 
ATOM     35  C   UNL     1      -1.917  -0.380  -2.137  0.00  0.00    +0.045 A 
ATOM     36  C   UNL     1      -1.232  -1.192  -1.205  0.00  0.00    +0.046 A 
ATOM     37  C   UNL     1       0.083  -1.034  -1.442  0.00  0.00    +0.122 A 
ATOM     38  O   UNL     1       0.230  -0.179  -2.467  0.00  0.00    -0.463 OA
ENDBRANCH  32  37
ENDBRANCH  21  32
ENDBRANCH   1  21
TORSDOF 10
