REMARK  Name = ZINC28048508
REMARK  8 active torsions:
REMARK  status: ('A' for Active; 'I' for Inactive)
REMARK    1  A    between atoms: C_1  and  C_2
REMARK    2  A    between atoms: C_5  and  N_26
REMARK    3  A    between atoms: C_6  and  C_8
REMARK    4  A    between atoms: C_8  and  C_20
REMARK    5  A    between atoms: N_9  and  N_10
REMARK    6  A    between atoms: N_10  and  C_11
REMARK    7  A    between atoms: C_11  and  N_13
REMARK    8  A    between atoms: N_13  and  C_14
REMARK                            x       y       z     vdW  Elec       q    Type
REMARK                         _______ _______ _______ _____ _____    ______ ____
ROOT
ATOM      1  C   UNL     1      -2.579   3.985  -0.076  0.00  0.00    +0.098 C 
ATOM      2  N   UNL     1      -3.639   3.243  -0.262  0.00  0.00    -0.180 NA
ENDROOT
BRANCH   1   8
ATOM      3  C   UNL     1       1.314   0.904  -0.577  0.00  0.00    +0.044 C 
ATOM      4  C   UNL     1       0.533   1.903   0.237  0.00  0.00    -0.050 A 
ATOM      5  C   UNL     1       0.974   2.259   1.501  0.00  0.00    +0.005 A 
ATOM      6  C   UNL     1       0.266   3.173   2.257  0.00  0.00    +0.023 A 
ATOM      7  C   UNL     1      -0.897   3.737   1.754  0.00  0.00    +0.034 A 
ATOM      8  C   UNL     1      -1.343   3.384   0.473  0.00  0.00    +0.023 A 
ATOM      9  C   UNL     1      -0.619   2.460  -0.280  0.00  0.00    +0.015 A 
BRANCH   7  10
ATOM     10  N   UNL     1      -1.617   4.656   2.517  0.00  0.00    -0.357 N 
ATOM     11  H   UNL     1      -2.539   5.102   2.116  0.00  0.00    +0.142 HD
ATOM     12  H   UNL     1      -1.262   4.934   3.520  0.00  0.00    +0.142 HD
ENDBRANCH   7  10
ENDBRANCH   1   8
BRANCH   1  13
ATOM     13  C   UNL     1      -2.614   5.425  -0.416  0.00  0.00    +0.002 A 
ATOM     14  C   UNL     1      -1.448   6.188  -0.358  0.00  0.00    +0.010 A 
ATOM     15  C   UNL     1      -1.486   7.528  -0.682  0.00  0.00    +0.001 A 
ATOM     16  C   UNL     1      -2.681   8.119  -1.052  0.00  0.00    +0.000 A 
ATOM     17  C   UNL     1      -3.843   7.370  -1.105  0.00  0.00    +0.001 A 
ATOM     18  C   UNL     1      -3.816   6.027  -0.790  0.00  0.00    +0.010 A 
ENDBRANCH   1  13
BRANCH   2  19
ATOM     19  N   UNL     1      -3.644   1.909   0.167  0.00  0.00    -0.218 N 
ATOM     20  H   UNL     1      -2.733   1.464   0.593  0.00  0.00    +0.176 HD
BRANCH  19  21
ATOM     21  C   UNL     1      -4.766   1.171   0.058  0.00  0.00    +0.154 C 
ATOM     22  S   UNL     1      -4.773  -0.459   0.582  0.00  0.00    -0.017 S 
BRANCH  21  23
ATOM     23  N   UNL     1      -5.883   1.716  -0.464  0.00  0.00    -0.296 N 
ATOM     24  H   UNL     1      -5.855   2.732  -0.883  0.00  0.00    +0.154 HD
BRANCH  23  25
ATOM     25  C   UNL     1      -7.078   0.989  -0.471  0.00  0.00    +0.033 A 
ATOM     26  C   UNL     1      -7.899   1.011  -1.591  0.00  0.00    +0.023 A 
ATOM     27  C   UNL     1      -9.076   0.288  -1.597  0.00  0.00    +0.002 A 
ATOM     28  C   UNL     1      -9.442  -0.449  -0.486  0.00  0.00    +0.000 A 
ATOM     29  C   UNL     1      -8.630  -0.469   0.633  0.00  0.00    +0.002 A 
ATOM     30  C   UNL     1      -7.449   0.248   0.644  0.00  0.00    +0.023 A 
ENDBRANCH  23  25
ENDBRANCH  21  23
ENDBRANCH  19  21
ENDBRANCH   2  19
TORSDOF 7
