REMARK  Name = ZINC37844203
REMARK  4 active torsions:
REMARK  status: ('A' for Active; 'I' for Inactive)
REMARK    1  A    between atoms: C_3  and  N_11
REMARK    2  A    between atoms: C_4  and  N_8
REMARK    3  A    between atoms: C_6  and  O_7
REMARK    4  A    between atoms: C_12  and  C_14
REMARK                            x       y       z     vdW  Elec       q    Type
REMARK                         _______ _______ _______ _____ _____    ______ ____
ROOT
ATOM      1  N   UNL     1       3.427   2.040  -0.038  0.00  0.00    -0.280 N 
ATOM      2  C   UNL     1       3.350   3.379  -0.173  0.00  0.00    +0.249 C 
ATOM      3  O   UNL     1       2.265   3.928  -0.186  0.00  0.00    -0.270 OA
ATOM      4  H   UNL     1       4.292   1.611   0.054  0.00  0.00    +0.155 HD
ENDROOT
BRANCH   2   5
ATOM      5  C   UNL     1       4.584   4.179  -0.305  0.00  0.00    +0.051 A 
ATOM      6  C   UNL     1       5.832   3.551  -0.295  0.00  0.00    +0.017 A 
ATOM      7  C   UNL     1       6.980   4.303  -0.418  0.00  0.00    +0.039 A 
ATOM      8  C   UNL     1       6.899   5.681  -0.551  0.00  0.00    +0.124 A 
ATOM      9  C   UNL     1       5.664   6.311  -0.561  0.00  0.00    +0.054 A 
ATOM     10  C   UNL     1       4.508   5.568  -0.445  0.00  0.00    +0.033 A 
ATOM     11 BR   UNL     1       2.823   6.427  -0.466  0.00  0.00    -0.049 Br
ATOM     12  F   UNL     1       8.028   6.413  -0.671  0.00  0.00    -0.205 F 
ENDBRANCH   2   5
BRANCH   1  15
ATOM     13  C   UNL     1      -0.040   0.977  -0.654  0.00  0.00    +0.047 A 
ATOM     14  C   UNL     1       1.113   1.738  -0.661  0.00  0.00    +0.029 A 
ATOM     15  C   UNL     1       2.258   1.269  -0.032  0.00  0.00    +0.064 A 
ATOM     16  C   UNL     1       2.244   0.034   0.603  0.00  0.00    +0.151 A 
ATOM     17  C   UNL     1       1.091  -0.726   0.609  0.00  0.00    +0.080 A 
ATOM     18  C   UNL     1      -0.053  -0.256  -0.020  0.00  0.00    +0.119 A 
BRANCH  16  19
ATOM     19  N   UNL     1       3.464  -0.468   1.274  0.00  0.00    +0.058 N 
ATOM     20  O   UNL     1       3.482  -1.582   1.743  0.00  0.00    -0.126 OA
ATOM     21  O   UNL     1       4.444   0.236   1.352  0.00  0.00    -0.126 OA
ENDBRANCH  16  19
BRANCH  18  22
ATOM     22  O   UNL     1      -1.188  -1.005  -0.014  0.00  0.00    -0.507 OA
ATOM     23  H   UNL     1      -1.264  -1.611  -0.763  0.00  0.00    +0.292 HD
ENDBRANCH  18  22
ENDBRANCH   1  15
TORSDOF 4
