REMARK  Name = ZINC00725959
REMARK  7 active torsions:
REMARK  status: ('A' for Active; 'I' for Inactive)
REMARK    1  A    between atoms: C_1  and  C_2
REMARK    2  A    between atoms: C_2  and  O_3
REMARK    3  A    between atoms: O_3  and  C_4
REMARK    4  A    between atoms: C_13  and  C_14
REMARK    5  A    between atoms: N_15  and  N_16
REMARK    6  A    between atoms: C_17  and  C_19
REMARK    7  A    between atoms: C_21  and  C_27
REMARK                            x       y       z     vdW  Elec       q    Type
REMARK                         _______ _______ _______ _____ _____    ______ ____
ROOT
ATOM      1  N   UNL     1       3.800  -2.334  -0.048  0.00  0.00    -0.206 N 
ATOM      2  C   UNL     1       5.003  -2.943  -0.063  0.00  0.00    +0.245 C 
ATOM      3  O   UNL     1       6.019  -2.279  -0.070  0.00  0.00    -0.273 OA
ATOM      4  H   UNL     1       2.988  -2.864  -0.043  0.00  0.00    +0.177 HD
ENDROOT
BRANCH   2   5
ATOM      5  C   UNL     1       5.085  -4.447  -0.072  0.00  0.00    +0.171 C 
ATOM      6  C   UNL     1       6.560  -4.908  -0.136  0.00  0.00    +0.057 C 
ATOM      7  C   UNL     1       6.461  -6.159  -1.038  0.00  0.00    +0.113 C 
ATOM      8  N   UNL     1       5.261  -5.956  -1.858  0.00  0.00    -0.314 N 
ATOM      9  C   UNL     1       4.465  -5.004  -1.335  0.00  0.00    +0.226 C 
ATOM     10  O   UNL     1       3.406  -4.644  -1.806  0.00  0.00    -0.275 OA
ATOM     11  H   UNL     1       5.065  -6.445  -2.672  0.00  0.00    +0.149 HD
BRANCH   6  12
ATOM     12  C   UNL     1       7.072  -5.269   1.234  0.00  0.00    -0.042 A 
ATOM     13  C   UNL     1       6.458  -6.274   1.959  0.00  0.00    +0.004 A 
ATOM     14  C   UNL     1       6.930  -6.608   3.214  0.00  0.00    +0.000 A 
ATOM     15  C   UNL     1       8.011  -5.932   3.749  0.00  0.00    +0.000 A 
ATOM     16  C   UNL     1       8.622  -4.924   3.027  0.00  0.00    +0.000 A 
ATOM     17  C   UNL     1       8.152  -4.592   1.769  0.00  0.00    +0.004 A 
ENDBRANCH   6  12
ENDBRANCH   2   5
BRANCH   1  19
ATOM     18  C   UNL     1       2.564  -0.348  -0.025  0.00  0.00    +0.142 C 
ATOM     19  N   UNL     1       3.724  -0.935  -0.040  0.00  0.00    -0.188 NA
BRANCH  18  29
ATOM     20  C   UNL     1       3.642   1.897  -0.024  0.00  0.00    +0.130 A 
ATOM     21  C   UNL     1       3.558   3.288  -0.017  0.00  0.00    +0.047 A 
ATOM     22  C   UNL     1       2.361   3.934  -0.002  0.00  0.00    +0.012 A 
ATOM     23  C   UNL     1       1.155   3.212   0.008  0.00  0.00    -0.017 A 
ATOM     24  C   UNL     1      -0.087   3.869   0.024  0.00  0.00    +0.008 A 
ATOM     25  C   UNL     1      -1.236   3.138   0.032  0.00  0.00    +0.001 A 
ATOM     26  C   UNL     1      -1.200   1.745   0.017  0.00  0.00    +0.001 A 
ATOM     27  C   UNL     1      -0.013   1.076   0.008  0.00  0.00    +0.009 A 
ATOM     28  C   UNL     1       1.188   1.796   0.000  0.00  0.00    -0.006 A 
ATOM     29  C   UNL     1       2.483   1.120  -0.016  0.00  0.00    +0.044 A 
BRANCH  20  30
ATOM     30  O   UNL     1       4.858   1.294  -0.040  0.00  0.00    -0.492 OA
BRANCH  30  32
ATOM     31  C   UNL     1       7.275   1.295  -0.064  0.00  0.00    +0.048 C 
ATOM     32  C   UNL     1       6.004   2.148  -0.047  0.00  0.00    +0.226 C 
ENDBRANCH  30  32
ENDBRANCH  20  30
ENDBRANCH  18  29
ENDBRANCH   1  19
TORSDOF 6
