REMARK  Name = ZINC04129574
REMARK  6 active torsions:
REMARK  status: ('A' for Active; 'I' for Inactive)
REMARK    1  A    between atoms: C_3  and  C_7
REMARK    2  A    between atoms: C_9  and  S_13
REMARK    3  A    between atoms: S_13  and  C_14
REMARK    4  A    between atoms: C_14  and  C_15
REMARK    5  A    between atoms: N_17  and  C_18
REMARK    6  A    between atoms: C_19  and  C_27
REMARK                            x       y       z     vdW  Elec       q    Type
REMARK                         _______ _______ _______ _____ _____    ______ ____
ROOT
ATOM      1  C   UNL     1       9.134  -0.192  -0.110  0.00  0.00    +0.228 C 
ATOM      2  O   UNL     1      10.003   0.655  -0.112  0.00  0.00    -0.275 OA
ATOM      3  N   UNL     1       9.466  -1.498  -0.127  0.00  0.00    -0.278 N 
ATOM      4  H   UNL     1       8.771  -2.175  -0.125  0.00  0.00    +0.155 HD
ENDROOT
BRANCH   3   5
ATOM      5  C   UNL     1      10.802  -1.874  -0.146  0.00  0.00    +0.090 A 
ATOM      6  C   UNL     1      11.325  -3.157  -0.171  0.00  0.00    +0.084 A 
ATOM      7  C   UNL     1      12.771  -3.284  -0.189  0.00  0.00    -0.018 A 
ATOM      8  C   UNL     1      13.430  -2.105  -0.178  0.00  0.00    -0.004 A 
ATOM      9  S   UNL     1      12.155  -0.879  -0.153  0.00  0.00    -0.077 S 
ATOM     10  C   UNL     1      14.914  -1.903  -0.190  0.00  0.00    +0.043 C 
ATOM     11  C   UNL     1      15.584  -3.239   0.165  0.00  0.00    +0.005 C 
ATOM     12  C   UNL     1      14.955  -4.349  -0.681  0.00  0.00    +0.005 C 
ATOM     13  C   UNL     1      13.520  -4.608  -0.217  0.00  0.00    +0.037 C 
BRANCH   6  14
ATOM     14  C   UNL     1      10.474  -4.309  -0.178  0.00  0.00    +0.102 C 
ATOM     15  N   UNL     1       9.799  -5.223  -0.183  0.00  0.00    -0.191 NA
ENDBRANCH   6  14
ENDBRANCH   3   5
BRANCH   1  16
ATOM     16  C   UNL     1       7.684   0.217  -0.089  0.00  0.00    +0.173 C 
BRANCH  16  17
ATOM     17  S   UNL     1       7.566   2.027  -0.070  0.00  0.00    -0.077 S 
BRANCH  17  20
ATOM     18  C   UNL     1       3.683   2.033  -0.023  0.00  0.00    +0.184 A 
ATOM     19  N   UNL     1       4.882   1.432  -0.043  0.00  0.00    -0.201 NA
ATOM     20  C   UNL     1       5.832   2.341  -0.046  0.00  0.00    +0.185 A 
ATOM     21  N   UNL     1       5.246   3.559  -0.027  0.00  0.00    -0.253 N 
ATOM     22  H   UNL     1       5.694   4.419  -0.024  0.00  0.00    +0.191 HD
ATOM     23  N   UNL     1       3.860   3.334  -0.018  0.00  0.00    -0.152 NA
BRANCH  18  26
ATOM     24  C   UNL     1      -0.017   1.379   0.010  0.00  0.00    +0.020 A 
ATOM     25  C   UNL     1       1.182   2.072   0.002  0.00  0.00    +0.014 A 
ATOM     26  C   UNL     1       2.371   1.339  -0.013  0.00  0.00    +0.039 A 
ATOM     27  C   UNL     1       2.306  -0.052  -0.020  0.00  0.00    +0.122 A 
ATOM     28  N   UNL     1       1.142  -0.669  -0.013  0.00  0.00    -0.263 NA
ATOM     29  C   UNL     1       0.002  -0.004   0.002  0.00  0.00    +0.111 A 
ENDBRANCH  18  26
ENDBRANCH  17  20
ENDBRANCH  16  17
ENDBRANCH   1  16
TORSDOF 6
