REMARK  Name = ZINC20617022
REMARK  8 active torsions:
REMARK  status: ('A' for Active; 'I' for Inactive)
REMARK    1  A    between atoms: C_1  and  C_2
REMARK    2  A    between atoms: C_3  and  N_9
REMARK    3  A    between atoms: C_10  and  C_12
REMARK    4  A    between atoms: N_15  and  C_17
REMARK    5  A    between atoms: C_17  and  C_19
REMARK    6  A    between atoms: C_17  and  C_20
REMARK    7  A    between atoms: N_22  and  C_23
REMARK    8  A    between atoms: C_28  and  C_29
REMARK                            x       y       z     vdW  Elec       q    Type
REMARK                         _______ _______ _______ _____ _____    ______ ____
ROOT
ATOM      1  C   UNL     1       1.222   1.617  -0.082  0.00  0.00    +0.147 A 
ATOM      2  C   UNL     1       2.142   0.542  -0.115  0.00  0.00    +0.054 A 
ATOM      3  C   UNL     1       1.388  -0.581  -0.098  0.00  0.00    +0.110 A 
ATOM      4  N   UNL     1       0.095  -0.194  -0.057  0.00  0.00    -0.259 N 
ATOM      5  N   UNL     1       0.015   1.088  -0.048  0.00  0.00    -0.166 NA
ENDROOT
BRANCH   1   7
ATOM      6  N   UNL     1       0.564   3.973  -0.050  0.00  0.00    -0.280 N 
ATOM      7  C   UNL     1       1.551   3.057  -0.084  0.00  0.00    +0.268 C 
ATOM      8  O   UNL     1       2.712   3.414  -0.118  0.00  0.00    -0.268 OA
ATOM      9  H   UNL     1      -0.487   3.653  -0.112  0.00  0.00    +0.155 HD
BRANCH   6  12
ATOM     10  C   UNL     1      -1.312   5.870  -1.040  0.00  0.00    +0.047 C 
ATOM     11  C   UNL     1      -0.012   6.291  -0.406  0.00  0.00    -0.011 A 
ATOM     12  C   UNL     1       0.875   5.332   0.065  0.00  0.00    +0.038 A 
ATOM     13  C   UNL     1       2.075   5.724   0.645  0.00  0.00    +0.023 A 
ATOM     14  C   UNL     1       2.380   7.067   0.756  0.00  0.00    +0.003 A 
ATOM     15  C   UNL     1       1.493   8.020   0.293  0.00  0.00    +0.020 A 
ATOM     16  C   UNL     1       0.296   7.633  -0.285  0.00  0.00    +0.046 A 
ATOM     17 CL   UNL     1      -0.815   8.834  -0.867  0.00  0.00    -0.083 Cl
ENDBRANCH   6  12
ENDBRANCH   1   7
BRANCH   4  18
ATOM     18  C   UNL     1      -1.052  -1.105  -0.027  0.00  0.00    +0.190 C 
ATOM     19  C   UNL     1      -0.692  -2.352   0.784  0.00  0.00    +0.042 C 
BRANCH  18  20
ATOM     20  C   UNL     1      -1.411  -1.508  -1.434  0.00  0.00    +0.242 C 
ATOM     21  O   UNL     1      -0.772  -1.076  -2.370  0.00  0.00    -0.273 OA
ATOM     22  N   UNL     1      -2.442  -2.347  -1.653  0.00  0.00    -0.283 N 
ATOM     23  H   UNL     1      -3.071  -2.677  -0.812  0.00  0.00    +0.155 HD
BRANCH  22  24
ATOM     24  C   UNL     1      -2.714  -2.800  -2.949  0.00  0.00    +0.038 A 
ATOM     25  C   UNL     1      -2.504  -1.962  -4.037  0.00  0.00    +0.023 A 
ATOM     26  C   UNL     1      -2.772  -2.411  -5.315  0.00  0.00    +0.003 A 
ATOM     27  C   UNL     1      -3.249  -3.694  -5.513  0.00  0.00    +0.020 A 
ATOM     28  C   UNL     1      -3.459  -4.531  -4.432  0.00  0.00    +0.046 A 
ATOM     29  C   UNL     1      -3.188  -4.089  -3.150  0.00  0.00    -0.011 A 
ATOM     30  C   UNL     1      -3.411  -5.003  -1.973  0.00  0.00    +0.047 C 
ATOM     31 CL   UNL     1      -4.058  -6.141  -4.685  0.00  0.00    -0.083 Cl
ENDBRANCH  22  24
ENDBRANCH  18  20
ENDBRANCH   4  18
TORSDOF 5
