REMARK  Name = ZINC49032263
REMARK  3 active torsions:
REMARK  status: ('A' for Active; 'I' for Inactive)
REMARK    1  A    between atoms: C_1  and  C_2
REMARK    2  A    between atoms: C_4  and  C_26
REMARK    3  A    between atoms: C_11  and  C_14
REMARK                            x       y       z     vdW  Elec       q    Type
REMARK                         _______ _______ _______ _____ _____    ______ ____
ROOT
ATOM      1  C   UNL     1      -0.018   1.503   0.010  0.00  0.00    +0.066 C 
ATOM      2  C   UNL     1       0.002  -0.004   0.002  0.00  0.00    +0.044 A 
ATOM      3  C   UNL     1       0.006  -0.699  -1.197  0.00  0.00    +0.046 A 
ATOM      4  C   UNL     1       0.025  -2.084  -1.160  0.00  0.00    +0.044 A 
ATOM      5  N   UNL     1       0.040  -2.698   0.011  0.00  0.00    -0.219 NA
ATOM      6  C   UNL     1       0.035  -2.004   1.140  0.00  0.00    +0.221 A 
ATOM      7  N   UNL     1       0.022  -0.679   1.139  0.00  0.00    -0.219 NA
ATOM      8  N   UNL     1       0.050  -2.680   2.350  0.00  0.00    -0.263 N 
ATOM      9  C   UNL     1       0.046  -1.970   3.541  0.00  0.00    +0.165 A 
ATOM     10  N   UNL     1       0.063  -2.421   4.779  0.00  0.00    -0.220 NA
ATOM     11  C   UNL     1       0.056  -1.586   5.819  0.00  0.00    +0.135 A 
ATOM     12  C   UNL     1       0.029  -0.233   5.587  0.00  0.00    +0.081 A 
ATOM     13  S   UNL     1       0.024  -0.202   3.800  0.00  0.00    -0.060 S 
ATOM     14  C   UNL     1       0.030  -2.882  -2.439  0.00  0.00    +0.066 C 
ATOM     15  H   UNL     1       0.064  -3.650   2.364  0.00  0.00    +0.157 HD
ENDROOT
BRANCH  11  16
ATOM     16  C   UNL     1       0.075  -2.107   7.195  0.00  0.00    +0.269 C 
ATOM     17  O   UNL     1       0.067  -1.338   8.137  0.00  0.00    -0.268 OA
ATOM     18  N   UNL     1       0.101  -3.438   7.412  0.00  0.00    -0.259 N 
ATOM     19  C   UNL     1       0.118  -3.930   8.710  0.00  0.00    +0.165 A 
ATOM     20  N   UNL     1       0.108  -3.256   9.840  0.00  0.00    -0.229 NA
ATOM     21  C   UNL     1       0.128  -3.866  11.022  0.00  0.00    +0.054 A 
ATOM     22  C   UNL     1       0.161  -5.222  10.965  0.00  0.00    +0.014 A 
ATOM     23  S   UNL     1       0.151  -5.535   9.222  0.00  0.00    -0.057 S 
ATOM     24  C   UNL     1       0.191  -6.182  12.105  0.00  0.00    +0.044 C 
ATOM     25  C   UNL     1       0.551  -5.401  13.380  0.00  0.00    +0.006 C 
ATOM     26  C   UNL     1      -0.315  -4.139  13.447  0.00  0.00    +0.006 C 
ATOM     27  C   UNL     1       0.117  -3.148  12.364  0.00  0.00    +0.056 C 
ATOM     28  H   UNL     1       0.106  -4.051   6.660  0.00  0.00    +0.157 HD
ENDBRANCH  11  16
TORSDOF 1
