REMARK  Name = ZINC56056965
REMARK  7 active torsions:
REMARK  status: ('A' for Active; 'I' for Inactive)
REMARK    1  A    between atoms: C_1  and  C_2
REMARK    2  A    between atoms: C_3  and  C_25
REMARK    3  A    between atoms: C_4  and  C_10
REMARK    4  A    between atoms: C_13  and  N_16
REMARK    5  A    between atoms: C_19  and  C_21
REMARK    6  A    between atoms: C_25  and  O_27
REMARK    7  A    between atoms: O_27  and  C_28
REMARK                            x       y       z     vdW  Elec       q    Type
REMARK                         _______ _______ _______ _____ _____    ______ ____
ROOT
ATOM      1  C   UNL     1      -1.840  -2.689  -1.222  0.00  0.00    -0.022 A 
ATOM      2  C   UNL     1      -1.221  -2.675  -2.458  0.00  0.00    +0.008 A 
ATOM      3  C   UNL     1      -1.898  -3.123  -3.575  0.00  0.00    +0.028 A 
ATOM      4  C   UNL     1      -3.201  -3.589  -3.456  0.00  0.00    +0.065 A 
ATOM      5  C   UNL     1      -3.819  -3.602  -2.213  0.00  0.00    +0.028 A 
ATOM      6  C   UNL     1      -3.135  -3.157  -1.098  0.00  0.00    +0.008 A 
ENDROOT
BRANCH   1  10
ATOM      7  C   UNL     1      -0.018   1.503   0.010  0.00  0.00    +0.061 C 
ATOM      8  C   UNL     1       0.002  -0.004   0.002  0.00  0.00    +0.021 C 
ATOM      9  C   UNL     1      -1.165  -0.684   0.004  0.00  0.00    +0.078 C 
ATOM     10  C   UNL     1      -1.098  -2.198  -0.005  0.00  0.00    +0.143 C 
ATOM     11  N   UNL     1       0.242  -2.807  -0.014  0.00  0.00    -0.288 N 
ATOM     12  C   UNL     1       1.317  -1.993  -0.015  0.00  0.00    +0.304 C 
ATOM     13  O   UNL     1       2.428  -2.486  -0.023  0.00  0.00    -0.252 OA
ATOM     14  N   UNL     1       1.200  -0.659  -0.013  0.00  0.00    -0.273 N 
ATOM     15  H   UNL     1       0.350  -3.771  -0.020  0.00  0.00    +0.151 HD
ATOM     16  H   UNL     1       2.012  -0.129  -0.018  0.00  0.00    +0.156 HD
BRANCH   9  17
ATOM     17  C   UNL     1      -2.406  -0.006   0.014  0.00  0.00    +0.338 C 
ATOM     18  O   UNL     1      -2.435   1.210   0.021  0.00  0.00    -0.245 OA
BRANCH  17  19
ATOM     19  O   UNL     1      -3.558  -0.709   0.016  0.00  0.00    -0.465 OA
ATOM     20  C   UNL     1      -4.775   0.040   0.026  0.00  0.00    +0.280 C 
ENDBRANCH  17  19
ENDBRANCH   9  17
ENDBRANCH   1  10
BRANCH   4  21
ATOM     21  N   UNL     1      -3.891  -4.044  -4.588  0.00  0.00    -0.239 N 
ATOM     22  C   UNL     1      -5.158  -4.516  -4.612  0.00  0.00    +0.115 A 
ATOM     23  C   UNL     1      -5.449  -4.850  -5.890  0.00  0.00    +0.054 A 
ATOM     24  C   UNL     1      -4.324  -4.574  -6.675  0.00  0.00    +0.166 A 
ATOM     25  N   UNL     1      -3.391  -4.086  -5.896  0.00  0.00    -0.162 NA
BRANCH  24  26
ATOM     26  C   UNL     1      -4.207  -4.795  -8.161  0.00  0.00    +0.436 C 
ATOM     27  F   UNL     1      -4.622  -3.642  -8.837  0.00  0.00    -0.164 F 
ATOM     28  F   UNL     1      -2.876  -5.074  -8.488  0.00  0.00    -0.164 F 
ATOM     29  F   UNL     1      -5.016  -5.872  -8.537  0.00  0.00    -0.164 F 
ENDBRANCH  24  26
ENDBRANCH   4  21
TORSDOF 5
