REMARK  Name = ZINC50060931
REMARK  6 active torsions:
REMARK  status: ('A' for Active; 'I' for Inactive)
REMARK    1  A    between atoms: C_1  and  C_2
REMARK    2  A    between atoms: C_2  and  C_4
REMARK    3  A    between atoms: C_2  and  N_12
REMARK    4  A    between atoms: N_15  and  C_16
REMARK    5  A    between atoms: N_22  and  C_27
REMARK    6  A    between atoms: N_25  and  C_26
REMARK                            x       y       z     vdW  Elec       q    Type
REMARK                         _______ _______ _______ _____ _____    ______ ____
ROOT
ATOM      1  N   UNL     1      -1.427  -0.356   0.016  0.00  0.00    -0.293 N 
ATOM      2  C   UNL     1      -2.097  -0.500   1.176  0.00  0.00    +0.304 C 
ATOM      3  O   UNL     1      -1.624  -0.069   2.210  0.00  0.00    -0.252 OA
ATOM      4  N   UNL     1      -3.293  -1.122   1.190  0.00  0.00    -0.269 N 
ATOM      5  H   UNL     1      -1.804  -0.700  -0.809  0.00  0.00    +0.151 HD
ATOM      6  H   UNL     1      -3.707  -1.397   0.357  0.00  0.00    +0.156 HD
ENDROOT
BRANCH   4   7
ATOM      7  C   UNL     1      -3.939  -1.371   2.409  0.00  0.00    +0.037 A 
ATOM      8  C   UNL     1      -5.327  -1.346   2.476  0.00  0.00    +0.025 A 
ATOM      9  C   UNL     1      -5.969  -1.591   3.673  0.00  0.00    +0.030 A 
ATOM     10  C   UNL     1      -5.228  -1.863   4.813  0.00  0.00    +0.070 A 
ATOM     11  C   UNL     1      -3.833  -1.888   4.749  0.00  0.00    +0.071 A 
ATOM     12  C   UNL     1      -3.192  -1.647   3.544  0.00  0.00    +0.051 A 
ATOM     13  N   UNL     1      -3.376  -2.182   6.031  0.00  0.00    -0.295 N 
ATOM     14  C   UNL     1      -4.443  -2.330   6.839  0.00  0.00    +0.330 A 
ATOM     15  O   UNL     1      -4.392  -2.592   8.026  0.00  0.00    -0.246 OA
ATOM     16  N   UNL     1      -5.575  -2.143   6.134  0.00  0.00    -0.295 N 
ATOM     17  C   UNL     1      -6.938  -2.221   6.665  0.00  0.00    +0.154 C 
ATOM     18  C   UNL     1      -1.973  -2.311   6.433  0.00  0.00    +0.154 C 
ENDBRANCH   4   7
BRANCH   1  20
ATOM     19  C   UNL     1      -0.339   1.832  -0.104  0.00  0.00    +0.033 C 
ATOM     20  C   UNL     1      -0.127   0.320   0.001  0.00  0.00    +0.102 C 
BRANCH  20  21
ATOM     21  C   UNL     1       0.674  -0.158  -1.183  0.00  0.00    -0.026 A 
ATOM     22  C   UNL     1       0.052  -0.359  -2.402  0.00  0.00    +0.008 A 
ATOM     23  C   UNL     1       0.785  -0.797  -3.489  0.00  0.00    +0.040 A 
ATOM     24  C   UNL     1       2.143  -1.035  -3.357  0.00  0.00    +0.142 A 
ATOM     25  C   UNL     1       2.765  -0.833  -2.136  0.00  0.00    +0.076 A 
ATOM     26  C   UNL     1       2.030  -0.390  -1.051  0.00  0.00    +0.028 A 
ATOM     27 CL   UNL     1       4.467  -1.130  -1.969  0.00  0.00    -0.081 Cl
ATOM     28  F   UNL     1       2.860  -1.463  -4.419  0.00  0.00    -0.204 F 
ENDBRANCH  20  21
ENDBRANCH   1  20
TORSDOF 3
