REMARK  Name = ZINC36029674
REMARK  10 active torsions:
REMARK  status: ('A' for Active; 'I' for Inactive)
REMARK    1  A    between atoms: C_1  and  C_2
REMARK    2  A    between atoms: C_2  and  C_3
REMARK    3  A    between atoms: C_3  and  C_5
REMARK    4  A    between atoms: C_3  and  C_6
REMARK    5  A    between atoms: N_10  and  C_27
REMARK    6  A    between atoms: C_18  and  C_20
REMARK    7  A    between atoms: C_27  and  C_29
REMARK    8  A    between atoms: C_27  and  C_30
REMARK    9  A    between atoms: C_30  and  C_31
REMARK   10  A    between atoms: C_31  and  C_32
REMARK                            x       y       z     vdW  Elec       q    Type
REMARK                         _______ _______ _______ _____ _____    ______ ____
ROOT
ATOM      1  C   UNL     1       0.528  -2.119   1.378  0.00  0.00    +0.022 C 
ATOM      2  C   UNL     1       1.174  -2.847   0.219  0.00  0.00    +0.201 C 
ATOM      3  O   UNL     1       0.869  -2.731  -0.949  0.00  0.00    -0.277 OA
ATOM      4  N   UNL     1       2.147  -3.647   0.704  0.00  0.00    -0.311 N 
ATOM      5  C   UNL     1       2.207  -3.515   2.162  0.00  0.00    +0.006 C 
ATOM      6  N   UNL     1       1.485  -2.268   2.501  0.00  0.00    +0.401 N 
ATOM      7  C   UNL     1       3.659  -3.414   2.625  0.00  0.00    +0.025 C 
ATOM      8  C   UNL     1       4.406  -4.694   2.237  0.00  0.00    +0.108 C 
ATOM      9  N   UNL     1       3.672  -5.850   2.771  0.00  0.00    -0.298 N 
ATOM     10  C   UNL     1       2.247  -5.995   2.443  0.00  0.00    +0.108 C 
ATOM     11  C   UNL     1       1.518  -4.704   2.829  0.00  0.00    +0.025 C 
ATOM     12  C   UNL     1       4.294  -6.760   3.546  0.00  0.00    +0.247 C 
ATOM     13  O   UNL     1       5.438  -6.569   3.908  0.00  0.00    -0.270 OA
ATOM     14  H   UNL     1       2.122  -1.486   2.533  0.00  0.00    -0.082 HD
ATOM     15  H   UNL     1       0.994  -2.365   3.377  0.00  0.00    -0.082 HD
ENDROOT
BRANCH  12  16
ATOM     16  C   UNL     1       3.584  -7.989   3.957  0.00  0.00    +0.037 A 
ATOM     17  C   UNL     1       2.696  -8.612   3.078  0.00  0.00    +0.014 A 
ATOM     18  C   UNL     1       2.037  -9.760   3.466  0.00  0.00    +0.021 A 
ATOM     19  C   UNL     1       2.255 -10.294   4.725  0.00  0.00    +0.041 A 
ATOM     20  C   UNL     1       3.135  -9.681   5.601  0.00  0.00    +0.021 A 
ATOM     21  C   UNL     1       3.804  -8.536   5.222  0.00  0.00    +0.014 A 
ATOM     22 CL   UNL     1       1.421 -11.739   5.207  0.00  0.00    -0.084 Cl
ENDBRANCH  12  16
BRANCH   1  23
ATOM     23  C   UNL     1       0.333  -0.641   1.037  0.00  0.00    -0.020 C 
ATOM     24  C   UNL     1       1.658  -0.051   0.550  0.00  0.00    +0.006 C 
BRANCH  23  26
ATOM     25  C   UNL     1      -1.006   0.975  -0.319  0.00  0.00    +0.004 C 
ATOM     26  C   UNL     1      -0.720  -0.507  -0.065  0.00  0.00    -0.001 C 
ENDBRANCH  23  26
ENDBRANCH   1  23
BRANCH   4  27
ATOM     27  C   UNL     1       3.010  -4.513  -0.103  0.00  0.00    +0.072 C 
ATOM     28  C   UNL     1       2.158  -5.279  -1.117  0.00  0.00    +0.028 C 
BRANCH  27  29
ATOM     29  C   UNL     1       4.041  -3.659  -0.844  0.00  0.00    +0.027 C 
BRANCH  29  30
ATOM     30  C   UNL     1       4.972  -2.990   0.169  0.00  0.00    +0.037 C 
BRANCH  30  31
ATOM     31  C   UNL     1       5.987  -2.149  -0.560  0.00  0.00    -0.047 A 
ATOM     32  C   UNL     1       7.188  -2.705  -0.958  0.00  0.00    +0.003 A 
ATOM     33  C   UNL     1       8.120  -1.934  -1.627  0.00  0.00    +0.000 A 
ATOM     34  C   UNL     1       7.849  -0.606  -1.900  0.00  0.00    +0.000 A 
ATOM     35  C   UNL     1       6.647  -0.050  -1.504  0.00  0.00    +0.000 A 
ATOM     36  C   UNL     1       5.714  -0.823  -0.838  0.00  0.00    +0.003 A 
ENDBRANCH  30  31
ENDBRANCH  29  30
ENDBRANCH  27  29
ENDBRANCH   4  27
TORSDOF 7
