REMARK  Name = ZINC00963239
REMARK  10 active torsions:
REMARK  status: ('A' for Active; 'I' for Inactive)
REMARK    1  A    between atoms: C_1  and  C_2
REMARK    2  A    between atoms: C_5  and  C_8
REMARK    3  A    between atoms: C_11  and  S_21
REMARK    4  A    between atoms: N_12  and  C_13
REMARK    5  A    between atoms: C_16  and  O_19
REMARK    6  A    between atoms: O_19  and  C_20
REMARK    7  A    between atoms: S_21  and  C_22
REMARK    8  A    between atoms: C_22  and  C_23
REMARK    9  A    between atoms: C_29  and  C_32
REMARK   10  A    between atoms: C_33  and  C_35
REMARK                            x       y       z     vdW  Elec       q    Type
REMARK                         _______ _______ _______ _____ _____    ______ ____
ROOT
ATOM      1  C   UNL     1      -0.561  -4.207  -0.430  0.00  0.00    +0.169 A 
ATOM      2  N   UNL     1      -0.618  -5.066  -1.421  0.00  0.00    -0.128 NA
ATOM      3  N   UNL     1      -0.460  -6.262  -0.977  0.00  0.00    -0.122 NA
ATOM      4  C   UNL     1      -0.290  -6.241   0.327  0.00  0.00    +0.197 A 
ATOM      5  N   UNL     1      -0.343  -4.933   0.721  0.00  0.00    -0.270 N 
ENDROOT
BRANCH   1  10
ATOM      6  C   UNL     1      -1.095   1.509  -0.822  0.00  0.00    +0.044 C 
ATOM      7  C   UNL     1      -0.955   0.012  -0.719  0.00  0.00    -0.050 A 
ATOM      8  C   UNL     1      -0.733  -0.739  -1.860  0.00  0.00    +0.004 A 
ATOM      9  C   UNL     1      -0.604  -2.110  -1.773  0.00  0.00    +0.012 A 
ATOM     10  C   UNL     1      -0.698  -2.739  -0.530  0.00  0.00    +0.020 A 
ATOM     11  C   UNL     1      -0.922  -1.976   0.617  0.00  0.00    +0.012 A 
ATOM     12  C   UNL     1      -1.043  -0.605   0.516  0.00  0.00    +0.004 A 
ENDBRANCH   1  10
BRANCH   5  13
ATOM     13  C   UNL     1      -0.207  -4.434   2.025  0.00  0.00    +0.051 A 
ATOM     14  C   UNL     1       0.870  -3.619   2.348  0.00  0.00    +0.030 A 
ATOM     15  C   UNL     1       1.004  -3.128   3.632  0.00  0.00    +0.047 A 
ATOM     16  C   UNL     1       0.063  -3.449   4.599  0.00  0.00    +0.120 A 
ATOM     17  C   UNL     1      -1.013  -4.264   4.277  0.00  0.00    +0.047 A 
ATOM     18  C   UNL     1      -1.151  -4.750   2.992  0.00  0.00    +0.030 A 
BRANCH  16  19
ATOM     19  O   UNL     1       0.195  -2.966   5.863  0.00  0.00    -0.495 OA
ATOM     20  C   UNL     1      -0.811  -3.337   6.808  0.00  0.00    +0.277 C 
ENDBRANCH  16  19
ENDBRANCH   5  13
BRANCH   4  21
ATOM     21  S   UNL     1      -0.036  -7.638   1.370  0.00  0.00    -0.076 S 
BRANCH  21  22
ATOM     22  C   UNL     1      -0.066  -9.049   0.230  0.00  0.00    +0.173 C 
BRANCH  22  23
ATOM     23  C   UNL     1       0.143 -10.325   1.004  0.00  0.00    +0.226 C 
ATOM     24  O   UNL     1       0.297 -10.287   2.206  0.00  0.00    -0.275 OA
ATOM     25  N   UNL     1       0.159 -11.509   0.360  0.00  0.00    -0.298 N 
ATOM     26  C   UNL     1      -0.020 -11.570  -1.098  0.00  0.00    +0.127 C 
ATOM     27  C   UNL     1      -1.189 -12.513  -1.409  0.00  0.00    +0.127 C 
ATOM     28  N   UNL     1      -0.992 -13.766  -0.666  0.00  0.00    -0.295 N 
ATOM     29  C   UNL     1      -0.813 -13.705   0.791  0.00  0.00    +0.090 C 
ATOM     30  C   UNL     1       0.361 -12.761   1.101  0.00  0.00    +0.130 C 
ATOM     31  C   UNL     1      -0.506 -15.103   1.330  0.00  0.00    +0.029 C 
ATOM     32  C   UNL     1      -0.976 -14.950  -1.310  0.00  0.00    +0.219 C 
ATOM     33  O   UNL     1      -0.714 -15.966  -0.704  0.00  0.00    -0.275 OA
BRANCH  32  34
ATOM     34  C   UNL     1      -1.284 -15.010  -2.784  0.00  0.00    +0.075 C 
ATOM     35  C   UNL     1      -2.729 -14.537  -3.042  0.00  0.00    +0.013 C 
ATOM     36  C   UNL     1      -3.232 -15.456  -4.184  0.00  0.00    +0.001 C 
ATOM     37  C   UNL     1      -2.600 -16.824  -3.824  0.00  0.00    +0.001 C 
ATOM     38  C   UNL     1      -1.201 -16.464  -3.281  0.00  0.00    +0.013 C 
ENDBRANCH  32  34
ENDBRANCH  22  23
ENDBRANCH  21  22
ENDBRANCH   4  21
TORSDOF 7
