REMARK  Name = ZINC20375730
REMARK  6 active torsions:
REMARK  status: ('A' for Active; 'I' for Inactive)
REMARK    1  A    between atoms: C_6  and  C_7
REMARK    2  A    between atoms: N_8  and  N_9
REMARK    3  A    between atoms: C_10  and  C_12
REMARK    4  A    between atoms: C_15  and  N_18
REMARK    5  A    between atoms: C_19  and  C_21
REMARK    6  A    between atoms: C_22  and  C_23
REMARK                            x       y       z     vdW  Elec       q    Type
REMARK                         _______ _______ _______ _____ _____    ______ ____
ROOT
ATOM      1  C   UNL     1       3.684   9.950  -0.255  0.00  0.00    +0.038 A 
ATOM      2  C   UNL     1       4.890   9.245  -0.278  0.00  0.00    +0.015 A 
ATOM      3  C   UNL     1       4.884   7.871  -0.194  0.00  0.00    +0.024 A 
ATOM      4  C   UNL     1       3.679   7.184  -0.087  0.00  0.00    +0.034 A 
ATOM      5  C   UNL     1       2.475   7.883  -0.069  0.00  0.00    +0.024 A 
ATOM      6  C   UNL     1       2.474   9.257  -0.147  0.00  0.00    +0.015 A 
ENDROOT
BRANCH   1   8
ATOM      7  N   UNL     1       2.522  12.102  -0.321  0.00  0.00    -0.203 N 
ATOM      8  C   UNL     1       3.686  11.423  -0.344  0.00  0.00    +0.263 C 
ATOM      9  O   UNL     1       4.739  12.025  -0.437  0.00  0.00    -0.268 OA
ATOM     10  H   UNL     1       1.570  11.557  -0.237  0.00  0.00    +0.178 HD
BRANCH   7  12
ATOM     11  C   UNL     1       1.403  14.153  -0.384  0.00  0.00    +0.138 C 
ATOM     12  N   UNL     1       2.525  13.500  -0.406  0.00  0.00    -0.187 NA
BRANCH  11  18
ATOM     13  C   UNL     1       2.614  16.320  -0.574  0.00  0.00    +0.010 A 
ATOM     14  C   UNL     1       2.609  17.696  -0.661  0.00  0.00    +0.016 A 
ATOM     15  C   UNL     1       1.411  18.390  -0.639  0.00  0.00    +0.018 A 
ATOM     16  C   UNL     1       0.211  17.708  -0.533  0.00  0.00    +0.016 A 
ATOM     17  C   UNL     1       0.201  16.332  -0.450  0.00  0.00    +0.010 A 
ATOM     18  C   UNL     1       1.406  15.625  -0.473  0.00  0.00    -0.005 A 
ATOM     19 BR   UNL     1       1.415  20.278  -0.752  0.00  0.00    -0.050 Br
ENDBRANCH  11  18
ENDBRANCH   7  12
ENDBRANCH   1   8
BRANCH   4  20
ATOM     20  N   UNL     1       3.676   5.794  -0.002  0.00  0.00    -0.282 N 
ATOM     21  C   UNL     1       2.738   5.165   0.734  0.00  0.00    +0.241 C 
ATOM     22  O   UNL     1       1.954   5.812   1.399  0.00  0.00    -0.270 OA
ATOM     23  H   UNL     1       4.440   5.209  -0.535  0.00  0.00    +0.155 HD
BRANCH  21  24
ATOM     24  C   UNL     1       2.663   3.691   0.731  0.00  0.00    +0.075 C 
ATOM     25  C   UNL     1       1.728   3.064   1.463  0.00  0.00    +0.101 C 
BRANCH  25  26
ATOM     26  C   UNL     1       1.653   1.591   1.460  0.00  0.00    +0.380 C 
ATOM     27  O   UNL     1       2.437   0.945   0.795  0.00  0.00    -0.241 OA
ATOM     28  O   UNL     1       0.715   0.963   2.196  0.00  0.00    -0.241 OA
ENDBRANCH  25  26
ENDBRANCH  21  24
ENDBRANCH   4  20
TORSDOF 6
