REMARK  Name = ZINC28356244
REMARK  6 active torsions:
REMARK  status: ('A' for Active; 'I' for Inactive)
REMARK    1  A    between atoms: C_1  and  C_2
REMARK    2  A    between atoms: C_5  and  N_8
REMARK    3  A    between atoms: C_9  and  C_19
REMARK    4  A    between atoms: C_14  and  C_17
REMARK    5  A    between atoms: C_22  and  C_24
REMARK    6  A    between atoms: C_27  and  N_31
REMARK                            x       y       z     vdW  Elec       q    Type
REMARK                         _______ _______ _______ _____ _____    ______ ____
ROOT
ATOM      1  N   UNL     1       3.583   2.123  -0.021  0.00  0.00    -0.267 N 
ATOM      2  C   UNL     1       3.582   3.586  -0.123  0.00  0.00    +0.234 C 
ATOM      3  N   UNL     1       4.574   4.014  -1.111  0.00  0.00    -0.286 N 
ATOM      4  C   UNL     1       5.693   3.291  -1.318  0.00  0.00    +0.258 C 
ATOM      5  O   UNL     1       6.533   3.676  -2.110  0.00  0.00    -0.269 OA
ATOM      6  C   UNL     1       5.892   2.039  -0.583  0.00  0.00    +0.142 C 
ATOM      7  C   UNL     1       4.786   1.467   0.073  0.00  0.00    +0.103 C 
ATOM      8  S   UNL     1       4.935  -0.038   0.977  0.00  0.00    -0.033 SA
ATOM      9  H   UNL     1       4.410   4.933  -1.693  0.00  0.00    +0.151 HD
ENDROOT
BRANCH   1  14
ATOM     10  C   UNL     1      -1.293  -0.774   0.010  0.00  0.00    +0.044 C 
ATOM     11  C   UNL     1       0.002  -0.004   0.002  0.00  0.00    -0.050 A 
ATOM     12  C   UNL     1       0.318   0.827   1.061  0.00  0.00    +0.005 A 
ATOM     13  C   UNL     1       1.504   1.534   1.056  0.00  0.00    +0.024 A 
ATOM     14  C   UNL     1       2.381   1.409  -0.013  0.00  0.00    +0.037 A 
ATOM     15  C   UNL     1       2.061   0.573  -1.075  0.00  0.00    +0.024 A 
ATOM     16  C   UNL     1       0.873  -0.132  -1.065  0.00  0.00    +0.005 A 
ENDBRANCH   1  14
BRANCH   2  17
ATOM     17  C   UNL     1       3.921   4.183   1.218  0.00  0.00    +0.144 A 
ATOM     18  C   UNL     1       4.553   5.355   1.420  0.00  0.00    +0.049 A 
ATOM     19  C   UNL     1       4.666   5.529   2.814  0.00  0.00    +0.050 A 
ATOM     20  C   UNL     1       4.090   4.442   3.392  0.00  0.00    +0.137 A 
ATOM     21  O   UNL     1       3.638   3.636   2.412  0.00  0.00    -0.456 OA
BRANCH  20  22
ATOM     22  C   UNL     1       3.976   4.190   4.844  0.00  0.00    +0.036 A 
ATOM     23  C   UNL     1       5.099   4.300   5.665  0.00  0.00    +0.015 A 
ATOM     24  C   UNL     1       4.984   4.069   7.020  0.00  0.00    +0.033 A 
ATOM     25  C   UNL     1       3.761   3.719   7.565  0.00  0.00    +0.128 A 
ATOM     26  C   UNL     1       2.644   3.603   6.757  0.00  0.00    +0.053 A 
ATOM     27  C   UNL     1       2.744   3.837   5.400  0.00  0.00    +0.054 A 
ATOM     28 CL   UNL     1       1.342   3.692   4.386  0.00  0.00    -0.083 Cl
BRANCH  25  29
ATOM     29  N   UNL     1       3.647   3.467   9.020  0.00  0.00    +0.056 N 
ATOM     30  O   UNL     1       2.572   3.159   9.502  0.00  0.00    -0.126 OA
ATOM     31  O   UNL     1       4.629   3.568   9.734  0.00  0.00    -0.126 OA
ENDBRANCH  25  29
ENDBRANCH  20  22
ENDBRANCH   2  17
BRANCH   6  32
ATOM     32  C   UNL     1       7.180   1.416  -0.529  0.00  0.00    +0.107 C 
ATOM     33  N   UNL     1       8.202   0.921  -0.486  0.00  0.00    -0.191 NA
ENDBRANCH   6  32
TORSDOF 5
