REMARK  Name = ZINC09823932
REMARK  7 active torsions:
REMARK  status: ('A' for Active; 'I' for Inactive)
REMARK    1  A    between atoms: C_10  and  C_12
REMARK    2  A    between atoms: C_12  and  C_13
REMARK    3  A    between atoms: N_15  and  C_16
REMARK    4  A    between atoms: C_16  and  C_17
REMARK    5  A    between atoms: C_17  and  N_18
REMARK    6  A    between atoms: N_25  and  C_28
REMARK    7  A    between atoms: C_28  and  C_29
REMARK                            x       y       z     vdW  Elec       q    Type
REMARK                         _______ _______ _______ _____ _____    ______ ____
ROOT
ATOM      1  C   UNL     1       1.130  -5.988  -3.091  0.00  0.00    +0.164 C 
ENDROOT
BRANCH   1   2
ATOM      2  N   UNL     1       1.115  -6.468  -4.475  0.00  0.00    -0.245 N 
ATOM      3  C   UNL     1       2.208  -6.733  -5.237  0.00  0.00    +0.165 A 
ATOM      4  C   UNL     1       1.732  -7.166  -6.484  0.00  0.00    +0.103 A 
ATOM      5  C   UNL     1       0.326  -7.144  -6.425  0.00  0.00    +0.150 A 
ATOM      6  N   UNL     1      -0.029  -6.738  -5.237  0.00  0.00    -0.177 NA
ATOM      7  C   UNL     1       2.711  -7.524  -7.510  0.00  0.00    +0.265 A 
ATOM      8  O   UNL     1       2.361  -7.908  -8.612  0.00  0.00    -0.267 OA
ATOM      9  N   UNL     1       4.022  -7.413  -7.189  0.00  0.00    -0.294 N 
ATOM     10  C   UNL     1       4.390  -6.985  -5.955  0.00  0.00    +0.204 A 
ATOM     11  N   UNL     1       3.533  -6.663  -5.031  0.00  0.00    -0.218 NA
BRANCH   9  12
ATOM     12  C   UNL     1       5.047  -7.758  -8.177  0.00  0.00    +0.161 C 
BRANCH  12  13
ATOM     13  C   UNL     1       5.397  -9.218  -8.049  0.00  0.00    -0.028 A 
ATOM     14  C   UNL     1       6.417  -9.612  -7.203  0.00  0.00    +0.007 A 
ATOM     15  C   UNL     1       6.735 -10.952  -7.082  0.00  0.00    +0.020 A 
ATOM     16  C   UNL     1       6.040 -11.897  -7.815  0.00  0.00    +0.041 A 
ATOM     17  C   UNL     1       5.023 -11.501  -8.666  0.00  0.00    +0.020 A 
ATOM     18  C   UNL     1       4.702 -10.162  -8.782  0.00  0.00    +0.007 A 
ATOM     19 CL   UNL     1       6.442 -13.579  -7.668  0.00  0.00    -0.084 Cl
ENDBRANCH  12  13
ENDBRANCH   9  12
ENDBRANCH   1   2
BRANCH   1  20
ATOM     20  C   UNL     1       1.136  -4.458  -3.083  0.00  0.00    +0.127 C 
BRANCH  20  23
ATOM     21  C   UNL     1       1.159  -2.654  -1.445  0.00  0.00    +0.220 C 
ATOM     22  O   UNL     1       1.154  -1.860  -2.362  0.00  0.00    -0.275 OA
ATOM     23  N   UNL     1       1.151  -3.977  -1.699  0.00  0.00    -0.313 N 
ATOM     24  H   UNL     1       1.156  -4.612  -0.965  0.00  0.00    +0.149 HD
BRANCH  21  25
ATOM     25  C   UNL     1       1.175  -2.159  -0.021  0.00  0.00    +0.170 C 
BRANCH  25  35
ATOM     26  C   UNL     1       2.610   4.103  -0.002  0.00  0.00    +0.001 A 
ATOM     27  C   UNL     1       3.764   3.333  -0.017  0.00  0.00    +0.004 A 
ATOM     28  C   UNL     1       3.693   1.957  -0.023  0.00  0.00    +0.047 A 
ATOM     29  C   UNL     1       2.454   1.327  -0.014  0.00  0.00    +0.139 A 
ATOM     30  C   UNL     1       1.286   2.108   0.001  0.00  0.00    +0.064 A 
ATOM     31  C   UNL     1       1.372   3.499   0.007  0.00  0.00    +0.015 A 
ATOM     32  C   UNL     1      -0.017   1.416   0.010  0.00  0.00    +0.193 A 
ATOM     33  O   UNL     1      -1.066   2.037   0.018  0.00  0.00    -0.287 OA
ATOM     34  C   UNL     1       0.002  -0.004   0.002  0.00  0.00    +0.093 A 
ATOM     35  C   UNL     1       1.181  -0.652  -0.013  0.00  0.00    +0.118 A 
ATOM     36  O   UNL     1       2.358  -0.018  -0.021  0.00  0.00    -0.459 OA
ENDBRANCH  25  35
ENDBRANCH  21  25
ENDBRANCH  20  23
ENDBRANCH   1  20
TORSDOF 7
