REMARK  Name = ZINC63806763
REMARK  8 active torsions:
REMARK  status: ('A' for Active; 'I' for Inactive)
REMARK    1  A    between atoms: C_1  and  C_2
REMARK    2  A    between atoms: C_5  and  C_19
REMARK    3  A    between atoms: C_6  and  C_18
REMARK    4  A    between atoms: N_7  and  C_8
REMARK    5  A    between atoms: C_19  and  C_21
REMARK    6  A    between atoms: C_21  and  N_22
REMARK    7  A    between atoms: C_25  and  C_30
REMARK    8  A    between atoms: C_30  and  C_31
REMARK                            x       y       z     vdW  Elec       q    Type
REMARK                         _______ _______ _______ _____ _____    ______ ____
ROOT
ATOM      1  C   UNL     1       2.759  -2.041  -2.892  0.00  0.00    +0.197 C 
ENDROOT
BRANCH   1   2
ATOM      2  N   UNL     1       3.880  -2.811  -3.435  0.00  0.00    -0.217 N 
ATOM      3  C   UNL     1       5.067  -2.276  -3.783  0.00  0.00    +0.244 C 
ATOM      4  O   UNL     1       5.396  -1.111  -3.707  0.00  0.00    -0.273 OA
ATOM      5  C   UNL     1       5.907  -3.433  -4.287  0.00  0.00    +0.165 C 
ATOM      6  N   UNL     1       5.011  -4.595  -4.153  0.00  0.00    -0.287 N 
ATOM      7  C   UNL     1       3.854  -4.132  -3.643  0.00  0.00    +0.310 C 
ATOM      8  O   UNL     1       2.893  -4.835  -3.402  0.00  0.00    -0.252 OA
ATOM      9  H   UNL     1       5.215  -5.514  -4.383  0.00  0.00    +0.151 HD
BRANCH   5  10
ATOM     10  C   UNL     1       7.156  -3.610  -3.422  0.00  0.00    +0.065 C 
BRANCH  10  11
ATOM     11  C   UNL     1       8.031  -4.683  -4.015  0.00  0.00    -0.039 C 
ATOM     12  C   UNL     1       9.081  -4.508  -4.850  0.00  0.00    -0.001 A 
ATOM     13  C   UNL     1       9.698  -3.311  -5.433  0.00  0.00    +0.010 A 
ATOM     14  C   UNL     1      10.763  -3.455  -6.253  0.00  0.00    +0.001 A 
ATOM     15  C   UNL     1      11.291  -4.717  -6.560  0.00  0.00    +0.002 A 
ATOM     16  C   UNL     1      10.778  -5.862  -6.063  0.00  0.00    +0.026 A 
ATOM     17  C   UNL     1       9.657  -5.828  -5.189  0.00  0.00    +0.043 A 
ATOM     18  N   UNL     1       8.989  -6.783  -4.588  0.00  0.00    -0.380 N 
ATOM     19  C   UNL     1       7.916  -6.175  -3.794  0.00  0.00    +0.144 C 
ATOM     20  H   UNL     1       9.176  -7.733  -4.655  0.00  0.00    +0.160 HD
ENDBRANCH  10  11
ENDBRANCH   5  10
ENDBRANCH   1   2
BRANCH   1  21
ATOM     21  C   UNL     1       2.863  -1.994  -1.389  0.00  0.00    +0.178 C 
ATOM     22  O   UNL     1       3.786  -2.550  -0.826  0.00  0.00    -0.291 OA
BRANCH  21  26
ATOM     23  C   UNL     1       0.059   1.560   0.108  0.00  0.00    +0.029 C 
ATOM     24  C   UNL     1       0.027   0.031   0.050  0.00  0.00    +0.080 C 
ATOM     25  C   UNL     1       0.766  -0.476  -1.204  0.00  0.00    +0.062 C 
ATOM     26  C   UNL     1       1.896  -1.309  -0.640  0.00  0.00    +0.015 C 
ATOM     27  C   UNL     1       1.814  -1.281   0.706  0.00  0.00    +0.015 C 
ATOM     28  N   UNL     1       0.778  -0.542   1.175  0.00  0.00    -0.300 N 
ATOM     29  C   UNL     1       2.782  -2.005   1.607  0.00  0.00    +0.061 C 
BRANCH  28  30
ATOM     30  C   UNL     1       0.469  -0.351   2.526  0.00  0.00    +0.038 A 
ATOM     31  C   UNL     1       1.333   0.369   3.341  0.00  0.00    +0.027 A 
ATOM     32  C   UNL     1       1.029   0.556   4.675  0.00  0.00    +0.051 A 
ATOM     33  C   UNL     1      -0.139   0.027   5.205  0.00  0.00    +0.162 A 
ATOM     34  C   UNL     1      -1.006  -0.693   4.391  0.00  0.00    +0.164 A 
ATOM     35  C   UNL     1      -0.703  -0.877   3.051  0.00  0.00    +0.072 A 
ATOM     36  O   UNL     1      -2.160  -1.213   4.892  0.00  0.00    -0.485 OA
ATOM     37  C   UNL     1      -2.252  -1.323   6.316  0.00  0.00    +0.270 C 
ATOM     38  C   UNL     1      -1.774  -0.002   6.933  0.00  0.00    +0.270 C 
ATOM     39  O   UNL     1      -0.419   0.219   6.524  0.00  0.00    -0.485 OA
ENDBRANCH  28  30
ENDBRANCH  21  26
ENDBRANCH   1  21
TORSDOF 6
