REMARK  Name = ZINC17120406
REMARK  5 active torsions:
REMARK  status: ('A' for Active; 'I' for Inactive)
REMARK    1  A    between atoms: C_1  and  C_2
REMARK    2  A    between atoms: C_2  and  C_15
REMARK    3  A    between atoms: N_3  and  N_4
REMARK    4  A    between atoms: N_8  and  C_13
REMARK    5  A    between atoms: N_11  and  C_12
REMARK                            x       y       z     vdW  Elec       q    Type
REMARK                         _______ _______ _______ _____ _____    ______ ____
ROOT
ATOM      1  N   UNL     1       1.290   1.400   2.458  0.00  0.00    -0.131 NA
ATOM      2  C   UNL     1       0.000   1.694   2.400  0.00  0.00    +0.162 A 
ATOM      3  C   UNL     1      -0.680   2.170   3.547  0.00  0.00    +0.086 A 
ATOM      4  C   UNL     1      -1.997   2.462   3.456  0.00  0.00    +0.116 A 
ATOM      5  N   UNL     1      -2.657   2.296   2.264  0.00  0.00    -0.287 N 
ATOM      6  C   UNL     1      -2.013   1.849   1.172  0.00  0.00    +0.331 A 
ATOM      7  O   UNL     1      -2.623   1.717   0.128  0.00  0.00    -0.246 OA
ATOM      8  N   UNL     1      -0.703   1.541   1.218  0.00  0.00    -0.280 N 
ATOM      9  C   UNL     1      -0.021   1.050   0.018  0.00  0.00    +0.155 C 
ATOM     10  C   UNL     1      -4.084   2.616   2.179  0.00  0.00    +0.155 C 
ATOM     11 CL   UNL     1      -2.854   3.048   4.848  0.00  0.00    -0.064 Cl
ENDROOT
BRANCH   1  14
ATOM     12  C   UNL     1       3.924   0.829   2.761  0.00  0.00    +0.068 C 
ATOM     13  C   UNL     1       3.200   0.786   1.441  0.00  0.00    +0.068 C 
ATOM     14  N   UNL     1       1.926   1.076   1.384  0.00  0.00    -0.152 NA
BRANCH  13  15
ATOM     15  C   UNL     1       3.925   0.417   0.216  0.00  0.00    -0.002 A 
ATOM     16  C   UNL     1       5.289   0.111   0.272  0.00  0.00    +0.011 A 
ATOM     17  C   UNL     1       5.961  -0.240  -0.879  0.00  0.00    +0.020 A 
ATOM     18  C   UNL     1       5.292  -0.278  -2.092  0.00  0.00    +0.041 A 
ATOM     19  C   UNL     1       3.943   0.029  -2.156  0.00  0.00    +0.020 A 
ATOM     20  C   UNL     1       3.256   0.376  -1.012  0.00  0.00    +0.011 A 
ATOM     21 CL   UNL     1       6.149  -0.715  -3.537  0.00  0.00    -0.084 Cl
ENDBRANCH  13  15
ENDBRANCH   1  14
TORSDOF 2
