REMARK  Name = ZINC39979859
REMARK  7 active torsions:
REMARK  status: ('A' for Active; 'I' for Inactive)
REMARK    1  A    between atoms: C_4  and  S_7
REMARK    2  A    between atoms: S_7  and  N_10
REMARK    3  A    between atoms: C_12  and  N_22
REMARK    4  A    between atoms: N_22  and  C_23
REMARK    5  A    between atoms: C_26  and  O_29
REMARK    6  A    between atoms: O_29  and  C_30
REMARK    7  A    between atoms: C_33  and  N_36
REMARK                            x       y       z     vdW  Elec       q    Type
REMARK                         _______ _______ _______ _____ _____    ______ ____
ROOT
ATOM      1  N   UNL     1       3.342  -0.323   1.694  0.00  0.00    -0.110 NA
ATOM      2  C   UNL     1       4.478  -0.955   1.669  0.00  0.00    +0.192 C 
ATOM      3  C   UNL     1       5.145  -1.386   2.956  0.00  0.00    +0.237 C 
ATOM      4  N   UNL     1       6.429  -2.098   2.860  0.00  0.00    -0.359 N 
ATOM      5  C   UNL     1       6.928  -2.324   1.676  0.00  0.00    +0.063 A 
ATOM      6  C   UNL     1       8.207  -3.032   1.525  0.00  0.00    +0.027 A 
ATOM      7  C   UNL     1       8.692  -3.248   0.283  0.00  0.00    +0.002 A 
ATOM      8  C   UNL     1       8.006  -2.814  -0.864  0.00  0.00    +0.002 A 
ATOM      9  C   UNL     1       6.827  -2.158  -0.804  0.00  0.00    +0.030 A 
ATOM     10  C   UNL     1       6.225  -1.877   0.449  0.00  0.00    +0.089 A 
ATOM     11  N   UNL     1       5.073  -1.241   0.500  0.00  0.00    -0.226 NA
ATOM     12  H   UNL     1       6.894  -2.393   3.658  0.00  0.00    +0.162 HD
ENDROOT
BRANCH   1  13
ATOM     13  S   UNL     1       2.619   0.137   0.277  0.00  0.00    +0.100 S 
ATOM     14  O   UNL     1       2.252  -1.058  -0.397  0.00  0.00    -0.146 OA
ATOM     15  O   UNL     1       3.465   1.115  -0.312  0.00  0.00    -0.146 OA
BRANCH  13  19
ATOM     16  C   UNL     1      -1.236   2.246   1.363  0.00  0.00    +0.000 A 
ATOM     17  C   UNL     1      -0.065   2.969   1.239  0.00  0.00    +0.002 A 
ATOM     18  C   UNL     1       1.113   2.325   0.908  0.00  0.00    +0.029 A 
ATOM     19  C   UNL     1       1.119   0.958   0.701  0.00  0.00    +0.113 A 
ATOM     20  C   UNL     1      -0.053   0.235   0.825  0.00  0.00    +0.029 A 
ATOM     21  C   UNL     1      -1.231   0.879   1.155  0.00  0.00    +0.002 A 
ENDBRANCH  13  19
ENDBRANCH   1  13
BRANCH   3  22
ATOM     22  N   UNL     1       4.208  -2.250   3.678  0.00  0.00    -0.318 N 
ATOM     23  H   UNL     1       3.737  -2.954   3.207  0.00  0.00    +0.148 HD
BRANCH  22  24
ATOM     24  C   UNL     1       3.993  -2.058   5.048  0.00  0.00    +0.029 A 
ATOM     25  C   UNL     1       3.141  -2.906   5.742  0.00  0.00    +0.026 A 
ATOM     26  C   UNL     1       2.929  -2.717   7.094  0.00  0.00    +0.048 A 
ATOM     27  C   UNL     1       3.568  -1.679   7.757  0.00  0.00    +0.129 A 
ATOM     28  C   UNL     1       4.419  -0.831   7.064  0.00  0.00    +0.048 A 
ATOM     29  C   UNL     1       4.636  -1.023   5.714  0.00  0.00    +0.026 A 
BRANCH  27  30
ATOM     30  O   UNL     1       3.359  -1.493   9.088  0.00  0.00    -0.456 OA
BRANCH  30  31
ATOM     31  C   UNL     1       2.520  -2.351   9.729  0.00  0.00    +0.129 A 
ATOM     32  C   UNL     1       2.938  -3.641  10.020  0.00  0.00    +0.048 A 
ATOM     33  C   UNL     1       2.086  -4.512  10.670  0.00  0.00    +0.026 A 
ATOM     34  C   UNL     1       0.812  -4.096  11.033  0.00  0.00    +0.025 A 
ATOM     35  C   UNL     1       0.394  -2.804  10.741  0.00  0.00    +0.026 A 
ATOM     36  C   UNL     1       1.249  -1.932  10.095  0.00  0.00    +0.048 A 
BRANCH  34  37
ATOM     37  N   UNL     1      -0.052  -4.979  11.691  0.00  0.00    -0.358 N 
ATOM     38  H   UNL     1       0.240  -5.881  11.895  0.00  0.00    +0.142 HD
ATOM     39  H   UNL     1      -0.942  -4.688  11.944  0.00  0.00    +0.142 HD
ENDBRANCH  34  37
ENDBRANCH  30  31
ENDBRANCH  27  30
ENDBRANCH  22  24
ENDBRANCH   3  22
TORSDOF 7
