REMARK  Name = ZINC39988936
REMARK  7 active torsions:
REMARK  status: ('A' for Active; 'I' for Inactive)
REMARK    1  A    between atoms: C_4  and  C_7
REMARK    2  A    between atoms: C_17  and  C_19
REMARK    3  A    between atoms: C_22  and  C_25
REMARK    4  A    between atoms: C_31  and  C_33
REMARK    5  A    between atoms: C_33  and  C_34
REMARK    6  A    between atoms: C_34  and  C_35
REMARK    7  A    between atoms: C_35  and  C_36
REMARK                            x       y       z     vdW  Elec       q    Type
REMARK                         _______ _______ _______ _____ _____    ______ ____
ROOT
ATOM      1  C   UNL     1       3.915  -1.136  -0.333  0.00  0.00    -0.014 C 
ATOM      2  C   UNL     1       5.134  -0.460  -0.435  0.00  0.00    +0.002 A 
ATOM      3  C   UNL     1       5.170   0.919  -0.731  0.00  0.00    +0.030 A 
ATOM      4  C   UNL     1       6.371   1.554  -0.824  0.00  0.00    +0.042 A 
ATOM      5  C   UNL     1       7.569   0.868  -0.635  0.00  0.00    +0.022 A 
ATOM      6  C   UNL     1       7.598  -0.463  -0.348  0.00  0.00    +0.025 A 
ATOM      7  C   UNL     1       6.395  -1.183  -0.236  0.00  0.00    +0.041 A 
ATOM      8  N   UNL     1       6.425  -2.490   0.047  0.00  0.00    -0.284 N 
ATOM      9  C   UNL     1       5.343  -3.234   0.168  0.00  0.00    +0.230 C 
ATOM     10  O   UNL     1       5.447  -4.419   0.426  0.00  0.00    -0.274 OA
ATOM     11  C   UNL     1       3.975  -2.616  -0.006  0.00  0.00    +0.152 C 
ATOM     12 CL   UNL     1       6.410   3.251  -1.188  0.00  0.00    -0.084 Cl
ATOM     13  H   UNL     1       7.289  -2.913   0.169  0.00  0.00    +0.155 HD
ENDROOT
BRANCH  11  14
ATOM     14  C   UNL     1       3.195  -2.841   1.264  0.00  0.00    +0.055 C 
ATOM     15  N   UNL     1       2.672  -1.925   1.972  0.00  0.00    -0.185 NA
ATOM     16  N   UNL     1       1.999  -2.383   3.103  0.00  0.00    -0.189 N 
ATOM     17  C   UNL     1       2.095  -3.851   3.147  0.00  0.00    +0.120 C 
ATOM     18  C   UNL     1       2.912  -4.191   1.884  0.00  0.00    +0.079 C 
ATOM     19  C   UNL     1       1.365  -1.609   4.007  0.00  0.00    +0.235 C 
ATOM     20  O   UNL     1       0.892  -2.108   5.006  0.00  0.00    -0.274 OA
BRANCH  17  21
ATOM     21  C   UNL     1       0.704  -4.485   3.076  0.00  0.00    +0.077 C 
ATOM     22  C   UNL     1       0.781  -6.034   3.134  0.00  0.00    +0.044 C 
ATOM     23  C   UNL     1      -0.221  -6.649   2.211  0.00  0.00    -0.019 C 
ATOM     24  C   UNL     1      -0.755  -5.926   1.245  0.00  0.00    +0.036 C 
ATOM     25  S   UNL     1      -0.038  -4.299   1.400  0.00  0.00    -0.128 S 
ENDBRANCH  17  21
BRANCH  19  26
ATOM     26  C   UNL     1       1.244  -0.125   3.775  0.00  0.00    +0.098 C 
BRANCH  26  27
ATOM     27  C   UNL     1       0.487   0.513   4.941  0.00  0.00    +0.020 C 
BRANCH  27  28
ATOM     28  C   UNL     1       0.364   2.019   4.707  0.00  0.00    +0.125 C 
BRANCH  28  29
ATOM     29  C   UNL     1      -0.382   2.648   5.855  0.00  0.00    +0.356 C 
ATOM     30  O   UNL     1      -0.779   1.955   6.777  0.00  0.00    -0.246 OA
ATOM     31  O   UNL     1      -0.589   3.849   5.864  0.00  0.00    -0.246 OA
ENDBRANCH  28  29
ENDBRANCH  27  28
ENDBRANCH  26  27
ENDBRANCH  19  26
ENDBRANCH  11  14
BRANCH   1  35
ATOM     32  C   UNL     1       0.261   0.838  -0.886  0.00  0.00    +0.000 A 
ATOM     33  C   UNL     1       0.644  -0.161  -1.767  0.00  0.00    +0.001 A 
ATOM     34  C   UNL     1       1.843  -0.816  -1.594  0.00  0.00    +0.008 A 
ATOM     35  C   UNL     1       2.679  -0.468  -0.520  0.00  0.00    -0.020 A 
ATOM     36  C   UNL     1       2.282   0.546   0.367  0.00  0.00    +0.008 A 
ATOM     37  C   UNL     1       1.079   1.188   0.177  0.00  0.00    +0.001 A 
ENDBRANCH   1  35
TORSDOF 7
