REMARK  Name = ZINC40743264
REMARK  10 active torsions:
REMARK  status: ('A' for Active; 'I' for Inactive)
REMARK    1  A    between atoms: C_4  and  N_7
REMARK    2  A    between atoms: C_8  and  S_12
REMARK    3  A    between atoms: S_12  and  C_13
REMARK    4  A    between atoms: C_13  and  C_14
REMARK    5  A    between atoms: C_14  and  N_15
REMARK    6  A    between atoms: N_15  and  C_16
REMARK    7  A    between atoms: C_16  and  C_17
REMARK    8  A    between atoms: C_22  and  O_23
REMARK    9  A    between atoms: O_23  and  C_24
REMARK   10  A    between atoms: C_24  and  C_25
REMARK                            x       y       z     vdW  Elec       q    Type
REMARK                         _______ _______ _______ _____ _____    ______ ____
ROOT
ATOM      1  C   UNL     1       3.007  -7.238   4.129  0.00  0.00    -0.043 C 
ENDROOT
BRANCH   1   2
ATOM      2  C   UNL     1       3.847  -8.419   4.544  0.00  0.00    -0.021 A 
ATOM      3  C   UNL     1       3.737  -9.618   3.867  0.00  0.00    +0.025 A 
ATOM      4  C   UNL     1       4.507 -10.702   4.248  0.00  0.00    +0.041 A 
ATOM      5  C   UNL     1       5.390 -10.588   5.307  0.00  0.00    +0.023 A 
ATOM      6  C   UNL     1       5.503  -9.390   5.987  0.00  0.00    +0.047 A 
ATOM      7  C   UNL     1       4.736  -8.300   5.603  0.00  0.00    +0.122 A 
ATOM      8 CL   UNL     1       4.367 -12.208   3.395  0.00  0.00    -0.084 Cl
BRANCH   7   9
ATOM      9  O   UNL     1       4.850  -7.120   6.266  0.00  0.00    -0.487 OA
BRANCH   9  10
ATOM     10  C   UNL     1       5.785  -7.070   7.346  0.00  0.00    +0.266 C 
BRANCH  10  11
ATOM     11  C   UNL     1       5.774  -5.693   7.957  0.00  0.00    +0.008 A 
ATOM     12  C   UNL     1       4.931  -4.720   7.453  0.00  0.00    +0.011 A 
ATOM     13  C   UNL     1       4.920  -3.457   8.013  0.00  0.00    +0.039 A 
ATOM     14  C   UNL     1       5.754  -3.164   9.079  0.00  0.00    +0.125 A 
ATOM     15  C   UNL     1       6.598  -4.138   9.584  0.00  0.00    +0.058 A 
ATOM     16  C   UNL     1       6.603  -5.404   9.026  0.00  0.00    +0.050 A 
ATOM     17 CL   UNL     1       7.657  -6.629   9.663  0.00  0.00    -0.083 Cl
ATOM     18  F   UNL     1       5.744  -1.929   9.626  0.00  0.00    -0.205 F 
ENDBRANCH  10  11
ENDBRANCH   9  10
ENDBRANCH   7   9
ENDBRANCH   1   2
BRANCH   1  19
ATOM     19  N   UNL     1       3.813  -6.330   3.303  0.00  0.00    +0.382 N 
ATOM     20  H   UNL     1       4.135  -6.819   2.481  0.00  0.00    -0.085 HD
ATOM     21  H   UNL     1       4.608  -6.007   3.835  0.00  0.00    -0.085 HD
BRANCH  19  22
ATOM     22  C   UNL     1       2.995  -5.179   2.898  0.00  0.00    -0.071 C 
BRANCH  22  23
ATOM     23  C   UNL     1       3.835  -4.234   2.038  0.00  0.00    +0.058 C 
BRANCH  23  24
ATOM     24  S   UNL     1       2.824  -2.812   1.538  0.00  0.00    -0.086 S 
BRANCH  24  26
ATOM     25  N   UNL     1       3.624  -0.652  -0.037  0.00  0.00    -0.187 N 
ATOM     26  C   UNL     1       3.918  -1.831   0.567  0.00  0.00    +0.214 A 
ATOM     27  N   UNL     1       5.176  -2.102   0.291  0.00  0.00    -0.101 NA
ATOM     28  N   UNL     1       5.685  -1.178  -0.441  0.00  0.00    -0.022 NA
ATOM     29  N   UNL     1       4.809  -0.266  -0.689  0.00  0.00    -0.038 NA
BRANCH  25  33
ATOM     30  C   UNL     1      -0.017   1.379   0.010  0.00  0.00    +0.000 A 
ATOM     31  C   UNL     1       1.170   2.089   0.002  0.00  0.00    +0.002 A 
ATOM     32  C   UNL     1       2.377   1.419  -0.013  0.00  0.00    +0.028 A 
ATOM     33  C   UNL     1       2.399   0.031  -0.021  0.00  0.00    +0.070 A 
ATOM     34  C   UNL     1       1.207  -0.680  -0.013  0.00  0.00    +0.028 A 
ATOM     35  C   UNL     1       0.002  -0.004   0.002  0.00  0.00    +0.002 A 
ENDBRANCH  25  33
ENDBRANCH  24  26
ENDBRANCH  23  24
ENDBRANCH  22  23
ENDBRANCH  19  22
ENDBRANCH   1  19
TORSDOF 10
