REMARK  Name = ZINC39412655
REMARK  7 active torsions:
REMARK  status: ('A' for Active; 'I' for Inactive)
REMARK    1  A    between atoms: C_4  and  C_7
REMARK    2  A    between atoms: C_10  and  C_14
REMARK    3  A    between atoms: C_14  and  C_15
REMARK    4  A    between atoms: C_15  and  O_33
REMARK    5  A    between atoms: N_18  and  C_21
REMARK    6  A    between atoms: C_21  and  C_22
REMARK    7  A    between atoms: C_25  and  C_27
REMARK                            x       y       z     vdW  Elec       q    Type
REMARK                         _______ _______ _______ _____ _____    ______ ____
ROOT
ATOM      1  C   UNL     1       5.219  -4.834  -2.134  0.00  0.00    +0.065 C 
ATOM      2  C   UNL     1       3.869  -5.359  -2.631  0.00  0.00    +0.016 C 
ATOM      3  C   UNL     1       3.893  -6.889  -2.634  0.00  0.00    -0.075 C 
ATOM      4  N   UNL     1       4.961  -7.363  -3.523  0.00  0.00    +0.385 N 
ATOM      5  C   UNL     1       6.265  -6.923  -3.013  0.00  0.00    -0.075 C 
ATOM      6  C   UNL     1       6.332  -5.394  -3.024  0.00  0.00    +0.016 C 
ATOM      7  H   UNL     1       4.819  -6.987  -4.448  0.00  0.00    -0.081 HD
ENDROOT
BRANCH   1   8
ATOM      8  O   UNL     1       5.429  -5.253  -0.784  0.00  0.00    -0.389 OA
ATOM      9  H   UNL     1       5.434  -6.213  -0.667  0.00  0.00    +0.210 HD
ENDBRANCH   1   8
BRANCH   1  10
ATOM     10  C   UNL     1       5.229  -3.305  -2.203  0.00  0.00    +0.068 C 
BRANCH  10  13
ATOM     11  C   UNL     1       3.711  -0.707  -0.038  0.00  0.00    +0.113 C 
ATOM     12  C   UNL     1       4.024  -1.212  -1.462  0.00  0.00    +0.059 C 
ATOM     13  C   UNL     1       4.117  -2.747  -1.314  0.00  0.00    +0.146 C 
ATOM     14  O   UNL     1       4.433  -2.945   0.083  0.00  0.00    -0.296 OA
ATOM     15  N   UNL     1       3.629  -1.929   0.797  0.00  0.00    -0.193 NA
ATOM     16  H   UNL     1       2.672  -2.233   0.900  0.00  0.00    +0.154 HD
BRANCH  11  20
ATOM     17  C   UNL     1      -0.017   1.378   0.010  0.00  0.00    +0.000 A 
ATOM     18  C   UNL     1       1.171   2.086   0.002  0.00  0.00    +0.000 A 
ATOM     19  C   UNL     1       2.377   1.411  -0.013  0.00  0.00    +0.005 A 
ATOM     20  C   UNL     1       2.396   0.029  -0.020  0.00  0.00    -0.028 A 
ATOM     21  C   UNL     1       1.208  -0.679  -0.012  0.00  0.00    +0.005 A 
ATOM     22  C   UNL     1       0.002  -0.004   0.002  0.00  0.00    +0.000 A 
ENDBRANCH  11  20
ENDBRANCH  10  13
ENDBRANCH   1  10
BRANCH   4  23
ATOM     23  C   UNL     1       4.931  -8.831  -3.583  0.00  0.00    -0.003 C 
BRANCH  23  24
ATOM     24  C   UNL     1       5.945  -9.313  -4.588  0.00  0.00    +0.089 A 
ATOM     25  C   UNL     1       7.228  -9.618  -4.326  0.00  0.00    +0.043 A 
ATOM     26  C   UNL     1       7.811 -10.024  -5.549  0.00  0.00    +0.047 A 
ATOM     27  C   UNL     1       6.849  -9.943  -6.485  0.00  0.00    +0.135 A 
ATOM     28  O   UNL     1       5.719  -9.517  -5.896  0.00  0.00    -0.464 OA
BRANCH  27  29
ATOM     29  C   UNL     1       7.009 -10.277  -7.946  0.00  0.00    +0.218 C 
ATOM     30  C   UNL     1       7.138  -9.012  -8.775  0.00  0.00    +0.030 C 
ATOM     31  C   UNL     1       6.084  -9.055  -9.593  0.00  0.00    +0.133 C 
ATOM     32  N   UNL     1       5.347 -10.165  -9.368  0.00  0.00    -0.162 NA
ATOM     33  N   UNL     1       5.785 -10.901  -8.475  0.00  0.00    -0.172 NA
ENDBRANCH  27  29
ENDBRANCH  23  24
ENDBRANCH   4  23
TORSDOF 7
