REMARK  Name = ZINC20724058
REMARK  6 active torsions:
REMARK  status: ('A' for Active; 'I' for Inactive)
REMARK    1  A    between atoms: C_1  and  C_2
REMARK    2  A    between atoms: C_2  and  C_3
REMARK    3  A    between atoms: C_2  and  O_4
REMARK    4  A    between atoms: O_4  and  C_5
REMARK    5  A    between atoms: C_8  and  C_11
REMARK    6  A    between atoms: C_14  and  O_22
REMARK                            x       y       z     vdW  Elec       q    Type
REMARK                         _______ _______ _______ _____ _____    ______ ____
ROOT
ATOM      1  C   UNL     1      -2.167  -5.641  -2.132  0.00  0.00    +0.063 C 
ATOM      2  C   UNL     1      -2.791  -6.552  -1.070  0.00  0.00    +0.108 C 
ATOM      3  C   UNL     1      -4.253  -6.281  -0.886  0.00  0.00    +0.190 C 
ATOM      4  N   UNL     1      -5.050  -5.907  -1.840  0.00  0.00    -0.196 NA
ATOM      5  C   UNL     1      -4.530  -5.704  -3.096  0.00  0.00    +0.181 A 
ATOM      6  C   UNL     1      -3.128  -5.562  -3.292  0.00  0.00    +0.024 A 
ATOM      7  C   UNL     1      -2.907  -5.370  -4.596  0.00  0.00    +0.111 A 
ATOM      8  N   UNL     1      -4.106  -5.389  -5.226  0.00  0.00    -0.282 N 
ATOM      9  H   UNL     1      -4.250  -5.276  -6.179  0.00  0.00    +0.188 HD
ATOM     10  N   UNL     1      -5.108  -5.603  -4.260  0.00  0.00    -0.154 NA
ENDROOT
BRANCH   1  14
ATOM     11  C   UNL     1      -1.538  -1.739  -0.505  0.00  0.00    +0.121 A 
ATOM     12  C   UNL     1      -0.465  -2.468  -0.997  0.00  0.00    +0.046 A 
ATOM     13  C   UNL     1      -0.671  -3.729  -1.522  0.00  0.00    +0.008 A 
ATOM     14  C   UNL     1      -1.945  -4.265  -1.558  0.00  0.00    -0.039 A 
ATOM     15  C   UNL     1      -3.017  -3.540  -1.070  0.00  0.00    +0.008 A 
ATOM     16  C   UNL     1      -2.815  -2.281  -0.538  0.00  0.00    +0.046 A 
BRANCH  11  17
ATOM     17  O   UNL     1      -1.339  -0.499   0.012  0.00  0.00    -0.489 OA
BRANCH  17  19
ATOM     18  C   UNL     1      -1.982   1.168   1.640  0.00  0.00    +0.051 C 
ATOM     19  C   UNL     1      -2.466   0.143   0.612  0.00  0.00    +0.167 C 
ATOM     20  C   UNL     1      -3.283   0.853  -0.469  0.00  0.00    +0.051 C 
ENDBRANCH  17  19
ENDBRANCH  11  17
ENDBRANCH   1  14
BRANCH   3  21
ATOM     21  O   UNL     1      -4.774  -6.437   0.348  0.00  0.00    -0.495 OA
ATOM     22  H   UNL     1      -5.721  -6.247   0.402  0.00  0.00    +0.293 HD
ENDBRANCH   3  21
TORSDOF 4
