REMARK  Name = ZINC36537551
REMARK  15 active torsions:
REMARK  status: ('A' for Active; 'I' for Inactive)
REMARK    1  A    between atoms: C_1  and  C_2
REMARK    2  A    between atoms: C_2  and  C_3
REMARK    3  A    between atoms: C_2  and  C_4
REMARK    4  A    between atoms: C_2  and  C_5
REMARK    5  A    between atoms: C_5  and  C_6
REMARK    6  A    between atoms: C_6  and  C_7
REMARK    7  A    between atoms: C_6  and  C_8
REMARK    8  A    between atoms: C_6  and  N_9
REMARK    9  A    between atoms: C_10  and  C_12
REMARK   10  A    between atoms: C_12  and  C_14
REMARK   11  A    between atoms: C_12  and  N_24
REMARK   12  A    between atoms: C_17  and  C_20
REMARK   13  A    between atoms: N_24  and  C_25
REMARK   14  A    between atoms: C_26  and  C_28
REMARK   15  A    between atoms: C_32  and  N_34
REMARK                            x       y       z     vdW  Elec       q    Type
REMARK                         _______ _______ _______ _____ _____    ______ ____
ROOT
ATOM      1  C   UNL     1       5.354  -0.469  -4.228  0.00  0.00    +0.192 C 
ENDROOT
BRANCH   1   2
ATOM      2  C   UNL     1       5.333  -1.948  -4.518  0.00  0.00    -0.018 A 
ATOM      3  C   UNL     1       4.875  -2.406  -5.739  0.00  0.00    +0.006 A 
ATOM      4  C   UNL     1       4.855  -3.763  -6.005  0.00  0.00    +0.013 A 
ATOM      5  C   UNL     1       5.294  -4.660  -5.050  0.00  0.00    +0.055 A 
ATOM      6  C   UNL     1       5.752  -4.202  -3.829  0.00  0.00    +0.013 A 
ATOM      7  C   UNL     1       5.776  -2.845  -3.565  0.00  0.00    +0.006 A 
BRANCH   5   8
ATOM      8  C   UNL     1       5.271  -6.139  -5.339  0.00  0.00    +0.417 C 
ATOM      9  F   UNL     1       6.487  -6.520  -5.917  0.00  0.00    -0.166 F 
ATOM     10  F   UNL     1       5.080  -6.845  -4.146  0.00  0.00    -0.166 F 
ATOM     11  F   UNL     1       4.225  -6.426  -6.223  0.00  0.00    -0.166 F 
ENDBRANCH   5   8
ENDBRANCH   1   2
BRANCH   1  13
ATOM     12  N   UNL     1       3.266  -0.518  -2.904  0.00  0.00    -0.308 N 
ATOM     13  C   UNL     1       4.572  -0.192  -2.970  0.00  0.00    +0.238 C 
ATOM     14  O   UNL     1       5.118   0.324  -2.018  0.00  0.00    -0.273 OA
ATOM     15  H   UNL     1       2.830  -0.930  -3.665  0.00  0.00    +0.149 HD
BRANCH  12  16
ATOM     16  C   UNL     1       2.506  -0.248  -1.681  0.00  0.00    +0.030 C 
ATOM     17  C   UNL     1       2.683   1.218  -1.282  0.00  0.00    +0.031 C 
ATOM     18  C   UNL     1       3.016  -1.149  -0.554  0.00  0.00    +0.031 C 
BRANCH  16  19
ATOM     19  C   UNL     1       1.023  -0.534  -1.929  0.00  0.00    +0.031 C 
BRANCH  19  21
ATOM     20  C   UNL     1       1.019  -0.927  -4.396  0.00  0.00    +0.010 C 
ATOM     21  C   UNL     1       0.613   0.043  -3.285  0.00  0.00    -0.036 C 
ATOM     22  C   UNL     1       1.313   1.387  -3.501  0.00  0.00    +0.010 C 
ATOM     23  C   UNL     1      -0.903   0.248  -3.315  0.00  0.00    +0.010 C 
ENDBRANCH  19  21
ENDBRANCH  16  19
ENDBRANCH  12  16
ENDBRANCH   1  13
BRANCH   1  24
ATOM     24  N   UNL     1       6.740  -0.027  -4.049  0.00  0.00    -0.285 N 
ATOM     25  C   UNL     1       7.584  -0.657  -3.032  0.00  0.00    +0.133 C 
ATOM     26  C   UNL     1       7.237   0.960  -4.821  0.00  0.00    +0.247 C 
ATOM     27  O   UNL     1       6.525   1.510  -5.638  0.00  0.00    -0.270 OA
BRANCH  26  28
ATOM     28  C   UNL     1       8.648   1.374  -4.673  0.00  0.00    +0.039 A 
ATOM     29  C   UNL     1       9.611   0.449  -4.265  0.00  0.00    +0.013 A 
ATOM     30  C   UNL     1      10.927   0.842  -4.130  0.00  0.00    +0.003 A 
ATOM     31  C   UNL     1      11.293   2.150  -4.396  0.00  0.00    +0.033 A 
ATOM     32  C   UNL     1      10.343   3.071  -4.800  0.00  0.00    +0.127 A 
ATOM     33  C   UNL     1       9.025   2.690  -4.945  0.00  0.00    +0.045 A 
BRANCH  32  34
ATOM     34  N   UNL     1      10.743   4.468  -5.082  0.00  0.00    +0.056 N 
ATOM     35  O   UNL     1      11.899   4.802  -4.960  0.00  0.00    -0.126 OA
ATOM     36  O   UNL     1       9.915   5.275  -5.435  0.00  0.00    -0.126 OA
ENDBRANCH  32  34
ENDBRANCH  26  28
ENDBRANCH   1  24
TORSDOF 9
