REMARK  Name = ZINC66426651
REMARK  9 active torsions:
REMARK  status: ('A' for Active; 'I' for Inactive)
REMARK    1  A    between atoms: C_1  and  C_2
REMARK    2  A    between atoms: C_5  and  N_14
REMARK    3  A    between atoms: C_7  and  C_8
REMARK    4  A    between atoms: N_10  and  C_11
REMARK    5  A    between atoms: C_11  and  C_12
REMARK    6  A    between atoms: C_11  and  C_13
REMARK    7  A    between atoms: C_15  and  C_17
REMARK    8  A    between atoms: C_17  and  C_19
REMARK    9  A    between atoms: C_17  and  N_20
REMARK                            x       y       z     vdW  Elec       q    Type
REMARK                         _______ _______ _______ _____ _____    ______ ____
ROOT
ATOM      1  N   UNL     1       0.101  -3.978  -0.295  0.00  0.00    -0.284 N 
ATOM      2  C   UNL     1       0.619  -4.584  -1.382  0.00  0.00    +0.240 C 
ATOM      3  O   UNL     1       1.004  -3.920  -2.321  0.00  0.00    -0.273 OA
ATOM      4  H   UNL     1      -0.273  -4.509   0.425  0.00  0.00    +0.155 HD
ENDROOT
BRANCH   1   9
ATOM      5  C   UNL     1       0.103   1.696   0.038  0.00  0.00    +0.044 C 
ATOM      6  C   UNL     1       0.103   0.191  -0.047  0.00  0.00    -0.038 A 
ATOM      7  C   UNL     1      -0.083  -0.432  -1.265  0.00  0.00    +0.006 A 
ATOM      8  C   UNL     1      -0.083  -1.811  -1.348  0.00  0.00    +0.023 A 
ATOM      9  C   UNL     1       0.103  -2.581  -0.206  0.00  0.00    +0.034 A 
ATOM     10  C   UNL     1       0.291  -1.966   1.022  0.00  0.00    +0.036 A 
ATOM     11  C   UNL     1       0.296  -0.573   1.105  0.00  0.00    +0.041 A 
BRANCH  11  12
ATOM     12  C   UNL     1       0.502   0.091   2.410  0.00  0.00    +0.245 C 
ATOM     13  O   UNL     1       0.440   1.302   2.491  0.00  0.00    -0.270 OA
ATOM     14  N   UNL     1       0.758  -0.646   3.508  0.00  0.00    -0.309 N 
ATOM     15  H   UNL     1       0.808  -1.613   3.443  0.00  0.00    +0.149 HD
BRANCH  14  16
ATOM     16  C   UNL     1       0.962   0.012   4.801  0.00  0.00    +0.067 C 
ATOM     17  C   UNL     1      -0.394   0.263   5.465  0.00  0.00    +0.027 C 
ATOM     18  C   UNL     1       1.813  -0.885   5.702  0.00  0.00    +0.027 C 
ENDBRANCH  14  16
ENDBRANCH  11  12
ENDBRANCH   1   9
BRANCH   2  19
ATOM     19  C   UNL     1       0.720  -6.087  -1.429  0.00  0.00    +0.177 C 
ATOM     20  C   UNL     1       1.601  -6.576  -0.278  0.00  0.00    +0.041 C 
BRANCH  19  21
ATOM     21  N   UNL     1       1.313  -6.496  -2.705  0.00  0.00    -0.263 N 
ATOM     22  C   UNL     1       0.715  -7.309  -3.669  0.00  0.00    +0.091 A 
ATOM     23  C   UNL     1      -0.514  -7.945  -3.748  0.00  0.00    +0.030 A 
ATOM     24  C   UNL     1      -0.825  -8.701  -4.862  0.00  0.00    +0.002 A 
ATOM     25  C   UNL     1       0.087  -8.826  -5.896  0.00  0.00    +0.004 A 
ATOM     26  C   UNL     1       1.313  -8.195  -5.823  0.00  0.00    +0.048 A 
ATOM     27  C   UNL     1       1.634  -7.433  -4.710  0.00  0.00    +0.157 A 
ATOM     28  O   UNL     1       2.732  -6.717  -4.366  0.00  0.00    -0.407 OA
ATOM     29  C   UNL     1       2.532  -6.152  -3.165  0.00  0.00    +0.422 A 
ATOM     30  O   UNL     1       3.328  -5.443  -2.581  0.00  0.00    -0.223 OA
ENDBRANCH  19  21
ENDBRANCH   2  19
TORSDOF 5
