REMARK  Name = ZINC09173321
REMARK  5 active torsions:
REMARK  status: ('A' for Active; 'I' for Inactive)
REMARK    1  A    between atoms: C_1  and  C_2
REMARK    2  A    between atoms: C_2  and  C_24
REMARK    3  A    between atoms: C_8  and  N_14
REMARK    4  A    between atoms: N_14  and  S_15
REMARK    5  A    between atoms: S_15  and  C_18
REMARK                            x       y       z     vdW  Elec       q    Type
REMARK                         _______ _______ _______ _____ _____    ______ ____
ROOT
ATOM      1  C   UNL     1       2.335   0.362   1.461  0.00  0.00    +0.024 C 
ATOM      2  C   UNL     1       2.103   1.628   0.634  0.00  0.00    +0.076 C 
ATOM      3  C   UNL     1       0.872   2.361   1.164  0.00  0.00    +0.244 C 
ATOM      4  O   UNL     1      -0.319   1.704   0.740  0.00  0.00    -0.489 OA
ATOM      5  C   UNL     1      -0.343   0.346   0.825  0.00  0.00    +0.142 A 
ATOM      6  C   UNL     1      -1.059  -0.280   1.831  0.00  0.00    +0.049 A 
ATOM      7  C   UNL     1      -1.073  -1.660   1.913  0.00  0.00    +0.028 A 
ATOM      8  C   UNL     1      -0.370  -2.422   0.989  0.00  0.00    +0.050 A 
ATOM      9  C   UNL     1       0.347  -1.799  -0.023  0.00  0.00    +0.051 A 
ATOM     10  C   UNL     1       0.359  -0.416  -0.107  0.00  0.00    +0.077 A 
ATOM     11  N   UNL     1       1.072   0.230  -1.126  0.00  0.00    -0.282 N 
ATOM     12  C   UNL     1       1.899   1.252  -0.810  0.00  0.00    +0.226 C 
ATOM     13  O   UNL     1       2.475   1.863  -1.686  0.00  0.00    -0.275 OA
ATOM     14  C   UNL     1       3.325   2.542   0.753  0.00  0.00    +0.024 C 
ATOM     15  H   UNL     1       0.973  -0.053  -2.048  0.00  0.00    +0.155 HD
ENDROOT
BRANCH   8  16
ATOM     16  N   UNL     1      -0.385  -3.819   1.078  0.00  0.00    -0.216 N 
ATOM     17  H   UNL     1      -0.913  -4.339   0.453  0.00  0.00    +0.174 HD
BRANCH  16  18
ATOM     18  S   UNL     1       0.501  -4.583   2.251  0.00  0.00    +0.072 S 
ATOM     19  O   UNL     1       0.214  -3.918   3.474  0.00  0.00    -0.150 OA
ATOM     20  O   UNL     1       0.290  -5.977   2.075  0.00  0.00    -0.150 OA
BRANCH  18  21
ATOM     21  C   UNL     1       2.201  -4.281   1.900  0.00  0.00    +0.108 A 
ATOM     22  C   UNL     1       2.918  -5.180   1.133  0.00  0.00    +0.029 A 
ATOM     23  C   UNL     1       4.250  -4.941   0.853  0.00  0.00    +0.002 A 
ATOM     24  C   UNL     1       4.869  -3.809   1.349  0.00  0.00    +0.000 A 
ATOM     25  C   UNL     1       4.153  -2.913   2.121  0.00  0.00    +0.002 A 
ATOM     26  C   UNL     1       2.819  -3.149   2.396  0.00  0.00    +0.029 A 
ENDBRANCH  18  21
ENDBRANCH  16  18
ENDBRANCH   8  16
TORSDOF 3
