REMARK  Name = ZINC63770282
REMARK  10 active torsions:
REMARK  status: ('A' for Active; 'I' for Inactive)
REMARK    1  A    between atoms: C_1  and  C_2
REMARK    2  A    between atoms: C_2  and  C_3
REMARK    3  A    between atoms: C_8  and  C_12
REMARK    4  A    between atoms: C_12  and  C_13
REMARK    5  A    between atoms: C_12  and  C_22
REMARK    6  A    between atoms: C_16  and  N_19
REMARK    7  A    between atoms: N_19  and  C_20
REMARK    8  A    between atoms: N_19  and  C_21
REMARK    9  A    between atoms: C_27  and  C_31
REMARK   10  A    between atoms: C_31  and  C_32
REMARK                            x       y       z     vdW  Elec       q    Type
REMARK                         _______ _______ _______ _____ _____    ______ ____
ROOT
ATOM      1  C   UNL     1      -5.386  -1.714  -2.811  0.00  0.00    +0.075 C 
ENDROOT
BRANCH   1   7
ATOM      2  C   UNL     1      -1.412  -0.526   0.013  0.00  0.00    -0.024 A 
ATOM      3  C   UNL     1      -1.997  -0.855   1.184  0.00  0.00    +0.005 A 
ATOM      4  C   UNL     1      -3.308  -1.345   1.264  0.00  0.00    +0.001 A 
ATOM      5  C   UNL     1      -4.071  -1.519   0.161  0.00  0.00    +0.010 A 
ATOM      6  C   UNL     1      -3.509  -1.184  -1.153  0.00  0.00    +0.000 A 
ATOM      7  C   UNL     1      -4.011  -1.247  -2.408  0.00  0.00    -0.030 C 
ATOM      8  C   UNL     1      -2.913  -0.754  -3.324  0.00  0.00    +0.145 C 
ATOM      9  N   UNL     1      -1.781  -0.422  -2.453  0.00  0.00    -0.380 N 
ATOM     10  C   UNL     1      -2.124  -0.663  -1.210  0.00  0.00    +0.046 A 
ATOM     11  H   UNL     1      -0.923  -0.077  -2.746  0.00  0.00    +0.160 HD
BRANCH   2  13
ATOM     12  C   UNL     1      -0.019   1.526   0.010  0.00  0.00    +0.009 C 
ATOM     13  C   UNL     1       0.002  -0.004   0.002  0.00  0.00    +0.034 C 
ENDBRANCH   2  13
ENDBRANCH   1   7
BRANCH   1  14
ATOM     14  C   UNL     1      -5.263  -2.896  -3.738  0.00  0.00    -0.030 C 
ATOM     15  C   UNL     1      -5.759  -4.139  -3.542  0.00  0.00    +0.000 A 
ATOM     16  C   UNL     1      -6.531  -4.740  -2.447  0.00  0.00    +0.010 A 
ATOM     17  C   UNL     1      -6.892  -6.040  -2.537  0.00  0.00    +0.001 A 
ATOM     18  C   UNL     1      -6.549  -6.826  -3.645  0.00  0.00    +0.005 A 
ATOM     19  C   UNL     1      -5.841  -6.345  -4.689  0.00  0.00    -0.024 A 
ATOM     20  C   UNL     1      -5.409  -4.990  -4.701  0.00  0.00    +0.046 A 
ATOM     21  N   UNL     1      -4.724  -4.300  -5.580  0.00  0.00    -0.380 N 
ATOM     22  C   UNL     1      -4.567  -2.930  -5.080  0.00  0.00    +0.145 C 
ATOM     23  H   UNL     1      -4.382  -4.638  -6.423  0.00  0.00    +0.160 HD
BRANCH  19  24
ATOM     24  C   UNL     1      -5.507  -7.248  -5.848  0.00  0.00    +0.034 C 
ATOM     25  C   UNL     1      -4.112  -7.843  -5.645  0.00  0.00    +0.009 C 
ENDBRANCH  19  24
ENDBRANCH   1  14
BRANCH   1  26
ATOM     26  C   UNL     1      -6.110  -0.596  -3.515  0.00  0.00    -0.036 A 
ATOM     27  C   UNL     1      -5.588  -0.062  -4.679  0.00  0.00    +0.006 A 
ATOM     28  C   UNL     1      -6.250   0.963  -5.327  0.00  0.00    +0.023 A 
ATOM     29  C   UNL     1      -7.440   1.457  -4.808  0.00  0.00    +0.029 A 
ATOM     30  C   UNL     1      -7.961   0.918  -3.639  0.00  0.00    +0.023 A 
ATOM     31  C   UNL     1      -7.298  -0.111  -2.999  0.00  0.00    +0.006 A 
BRANCH  29  32
ATOM     32  N   UNL     1      -8.111   2.494  -5.460  0.00  0.00    -0.336 N 
ATOM     33  C   UNL     1      -7.559   3.062  -6.693  0.00  0.00    +0.129 C 
ATOM     34  C   UNL     1      -9.366   3.014  -4.912  0.00  0.00    +0.129 C 
ENDBRANCH  29  32
ENDBRANCH   1  26
TORSDOF 6
