REMARK  Name = ZINC15880245
REMARK  5 active torsions:
REMARK  status: ('A' for Active; 'I' for Inactive)
REMARK    1  A    between atoms: C_4  and  C_7
REMARK    2  A    between atoms: C_7  and  N_48
REMARK    3  A    between atoms: C_16  and  C_18
REMARK    4  A    between atoms: C_18  and  S_19
REMARK    5  A    between atoms: S_19  and  C_20
REMARK                            x       y       z     vdW  Elec       q    Type
REMARK                         _______ _______ _______ _____ _____    ______ ____
ROOT
ATOM      1  C   UNL     1      -4.241   3.458   6.494  0.00  0.00    -0.072 C 
ATOM      2  C   UNL     1      -3.734   3.648   5.062  0.00  0.00    +0.038 C 
ATOM      3  C   UNL     1      -2.485   2.791   4.883  0.00  0.00    +0.050 A 
ATOM      4  C   UNL     1      -1.824   2.338   5.982  0.00  0.00    -0.002 A 
ATOM      5  S   UNL     1      -0.486   1.417   5.277  0.00  0.00    -0.059 S 
ATOM      6  C   UNL     1      -0.892   1.694   3.609  0.00  0.00    +0.165 A 
ATOM      7  N   UNL     1      -1.972   2.443   3.708  0.00  0.00    -0.229 NA
ATOM      8  N   UNL     1      -0.242   1.246   2.466  0.00  0.00    -0.264 N 
ATOM      9  C   UNL     1      -0.718   1.572   1.248  0.00  0.00    +0.229 C 
ATOM     10  O   UNL     1      -1.715   2.256   1.150  0.00  0.00    -0.275 OA
ATOM     11  C   UNL     1      -2.174   2.586   7.409  0.00  0.00    -0.033 C 
ATOM     12  H   UNL     1       0.555   0.699   2.544  0.00  0.00    +0.157 HD
ATOM     13  N   UNL     1      -3.142   3.711   7.448  0.00  0.00    +0.386 N 
ATOM     14  H   UNL     1      -2.659   4.577   7.180  0.00  0.00    -0.081 HD
ENDROOT
BRANCH  13  15
ATOM     15  C   UNL     1      -3.683   3.866   8.815  0.00  0.00    -0.043 C 
BRANCH  15  19
ATOM     16  C   UNL     1      -0.556   5.210  11.396  0.00  0.00    +0.000 A 
ATOM     17  C   UNL     1      -1.339   6.129  10.723  0.00  0.00    +0.000 A 
ATOM     18  C   UNL     1      -2.351   5.694   9.887  0.00  0.00    +0.002 A 
ATOM     19  C   UNL     1      -2.580   4.340   9.726  0.00  0.00    -0.064 A 
ATOM     20  C   UNL     1      -1.800   3.422  10.403  0.00  0.00    +0.002 A 
ATOM     21  C   UNL     1      -0.785   3.857  11.234  0.00  0.00    +0.000 A 
ENDBRANCH  15  19
ENDBRANCH  13  15
BRANCH   9  22
ATOM     22  C   UNL     1      -0.013   1.086   0.008  0.00  0.00    +0.170 C 
BRANCH  22  23
ATOM     23  S   UNL     1      -0.890   1.687  -1.462  0.00  0.00    -0.116 S 
BRANCH  23  24
ATOM     24  C   UNL     1       0.045   1.043  -2.809  0.00  0.00    +0.008 A 
ATOM     25  C   UNL     1       1.176   0.273  -2.567  0.00  0.00    +0.016 A 
ATOM     26  C   UNL     1       1.904  -0.234  -3.625  0.00  0.00    +0.021 A 
ATOM     27  C   UNL     1       1.514   0.032  -4.926  0.00  0.00    +0.041 A 
ATOM     28  C   UNL     1       0.391   0.803  -5.170  0.00  0.00    +0.021 A 
ATOM     29  C   UNL     1      -0.344   1.309  -4.116  0.00  0.00    +0.016 A 
ATOM     30 CL   UNL     1       2.435  -0.603  -6.254  0.00  0.00    -0.084 Cl
ENDBRANCH  23  24
ENDBRANCH  22  23
ENDBRANCH   9  22
TORSDOF 5
