REMARK  Name = ZINC06744554
REMARK  11 active torsions:
REMARK  status: ('A' for Active; 'I' for Inactive)
REMARK    1  A    between atoms: C_1  and  C_2
REMARK    2  A    between atoms: C_4  and  O_10
REMARK    3  A    between atoms: C_6  and  C_9
REMARK    4  A    between atoms: O_10  and  C_11
REMARK    5  A    between atoms: C_11  and  C_12
REMARK    6  A    between atoms: N_14  and  C_15
REMARK    7  A    between atoms: C_15  and  C_16
REMARK    8  A    between atoms: C_16  and  C_18
REMARK    9  A    between atoms: C_16  and  N_26
REMARK   10  A    between atoms: C_21  and  O_24
REMARK   11  A    between atoms: O_24  and  C_25
REMARK                            x       y       z     vdW  Elec       q    Type
REMARK                         _______ _______ _______ _____ _____    ______ ____
ROOT
ATOM      1  C   UNL     1      -0.029  -6.641  -5.413  0.00  0.00    +0.093 C 
ENDROOT
BRANCH   1   4
ATOM      2  C   UNL     1       1.331  -4.857  -6.365  0.00  0.00    +0.251 C 
ATOM      3  O   UNL     1       0.433  -4.081  -6.118  0.00  0.00    -0.272 OA
ATOM      4  N   UNL     1       1.200  -6.162  -6.051  0.00  0.00    -0.314 N 
ATOM      5  H   UNL     1       1.918  -6.783  -6.248  0.00  0.00    +0.149 HD
BRANCH   2   6
ATOM      6  C   UNL     1       2.595  -4.364  -7.021  0.00  0.00    +0.324 C 
BRANCH   6   7
ATOM      7  O   UNL     1       2.494  -2.957  -7.252  0.00  0.00    -0.483 OA
BRANCH   7  11
ATOM      8  C   UNL     1       4.577   1.108  -8.971  0.00  0.00    +0.045 C 
ATOM      9  C   UNL     1       4.610  -0.373  -8.695  0.00  0.00    -0.028 A 
ATOM     10  C   UNL     1       3.527  -0.988  -8.095  0.00  0.00    +0.050 A 
ATOM     11  C   UNL     1       3.558  -2.351  -7.842  0.00  0.00    +0.122 A 
ATOM     12  C   UNL     1       4.676  -3.095  -8.191  0.00  0.00    +0.050 A 
ATOM     13  C   UNL     1       5.756  -2.477  -8.790  0.00  0.00    -0.028 A 
ATOM     14  C   UNL     1       5.721  -1.117  -9.047  0.00  0.00    +0.047 A 
ATOM     15 CL   UNL     1       7.078  -0.344  -9.806  0.00  0.00    -0.083 Cl
ATOM     16  C   UNL     1       6.970  -3.284  -9.170  0.00  0.00    +0.045 C 
ENDBRANCH   7  11
ENDBRANCH   6   7
ENDBRANCH   2   6
ENDBRANCH   1   4
BRANCH   1  17
ATOM     17  C   UNL     1       0.024  -8.165  -5.285  0.00  0.00    -0.020 C 
BRANCH  17  18
ATOM     18  N   UNL     1      -1.165  -8.637  -4.564  0.00  0.00    +0.385 N 
ATOM     19  C   UNL     1      -1.169  -8.074  -3.208  0.00  0.00    -0.078 C 
ATOM     20  C   UNL     1      -2.446  -8.498  -2.480  0.00  0.00    -0.019 C 
ATOM     21  C   UNL     1      -2.499 -10.026  -2.399  0.00  0.00    -0.004 C 
ATOM     22  C   UNL     1      -2.419 -10.605  -3.815  0.00  0.00    -0.019 C 
ATOM     23  C   UNL     1      -1.143 -10.103  -4.494  0.00  0.00    -0.078 C 
ATOM     24  H   UNL     1      -1.995  -8.337  -5.053  0.00  0.00    -0.081 HD
ENDBRANCH  17  18
BRANCH  17  25
ATOM     25  C   UNL     1       0.057  -8.783  -6.659  0.00  0.00    -0.059 A 
ATOM     26  C   UNL     1      -1.113  -8.913  -7.385  0.00  0.00    +0.005 A 
ATOM     27  C   UNL     1      -1.085  -9.480  -8.645  0.00  0.00    +0.046 A 
ATOM     28  C   UNL     1       0.117  -9.918  -9.181  0.00  0.00    +0.120 A 
ATOM     29  C   UNL     1       1.289  -9.786  -8.450  0.00  0.00    +0.046 A 
ATOM     30  C   UNL     1       1.257  -9.214  -7.194  0.00  0.00    +0.005 A 
BRANCH  28  31
ATOM     31  O   UNL     1       0.146 -10.477 -10.420  0.00  0.00    -0.495 OA
ATOM     32  C   UNL     1       1.419 -10.906 -10.908  0.00  0.00    +0.277 C 
ENDBRANCH  28  31
ENDBRANCH  17  25
ENDBRANCH   1  17
TORSDOF 8
