REMARK  Name = ZINC48165475
REMARK  6 active torsions:
REMARK  status: ('A' for Active; 'I' for Inactive)
REMARK    1  A    between atoms: C_1  and  C_2
REMARK    2  A    between atoms: C_3  and  C_8
REMARK    3  A    between atoms: C_4  and  C_7
REMARK    4  A    between atoms: C_8  and  N_9
REMARK    5  A    between atoms: N_9  and  C_10
REMARK    6  A    between atoms: C_11  and  C_13
REMARK                            x       y       z     vdW  Elec       q    Type
REMARK                         _______ _______ _______ _____ _____    ______ ____
ROOT
ATOM      1  N   UNL     1       1.347  -0.189  -3.042  0.00  0.00    -0.296 N 
ATOM      2  C   UNL     1       2.091  -1.282  -3.672  0.00  0.00    +0.132 C 
ATOM      3  C   UNL     1       1.932   1.014  -2.871  0.00  0.00    +0.247 C 
ATOM      4  O   UNL     1       1.354   1.888  -2.256  0.00  0.00    -0.270 OA
ENDROOT
BRANCH   3   5
ATOM      5  C   UNL     1       3.277   1.268  -3.432  0.00  0.00    +0.040 A 
ATOM      6  C   UNL     1       3.668   0.699  -4.649  0.00  0.00    +0.034 A 
ATOM      7  C   UNL     1       4.932   0.963  -5.135  0.00  0.00    +0.134 A 
ATOM      8  N   UNL     1       5.767   1.740  -4.469  0.00  0.00    -0.147 N 
ATOM      9  O   UNL     1       7.054   1.983  -5.006  0.00  0.00    -0.164 OA
ATOM     10  C   UNL     1       5.437   2.296  -3.318  0.00  0.00    +0.134 A 
ATOM     11  C   UNL     1       4.191   2.090  -2.763  0.00  0.00    +0.034 A 
ENDBRANCH   3   5
BRANCH   1  12
ATOM     12  C   UNL     1      -0.033  -0.402  -2.599  0.00  0.00    +0.148 C 
BRANCH  12  15
ATOM     13  C   UNL     1      -0.142   1.431  -0.007  0.00  0.00    +0.069 C 
ATOM     14  C   UNL     1      -0.082  -0.075  -0.024  0.00  0.00    +0.085 A 
ATOM     15  C   UNL     1      -0.033  -0.886  -1.172  0.00  0.00    +0.034 A 
ATOM     16  C   UNL     1       0.013  -2.172  -0.774  0.00  0.00    +0.139 A 
ATOM     17  O   UNL     1      -0.005  -2.192   0.568  0.00  0.00    -0.359 OA
ATOM     18  N   UNL     1      -0.059  -0.852   1.022  0.00  0.00    -0.083 NA
ATOM     19  C   UNL     1       0.074  -3.377  -1.677  0.00  0.00    +0.089 C 
ENDBRANCH  12  15
ENDBRANCH   1  12
TORSDOF 3
