REMARK  Name = ZINC48988302
REMARK  10 active torsions:
REMARK  status: ('A' for Active; 'I' for Inactive)
REMARK    1  A    between atoms: C_1  and  C_2
REMARK    2  A    between atoms: C_2  and  C_3
REMARK    3  A    between atoms: C_3  and  C_4
REMARK    4  A    between atoms: C_4  and  N_5
REMARK    5  A    between atoms: C_18  and  S_19
REMARK    6  A    between atoms: S_19  and  C_20
REMARK    7  A    between atoms: C_20  and  C_21
REMARK    8  A    between atoms: N_23  and  C_24
REMARK    9  A    between atoms: C_28  and  C_31
REMARK   10  A    between atoms: C_29  and  C_30
REMARK                            x       y       z     vdW  Elec       q    Type
REMARK                         _______ _______ _______ _____ _____    ______ ____
ROOT
ATOM      1  N   UNL     1      -2.800  -2.538   0.015  0.00  0.00    -0.287 N 
ATOM      2  C   UNL     1      -3.438  -2.766   1.188  0.00  0.00    +0.269 A 
ATOM      3  O   UNL     1      -2.881  -2.560   2.253  0.00  0.00    -0.266 OA
ATOM      4  C   UNL     1      -4.751  -3.244   1.145  0.00  0.00    +0.105 A 
ATOM      5  C   UNL     1      -5.397  -3.482  -0.067  0.00  0.00    +0.095 A 
ATOM      6  C   UNL     1      -6.780  -3.984   0.026  0.00  0.00    +0.034 A 
ATOM      7  C   UNL     1      -7.655  -4.306  -1.038  0.00  0.00    +0.014 A 
ATOM      8  C   UNL     1      -8.919  -4.765  -0.745  0.00  0.00    +0.020 A 
ATOM      9  C   UNL     1      -9.324  -4.907   0.573  0.00  0.00    +0.112 A 
ATOM     10  N   UNL     1      -8.503  -4.605   1.560  0.00  0.00    -0.248 NA
ATOM     11  C   UNL     1      -7.284  -4.163   1.327  0.00  0.00    +0.111 A 
ATOM     12  S   UNL     1      -5.944  -3.673   2.384  0.00  0.00    -0.062 S 
ATOM     13  N   UNL     1      -4.684  -3.227  -1.199  0.00  0.00    -0.222 NA
ATOM     14  C   UNL     1      -3.458  -2.775  -1.157  0.00  0.00    +0.173 A 
ENDROOT
BRANCH   1  15
ATOM     15  C   UNL     1      -1.423  -2.038   0.005  0.00  0.00    +0.127 C 
BRANCH  15  16
ATOM     16  C   UNL     1      -1.437  -0.508   0.004  0.00  0.00    +0.021 C 
BRANCH  16  18
ATOM     17  C   UNL     1      -0.012   1.544  -0.007  0.00  0.00    +0.004 C 
ATOM     18  C   UNL     1       0.001   0.015  -0.006  0.00  0.00    -0.002 C 
ENDBRANCH  16  18
ENDBRANCH  15  16
ENDBRANCH   1  15
BRANCH  14  19
ATOM     19  S   UNL     1      -2.618  -2.466  -2.675  0.00  0.00    -0.078 S 
BRANCH  19  20
ATOM     20  C   UNL     1      -3.834  -2.905  -3.946  0.00  0.00    +0.173 C 
BRANCH  20  21
ATOM     21  C   UNL     1      -3.236  -2.685  -5.312  0.00  0.00    +0.227 C 
ATOM     22  O   UNL     1      -2.100  -2.272  -5.416  0.00  0.00    -0.275 OA
ATOM     23  N   UNL     1      -3.962  -2.947  -6.416  0.00  0.00    -0.285 N 
ATOM     24  H   UNL     1      -4.840  -3.352  -6.335  0.00  0.00    +0.155 HD
BRANCH  23  25
ATOM     25  C   UNL     1      -3.450  -2.634  -7.681  0.00  0.00    +0.037 A 
ATOM     26  C   UNL     1      -2.495  -1.635  -7.817  0.00  0.00    +0.023 A 
ATOM     27  C   UNL     1      -1.992  -1.328  -9.066  0.00  0.00    +0.002 A 
ATOM     28  C   UNL     1      -2.438  -2.015 -10.181  0.00  0.00    +0.004 A 
ATOM     29  C   UNL     1      -3.389  -3.010 -10.048  0.00  0.00    -0.046 A 
ATOM     30  C   UNL     1      -3.891  -3.326  -8.801  0.00  0.00    -0.026 A 
ATOM     31  C   UNL     1      -4.922  -4.416  -8.656  0.00  0.00    +0.046 C 
ATOM     32  C   UNL     1      -3.873  -3.756 -11.265  0.00  0.00    +0.044 C 
ENDBRANCH  23  25
ENDBRANCH  20  21
ENDBRANCH  19  20
ENDBRANCH  14  19
TORSDOF 7
