REMARK  Name = ZINC02828269
REMARK  7 active torsions:
REMARK  status: ('A' for Active; 'I' for Inactive)
REMARK    1  A    between atoms: C_8  and  C_10
REMARK    2  A    between atoms: C_13  and  N_17
REMARK    3  A    between atoms: C_15  and  O_16
REMARK    4  A    between atoms: N_17  and  C_18
REMARK    5  A    between atoms: C_18  and  N_20
REMARK    6  A    between atoms: C_21  and  C_23
REMARK    7  A    between atoms: C_24  and  C_25
REMARK                            x       y       z     vdW  Elec       q    Type
REMARK                         _______ _______ _______ _____ _____    ______ ____
ROOT
ATOM      1  C   UNL     1       3.674  -3.328  -0.027  0.00  0.00    +0.078 A 
ATOM      2  C   UNL     1       3.044  -4.516   0.356  0.00  0.00    +0.018 A 
ATOM      3  C   UNL     1       3.742  -5.702   0.334  0.00  0.00    +0.024 A 
ATOM      4  C   UNL     1       5.074  -5.724  -0.070  0.00  0.00    +0.036 A 
ATOM      5  C   UNL     1       5.708  -4.549  -0.452  0.00  0.00    +0.069 A 
ATOM      6  C   UNL     1       5.014  -3.352  -0.439  0.00  0.00    +0.131 A 
ENDROOT
BRANCH   1  14
ATOM      7  C   UNL     1       0.110   1.451   0.297  0.00  0.00    +0.002 A 
ATOM      8  C   UNL     1       1.234   2.124  -0.161  0.00  0.00    +0.004 A 
ATOM      9  C   UNL     1       2.405   1.439  -0.412  0.00  0.00    +0.048 A 
ATOM     10  C   UNL     1       2.463   0.070  -0.207  0.00  0.00    +0.156 A 
ATOM     11  C   UNL     1       1.328  -0.615   0.257  0.00  0.00    +0.110 A 
ATOM     12  C   UNL     1       0.149   0.091   0.506  0.00  0.00    +0.031 A 
ATOM     13  N   UNL     1       1.677  -1.923   0.362  0.00  0.00    -0.209 NA
ATOM     14  C   UNL     1       2.929  -2.055  -0.005  0.00  0.00    +0.232 A 
ATOM     15  O   UNL     1       3.435  -0.858  -0.357  0.00  0.00    -0.435 OA
ENDBRANCH   1  14
BRANCH   6  16
ATOM     16  O   UNL     1       5.630  -2.203  -0.818  0.00  0.00    -0.506 OA
ATOM     17  H   UNL     1       6.067  -1.734  -0.094  0.00  0.00    +0.292 HD
ENDBRANCH   6  16
BRANCH   4  18
ATOM     18  N   UNL     1       5.775  -6.930  -0.090  0.00  0.00    -0.296 N 
ATOM     19  H   UNL     1       5.714  -7.540   0.663  0.00  0.00    +0.154 HD
BRANCH  18  20
ATOM     20  C   UNL     1       6.538  -7.249  -1.154  0.00  0.00    +0.141 C 
ATOM     21  S   UNL     1       6.733  -6.129  -2.434  0.00  0.00    -0.018 S 
BRANCH  20  22
ATOM     22  N   UNL     1       7.146  -8.450  -1.212  0.00  0.00    -0.264 N 
ATOM     23  C   UNL     1       7.909  -8.769  -2.276  0.00  0.00    +0.242 C 
ATOM     24  O   UNL     1       8.048  -7.973  -3.186  0.00  0.00    -0.270 OA
ATOM     25  H   UNL     1       7.036  -9.085  -0.487  0.00  0.00    +0.157 HD
BRANCH  23  26
ATOM     26  C   UNL     1       8.570 -10.072  -2.339  0.00  0.00    +0.068 C 
ATOM     27  C   UNL     1       9.333 -10.392  -3.405  0.00  0.00    +0.013 C 
BRANCH  27  28
ATOM     28  C   UNL     1       9.998 -11.703  -3.467  0.00  0.00    -0.025 A 
ATOM     29  C   UNL     1       9.836 -12.623  -2.426  0.00  0.00    +0.009 A 
ATOM     30  C   UNL     1      10.461 -13.850  -2.492  0.00  0.00    +0.020 A 
ATOM     31  C   UNL     1      11.249 -14.172  -3.585  0.00  0.00    +0.041 A 
ATOM     32  C   UNL     1      11.414 -13.265  -4.620  0.00  0.00    +0.020 A 
ATOM     33  C   UNL     1      10.790 -12.037  -4.571  0.00  0.00    +0.009 A 
ATOM     34 CL   UNL     1      12.034 -15.719  -3.659  0.00  0.00    -0.084 Cl
ENDBRANCH  27  28
ENDBRANCH  23  26
ENDBRANCH  20  22
ENDBRANCH  18  20
ENDBRANCH   4  18
TORSDOF 7
