REMARK  Name = ZINC37060876
REMARK  7 active torsions:
REMARK  status: ('A' for Active; 'I' for Inactive)
REMARK    1  A    between atoms: C_1  and  C_2
REMARK    2  A    between atoms: C_3  and  C_9
REMARK    3  A    between atoms: C_4  and  C_8
REMARK    4  A    between atoms: N_5  and  C_7
REMARK    5  A    between atoms: C_9  and  N_10
REMARK    6  A    between atoms: N_10  and  C_11
REMARK    7  A    between atoms: C_15  and  N_17
REMARK                            x       y       z     vdW  Elec       q    Type
REMARK                         _______ _______ _______ _____ _____    ______ ____
ROOT
ATOM      1  N   UNL     1       1.370  -0.170  -3.036  0.00  0.00    -0.340 N 
ATOM      2  H   UNL     1       2.114  -0.358  -2.442  0.00  0.00    +0.146 HD
ENDROOT
BRANCH   1   3
ATOM      3  C   UNL     1       1.613   0.267  -4.341  0.00  0.00    +0.030 A 
ATOM      4  C   UNL     1       0.549   0.542  -5.192  0.00  0.00    +0.024 A 
ATOM      5  C   UNL     1       0.792   0.974  -6.481  0.00  0.00    +0.024 A 
ATOM      6  C   UNL     1       2.093   1.131  -6.926  0.00  0.00    +0.071 A 
ATOM      7  C   UNL     1       3.154   0.857  -6.081  0.00  0.00    +0.146 A 
ATOM      8  C   UNL     1       2.917   0.431  -4.789  0.00  0.00    +0.057 A 
ATOM      9 CL   UNL     1       2.394   1.674  -8.547  0.00  0.00    -0.081 Cl
BRANCH   7  10
ATOM     10  N   UNL     1       4.544   1.027  -6.561  0.00  0.00    +0.058 N 
ATOM     11  O   UNL     1       5.471   0.787  -5.824  0.00  0.00    -0.126 OA
ATOM     12  O   UNL     1       4.752   1.404  -7.691  0.00  0.00    -0.126 OA
ENDBRANCH   7  10
ENDBRANCH   1   3
BRANCH   1  13
ATOM     13  C   UNL     1      -0.006  -0.343  -2.566  0.00  0.00    +0.140 C 
BRANCH  13  16
ATOM     14  C   UNL     1      -0.018   1.503   0.010  0.00  0.00    +0.068 C 
ATOM     15  C   UNL     1       0.002  -0.004   0.002  0.00  0.00    +0.065 A 
ATOM     16  C   UNL     1       0.008  -0.818  -1.135  0.00  0.00    +0.013 A 
ATOM     17  C   UNL     1       0.028  -2.107  -0.725  0.00  0.00    +0.041 A 
ATOM     18  N   UNL     1       0.034  -2.109   0.625  0.00  0.00    -0.271 N 
ATOM     19  N   UNL     1       0.023  -0.777   1.058  0.00  0.00    -0.176 NA
ATOM     20  C   UNL     1       0.055  -3.295   1.485  0.00  0.00    +0.172 C 
ATOM     21  C   UNL     1       0.040  -3.323  -1.615  0.00  0.00    +0.065 C 
ENDBRANCH  13  16
ENDBRANCH   1  13
TORSDOF 4
