REMARK  Name = ZINC56591309
REMARK  6 active torsions:
REMARK  status: ('A' for Active; 'I' for Inactive)
REMARK    1  A    between atoms: C_1  and  C_2
REMARK    2  A    between atoms: C_3  and  C_25
REMARK    3  A    between atoms: C_7  and  N_8
REMARK    4  A    between atoms: C_19  and  N_20
REMARK    5  A    between atoms: C_21  and  C_23
REMARK    6  A    between atoms: N_27  and  C_28
REMARK                            x       y       z     vdW  Elec       q    Type
REMARK                         _______ _______ _______ _____ _____    ______ ____
ROOT
ATOM      1  N   UNL     1       0.664  -0.106   1.833  0.00  0.00    -0.269 N 
ATOM      2  C   UNL     1       0.821  -0.859   2.940  0.00  0.00    +0.307 C 
ATOM      3  O   UNL     1       0.975  -2.061   2.842  0.00  0.00    -0.252 OA
ATOM      4  N   UNL     1       0.808  -0.278   4.157  0.00  0.00    -0.281 N 
ATOM      5  C   UNL     1       1.087  -1.053   5.378  0.00  0.00    +0.114 C 
ATOM      6  C   UNL     1       2.370  -0.503   5.999  0.00  0.00    +0.056 C 
ATOM      7  C   UNL     1       2.331   1.001   6.068  0.00  0.00    -0.020 A 
ATOM      8  C   UNL     1       1.491   1.763   5.288  0.00  0.00    -0.025 A 
ATOM      9  C   UNL     1       1.518   3.148   5.392  0.00  0.00    +0.005 A 
ATOM     10  C   UNL     1       2.373   3.771   6.279  0.00  0.00    +0.002 A 
ATOM     11  C   UNL     1       3.212   3.012   7.072  0.00  0.00    +0.023 A 
ATOM     12  C   UNL     1       3.193   1.630   6.967  0.00  0.00    +0.037 A 
ATOM     13  C   UNL     1       0.520   1.151   4.317  0.00  0.00    +0.144 C 
ATOM     14  H   UNL     1       0.488   0.845   1.914  0.00  0.00    +0.156 HD
ENDROOT
BRANCH   1  21
ATOM     15  C   UNL     1       1.328   1.554  -0.377  0.00  0.00    +0.046 C 
ATOM     16  C   UNL     1       1.075   0.077  -0.537  0.00  0.00    -0.017 A 
ATOM     17  C   UNL     1       1.169  -0.517  -1.795  0.00  0.00    +0.041 A 
ATOM     18  C   UNL     1       0.933  -1.886  -1.935  0.00  0.00    +0.013 A 
ATOM     19  C   UNL     1       0.608  -2.646  -0.830  0.00  0.00    +0.003 A 
ATOM     20  C   UNL     1       0.515  -2.057   0.417  0.00  0.00    +0.023 A 
ATOM     21  C   UNL     1       0.753  -0.697   0.567  0.00  0.00    +0.038 A 
BRANCH  17  22
ATOM     22  C   UNL     1       1.517   0.300  -2.977  0.00  0.00    +0.244 C 
ATOM     23  O   UNL     1       1.827   1.467  -2.839  0.00  0.00    -0.270 OA
ATOM     24  N   UNL     1       1.491  -0.249  -4.208  0.00  0.00    -0.314 N 
ATOM     25  C   UNL     1       1.836   0.560  -5.379  0.00  0.00    +0.128 C 
ATOM     26  H   UNL     1       1.244  -1.181  -4.318  0.00  0.00    +0.149 HD
ENDBRANCH  17  22
ENDBRANCH   1  21
BRANCH  12  27
ATOM     27  N   UNL     1       4.043   0.861   7.769  0.00  0.00    -0.285 N 
ATOM     28  C   UNL     1       4.465   1.340   8.956  0.00  0.00    +0.214 C 
ATOM     29  O   UNL     1       4.067   2.414   9.353  0.00  0.00    -0.276 OA
ATOM     30  C   UNL     1       5.432   0.539   9.790  0.00  0.00    +0.109 C 
ATOM     31  H   UNL     1       4.329  -0.017   7.471  0.00  0.00    +0.155 HD
ENDBRANCH  12  27
TORSDOF 3
