REMARK  Name = ZINC36152936
REMARK  6 active torsions:
REMARK  status: ('A' for Active; 'I' for Inactive)
REMARK    1  A    between atoms: C_1  and  C_2
REMARK    2  A    between atoms: C_5  and  C_21
REMARK    3  A    between atoms: C_6  and  C_8
REMARK    4  A    between atoms: C_15  and  C_18
REMARK    5  A    between atoms: C_18  and  C_19
REMARK    6  A    between atoms: C_18  and  C_20
REMARK                            x       y       z     vdW  Elec       q    Type
REMARK                         _______ _______ _______ _____ _____    ______ ____
ROOT
ATOM      1  C   UNL     1       0.054  -2.845   2.489  0.00  0.00    +0.128 C 
ATOM      2  C   UNL     1       1.505  -3.205   2.844  0.00  0.00    +0.106 C 
ATOM      3  S   UNL     1       1.436  -4.367   4.252  0.00  0.00    -0.082 S 
ATOM      4  C   UNL     1       0.155  -3.629   5.221  0.00  0.00    +0.209 A 
ATOM      5  N   UNL     1      -0.217  -3.901   6.436  0.00  0.00    -0.121 NA
ATOM      6  N   UNL     1      -1.202  -3.134   6.761  0.00  0.00    -0.132 NA
ATOM      7  C   UNL     1      -1.500  -2.338   5.769  0.00  0.00    +0.154 A 
ATOM      8  N   UNL     1      -0.637  -2.616   4.750  0.00  0.00    -0.225 N 
ATOM      9  N   UNL     1      -0.550  -2.021   3.534  0.00  0.00    -0.273 N 
ATOM     10  H   UNL     1      -0.089  -1.126   3.601  0.00  0.00    +0.167 HD
ENDROOT
BRANCH   1  16
ATOM     11  C   UNL     1      -0.018   1.503   0.010  0.00  0.00    +0.044 C 
ATOM     12  C   UNL     1       0.002  -0.004   0.002  0.00  0.00    -0.050 A 
ATOM     13  C   UNL     1       0.006  -0.689  -1.199  0.00  0.00    +0.003 A 
ATOM     14  C   UNL     1       0.025  -2.071  -1.207  0.00  0.00    +0.004 A 
ATOM     15  C   UNL     1       0.040  -2.768  -0.013  0.00  0.00    -0.045 A 
ATOM     16  C   UNL     1       0.037  -2.084   1.188  0.00  0.00    -0.022 A 
ATOM     17  C   UNL     1       0.023  -0.702   1.195  0.00  0.00    +0.009 A 
ATOM     18  C   UNL     1       0.059  -4.275  -0.021  0.00  0.00    +0.044 C 
ENDBRANCH   1  16
BRANCH   7  19
ATOM     19  C   UNL     1      -2.594  -1.302   5.754  0.00  0.00    +0.052 C 
ATOM     20  C   UNL     1      -3.945  -1.984   5.980  0.00  0.00    +0.015 C 
ATOM     21  C   UNL     1      -2.346  -0.281   6.867  0.00  0.00    +0.015 C 
ENDBRANCH   7  19
TORSDOF 2
