REMARK  Name = ZINC66928351
REMARK  6 active torsions:
REMARK  status: ('A' for Active; 'I' for Inactive)
REMARK    1  A    between atoms: C_1  and  C_2
REMARK    2  A    between atoms: C_2  and  C_3
REMARK    3  A    between atoms: C_10  and  C_15
REMARK    4  A    between atoms: N_17  and  N_18
REMARK    5  A    between atoms: C_19  and  C_21
REMARK    6  A    between atoms: C_21  and  C_22
REMARK                            x       y       z     vdW  Elec       q    Type
REMARK                         _______ _______ _______ _____ _____    ______ ____
ROOT
ATOM      1  C   UNL     1      -1.037  -3.213  -5.854  0.00  0.00    +0.260 C 
ATOM      2  O   UNL     1      -0.728  -4.385  -5.747  0.00  0.00    -0.269 OA
ATOM      3  N   UNL     1      -1.131  -2.650  -7.075  0.00  0.00    -0.230 N 
ATOM      4  H   UNL     1      -1.377  -1.716  -7.160  0.00  0.00    +0.173 HD
ENDROOT
BRANCH   1  11
ATOM      5  C   UNL     1      -1.433  -0.534   0.013  0.00  0.00    +0.157 C 
ATOM      6  C   UNL     1      -1.415  -2.037   0.124  0.00  0.00    +0.237 C 
ATOM      7  O   UNL     1      -1.448  -2.559   1.219  0.00  0.00    -0.273 OA
ATOM      8  N   UNL     1      -1.364  -2.806  -0.979  0.00  0.00    -0.282 N 
ATOM      9  C   UNL     1      -1.466  -2.238  -2.254  0.00  0.00    +0.055 A 
ATOM     10  C   UNL     1      -1.210  -2.994  -3.381  0.00  0.00    +0.038 A 
ATOM     11  C   UNL     1      -1.308  -2.409  -4.647  0.00  0.00    +0.040 A 
ATOM     12  C   UNL     1      -1.664  -1.063  -4.770  0.00  0.00    +0.015 A 
ATOM     13  C   UNL     1      -1.921  -0.312  -3.644  0.00  0.00    +0.025 A 
ATOM     14  C   UNL     1      -1.828  -0.893  -2.388  0.00  0.00    +0.049 A 
ATOM     15  N   UNL     1      -2.108  -0.151  -1.236  0.00  0.00    -0.331 N 
ATOM     16  H   UNL     1      -1.254  -3.766  -0.889  0.00  0.00    +0.155 HD
ATOM     17  H   UNL     1      -2.729   0.593  -1.259  0.00  0.00    +0.147 HD
BRANCH   5  19
ATOM     18  C   UNL     1      -0.019   1.526   0.010  0.00  0.00    +0.006 C 
ATOM     19  C   UNL     1       0.002  -0.004   0.002  0.00  0.00    +0.028 C 
ENDBRANCH   5  19
ENDBRANCH   1  11
BRANCH   3  20
ATOM     20  N   UNL     1      -0.873  -3.413  -8.221  0.00  0.00    -0.234 N 
ATOM     21  C   UNL     1      -0.967  -2.850  -9.441  0.00  0.00    +0.233 C 
ATOM     22  O   UNL     1      -1.275  -1.682  -9.548  0.00  0.00    -0.274 OA
ATOM     23  H   UNL     1      -0.627  -4.348  -8.136  0.00  0.00    +0.173 HD
BRANCH  21  24
ATOM     24  C   UNL     1      -0.690  -3.671 -10.674  0.00  0.00    +0.135 C 
BRANCH  24  25
ATOM     25  C   UNL     1      -0.863  -2.812 -11.900  0.00  0.00    -0.003 A 
ATOM     26  C   UNL     1      -2.070  -2.803 -12.573  0.00  0.00    +0.007 A 
ATOM     27  C   UNL     1      -2.230  -2.015 -13.697  0.00  0.00    +0.000 A 
ATOM     28  C   UNL     1      -1.182  -1.235 -14.150  0.00  0.00    +0.003 A 
ATOM     29  C   UNL     1       0.026  -1.242 -13.478  0.00  0.00    +0.038 A 
ATOM     30  C   UNL     1       0.185  -2.027 -12.349  0.00  0.00    +0.127 A 
ATOM     31  F   UNL     1       1.364  -2.031 -11.689  0.00  0.00    -0.205 F 
ENDBRANCH  24  25
ENDBRANCH  21  24
ENDBRANCH   3  20
TORSDOF 5
