REMARK  Name = ZINC60378815
REMARK  11 active torsions:
REMARK  status: ('A' for Active; 'I' for Inactive)
REMARK    1  A    between atoms: C_1  and  C_2
REMARK    2  A    between atoms: C_2  and  N_3
REMARK    3  A    between atoms: C_7  and  C_8
REMARK    4  A    between atoms: C_8  and  N_9
REMARK    5  A    between atoms: N_9  and  C_10
REMARK    6  A    between atoms: N_9  and  C_18
REMARK    7  A    between atoms: C_10  and  C_11
REMARK    8  A    between atoms: C_11  and  C_12
REMARK    9  A    between atoms: C_19  and  N_34
REMARK   10  A    between atoms: N_20  and  C_27
REMARK   11  A    between atoms: C_27  and  C_28
REMARK                            x       y       z     vdW  Elec       q    Type
REMARK                         _______ _______ _______ _____ _____    ______ ____
ROOT
ATOM      1  C   UNL     1       4.098   1.773  -1.097  0.00  0.00    +0.134 A 
ATOM      2  C   UNL     1       3.886   2.722  -2.060  0.00  0.00    +0.127 A 
ATOM      3  N   UNL     1       4.951   3.176  -2.806  0.00  0.00    -0.276 N 
ATOM      4  C   UNL     1       6.188   2.691  -2.591  0.00  0.00    +0.331 A 
ATOM      5  O   UNL     1       7.116   3.104  -3.259  0.00  0.00    -0.246 OA
ATOM      6  N   UNL     1       6.413   1.758  -1.649  0.00  0.00    -0.273 N 
ATOM      7  H   UNL     1       7.313   1.422  -1.511  0.00  0.00    +0.173 HD
ATOM      8  C   UNL     1       5.402   1.289  -0.891  0.00  0.00    +0.277 A 
ATOM      9  O   UNL     1       5.616   0.446  -0.036  0.00  0.00    -0.266 OA
ENDROOT
BRANCH   2  10
ATOM     10  N   UNL     1       2.622   3.219  -2.281  0.00  0.00    -0.343 N 
ATOM     11  H   UNL     1       1.881   2.921  -1.730  0.00  0.00    +0.144 HD
ATOM     12  H   UNL     1       2.472   3.866  -2.987  0.00  0.00    +0.144 HD
ENDBRANCH   2  10
BRANCH   1  13
ATOM     13  N   UNL     1       3.022   1.290  -0.317  0.00  0.00    -0.316 N 
BRANCH  13  14
ATOM     14  C   UNL     1       2.646  -0.125  -0.383  0.00  0.00    +0.177 C 
BRANCH  14  19
ATOM     15  N   UNL     1       1.670  -0.469  -2.706  0.00  0.00    -0.335 N 
ATOM     16  C   UNL     1       0.415  -0.597  -3.237  0.00  0.00    +0.104 A 
ATOM     17  C   UNL     1      -0.454  -0.498  -2.213  0.00  0.00    +0.102 A 
ATOM     18  N   UNL     1       0.252  -0.315  -1.087  0.00  0.00    -0.348 N 
ATOM     19  C   UNL     1       1.525  -0.301  -1.374  0.00  0.00    +0.105 A 
ATOM     20  H   UNL     1      -0.125  -0.212  -0.199  0.00  0.00    +0.166 HD
BRANCH  15  22
ATOM     21  C   UNL     1       3.491  -1.938  -3.419  0.00  0.00    +0.027 C 
ATOM     22  C   UNL     1       2.935  -0.512  -3.444  0.00  0.00    +0.119 C 
ENDBRANCH  15  22
ENDBRANCH  14  19
ENDBRANCH  13  14
BRANCH  13  23
ATOM     23  C   UNL     1       2.282   2.204   0.556  0.00  0.00    +0.110 C 
BRANCH  23  24
ATOM     24  C   UNL     1       2.970   2.274   1.921  0.00  0.00    +0.049 C 
BRANCH  24  25
ATOM     25  C   UNL     1       2.210   3.214   2.820  0.00  0.00    -0.072 C 
ATOM     26  C   UNL     1       1.333   2.707   3.626  0.00  0.00    -0.028 C 
ATOM     27  C   UNL     1       0.492   3.515   4.570  0.00  0.00    +0.027 C 
ATOM     28  C   UNL     1       1.097   4.909   4.753  0.00  0.00    +0.004 C 
ATOM     29  C   UNL     1       1.392   5.496   3.367  0.00  0.00    +0.005 C 
ATOM     30  C   UNL     1       2.520   4.680   2.729  0.00  0.00    +0.030 C 
ENDBRANCH  24  25
ENDBRANCH  23  24
ENDBRANCH  13  23
ENDBRANCH   1  13
BRANCH   3  31
ATOM     31  C   UNL     1       4.736   4.192  -3.839  0.00  0.00    +0.163 C 
BRANCH  31  32
ATOM     32  C   UNL     1       4.897   5.563  -3.236  0.00  0.00    -0.028 A 
ATOM     33  C   UNL     1       3.804   6.211  -2.691  0.00  0.00    +0.005 A 
ATOM     34  C   UNL     1       3.952   7.470  -2.138  0.00  0.00    +0.000 A 
ATOM     35  C   UNL     1       5.192   8.080  -2.130  0.00  0.00    +0.000 A 
ATOM     36  C   UNL     1       6.285   7.432  -2.674  0.00  0.00    +0.000 A 
ATOM     37  C   UNL     1       6.138   6.171  -3.223  0.00  0.00    +0.005 A 
ENDBRANCH  31  32
ENDBRANCH   3  31
TORSDOF 10
