REMARK  Name = ZINC36608986
REMARK  16 active torsions:
REMARK  status: ('A' for Active; 'I' for Inactive)
REMARK    1  A    between atoms: C_1  and  C_2
REMARK    2  A    between atoms: C_2  and  C_3
REMARK    3  A    between atoms: C_2  and  C_4
REMARK    4  A    between atoms: C_2  and  C_5
REMARK    5  A    between atoms: C_5  and  C_6
REMARK    6  A    between atoms: C_6  and  C_7
REMARK    7  A    between atoms: C_6  and  C_8
REMARK    8  A    between atoms: C_6  and  N_9
REMARK    9  A    between atoms: C_10  and  C_12
REMARK   10  A    between atoms: C_12  and  C_14
REMARK   11  A    between atoms: C_12  and  N_23
REMARK   12  A    between atoms: C_17  and  O_22
REMARK   13  A    between atoms: C_18  and  O_20
REMARK   14  A    between atoms: O_20  and  C_21
REMARK   15  A    between atoms: N_23  and  C_24
REMARK   16  A    between atoms: C_30  and  C_32
REMARK                            x       y       z     vdW  Elec       q    Type
REMARK                         _______ _______ _______ _____ _____    ______ ____
ROOT
ATOM      1  C   UNL     1       5.178   0.296  -4.007  0.00  0.00    +0.198 C 
ENDROOT
BRANCH   1   2
ATOM      2  C   UNL     1       4.389   1.233  -4.886  0.00  0.00    -0.014 A 
ATOM      3  C   UNL     1       4.797   2.545  -5.037  0.00  0.00    +0.010 A 
ATOM      4  C   UNL     1       4.077   3.408  -5.842  0.00  0.00    +0.049 A 
ATOM      5  C   UNL     1       2.944   2.958  -6.500  0.00  0.00    +0.158 A 
ATOM      6  C   UNL     1       2.534   1.637  -6.349  0.00  0.00    +0.162 A 
ATOM      7  C   UNL     1       3.263   0.776  -5.544  0.00  0.00    +0.055 A 
BRANCH   6   8
ATOM      8  O   UNL     1       1.422   1.190  -6.993  0.00  0.00    -0.491 OA
ATOM      9  C   UNL     1       1.061  -0.177  -6.791  0.00  0.00    +0.277 C 
ENDBRANCH   6   8
BRANCH   5  10
ATOM     10  O   UNL     1       2.235   3.805  -7.292  0.00  0.00    -0.503 OA
ATOM     11  H   UNL     1       2.525   3.817  -8.215  0.00  0.00    +0.292 HD
ENDBRANCH   5  10
ENDBRANCH   1   2
BRANCH   1  13
ATOM     12  N   UNL     1       3.846   0.792  -1.982  0.00  0.00    -0.308 N 
ATOM     13  C   UNL     1       5.058   0.736  -2.570  0.00  0.00    +0.239 C 
ATOM     14  O   UNL     1       6.051   1.038  -1.943  0.00  0.00    -0.273 OA
ATOM     15  H   UNL     1       3.052   0.550  -2.483  0.00  0.00    +0.149 HD
BRANCH  12  16
ATOM     16  C   UNL     1       3.730   1.219  -0.585  0.00  0.00    +0.030 C 
ATOM     17  C   UNL     1       4.580   2.471  -0.362  0.00  0.00    +0.031 C 
ATOM     18  C   UNL     1       4.221   0.099   0.334  0.00  0.00    +0.031 C 
BRANCH  16  19
ATOM     19  C   UNL     1       2.266   1.533  -0.268  0.00  0.00    +0.031 C 
BRANCH  19  21
ATOM     20  C   UNL     1       1.281   1.414  -2.562  0.00  0.00    +0.010 C 
ATOM     21  C   UNL     1       1.661   2.349  -1.412  0.00  0.00    -0.036 C 
ATOM     22  C   UNL     1       2.684   3.374  -1.904  0.00  0.00    +0.010 C 
ATOM     23  C   UNL     1       0.411   3.077  -0.912  0.00  0.00    +0.010 C 
ENDBRANCH  19  21
ENDBRANCH  16  19
ENDBRANCH  12  16
ENDBRANCH   1  13
BRANCH   1  24
ATOM     24  N   UNL     1       6.587   0.320  -4.408  0.00  0.00    -0.251 N 
ATOM     25  C   UNL     1       7.481  -0.462  -3.773  0.00  0.00    +0.252 C 
ATOM     26  O   UNL     1       8.672  -0.289  -3.947  0.00  0.00    -0.270 OA
BRANCH  25  27
ATOM     27  C   UNL     1       7.016  -1.530  -2.864  0.00  0.00    +0.039 A 
ATOM     28  C   UNL     1       5.670  -1.601  -2.497  0.00  0.00    +0.013 A 
ATOM     29  C   UNL     1       5.241  -2.601  -1.648  0.00  0.00    +0.002 A 
ATOM     30  C   UNL     1       6.141  -3.533  -1.161  0.00  0.00    +0.020 A 
ATOM     31  C   UNL     1       7.476  -3.469  -1.520  0.00  0.00    +0.042 A 
ATOM     32  C   UNL     1       7.917  -2.476  -2.373  0.00  0.00    +0.033 A 
ATOM     33 CL   UNL     1       8.597  -4.642  -0.903  0.00  0.00    -0.084 Cl
ENDBRANCH  25  27
BRANCH  24  34
ATOM     34  C   UNL     1       7.003   1.153  -5.451  0.00  0.00    +0.038 A 
ATOM     35  C   UNL     1       7.899   2.185  -5.203  0.00  0.00    +0.023 A 
ATOM     36  C   UNL     1       8.308   3.006  -6.235  0.00  0.00    +0.002 A 
ATOM     37  C   UNL     1       7.826   2.802  -7.515  0.00  0.00    +0.000 A 
ATOM     38  C   UNL     1       6.933   1.776  -7.766  0.00  0.00    +0.002 A 
ATOM     39  C   UNL     1       6.525   0.948  -6.739  0.00  0.00    +0.023 A 
ENDBRANCH  24  34
ENDBRANCH   1  24
TORSDOF 10
