REMARK  Name = ZINC12623286
REMARK  8 active torsions:
REMARK  status: ('A' for Active; 'I' for Inactive)
REMARK    1  A    between atoms: C_1  and  C_2
REMARK    2  A    between atoms: C_7  and  N_12
REMARK    3  A    between atoms: C_9  and  C_11
REMARK    4  A    between atoms: C_13  and  C_15
REMARK    5  A    between atoms: C_15  and  C_17
REMARK    6  A    between atoms: C_15  and  O_18
REMARK    7  A    between atoms: O_18  and  C_19
REMARK    8  A    between atoms: C_19  and  C_21
REMARK                            x       y       z     vdW  Elec       q    Type
REMARK                         _______ _______ _______ _____ _____    ______ ____
ROOT
ATOM      1  O   UNL     1       2.414  -0.463  -0.022  0.00  0.00    -0.448 OA
ENDROOT
BRANCH   1   2
ATOM      2  C   UNL     1       3.693  -1.151  -0.038  0.00  0.00    +0.259 C 
ATOM      3  C   UNL     1       4.129  -1.385  -1.486  0.00  0.00    +0.062 C 
BRANCH   2   5
ATOM      4  N   UNL     1       4.646  -3.247   0.865  0.00  0.00    -0.309 N 
ATOM      5  C   UNL     1       3.559  -2.476   0.667  0.00  0.00    +0.254 C 
ATOM      6  O   UNL     1       2.473  -2.849   1.056  0.00  0.00    -0.272 OA
ATOM      7  H   UNL     1       5.516  -2.949   0.554  0.00  0.00    +0.149 HD
BRANCH   4  13
ATOM      8  C   UNL     1       4.183  -7.445   1.469  0.00  0.00    +0.008 C 
ATOM      9  C   UNL     1       5.522  -6.804   1.838  0.00  0.00    -0.009 C 
ATOM     10  C   UNL     1       5.583  -6.585   3.351  0.00  0.00    +0.003 C 
ATOM     11  C   UNL     1       4.441  -5.662   3.779  0.00  0.00    +0.002 C 
ATOM     12  C   UNL     1       4.577  -4.317   3.063  0.00  0.00    +0.022 C 
ATOM     13  C   UNL     1       4.516  -4.535   1.550  0.00  0.00    +0.076 C 
ATOM     14  C   UNL     1       5.659  -5.459   1.122  0.00  0.00    +0.009 C 
ATOM     15  C   UNL     1       5.598  -5.678  -0.391  0.00  0.00    +0.009 C 
ENDBRANCH   4  13
ENDBRANCH   2   5
ENDBRANCH   1   2
BRANCH   1  16
ATOM     16  C   UNL     1       2.445   0.885  -0.016  0.00  0.00    +0.356 C 
ATOM     17  O   UNL     1       3.510   1.469  -0.023  0.00  0.00    -0.243 OA
BRANCH  16  18
ATOM     18  C   UNL     1       1.186   1.650  -0.000  0.00  0.00    +0.128 A 
ATOM     19  C   UNL     1       1.240   3.005   0.006  0.00  0.00    +0.041 A 
ATOM     20  C   UNL     1      -0.004   3.774   0.022  0.00  0.00    -0.011 A 
ATOM     21  C   UNL     1      -0.006   5.170   0.029  0.00  0.00    +0.009 A 
ATOM     22  C   UNL     1      -1.205   5.848   0.044  0.00  0.00    +0.001 A 
ATOM     23  C   UNL     1      -2.409   5.157   0.051  0.00  0.00    +0.001 A 
ATOM     24  C   UNL     1      -2.431   3.779   0.044  0.00  0.00    +0.014 A 
ATOM     25  C   UNL     1      -1.231   3.072   0.029  0.00  0.00    +0.046 A 
ATOM     26  C   UNL     1      -1.199   1.602   0.017  0.00  0.00    +0.257 A 
ATOM     27  O   UNL     1      -2.236   0.965   0.019  0.00  0.00    -0.267 OA
ATOM     28  N   UNL     1      -0.011   0.966   0.007  0.00  0.00    -0.316 N 
ATOM     29  H   UNL     1       0.002  -0.004   0.002  0.00  0.00    +0.169 HD
ENDBRANCH  16  18
ENDBRANCH   1  16
TORSDOF 5
