REMARK  Name = ZINC46568468
REMARK  7 active torsions:
REMARK  status: ('A' for Active; 'I' for Inactive)
REMARK    1  A    between atoms: C_1  and  C_2
REMARK    2  A    between atoms: C_2  and  C_4
REMARK    3  A    between atoms: C_2  and  N_13
REMARK    4  A    between atoms: N_13  and  C_14
REMARK    5  A    between atoms: C_15  and  C_17
REMARK    6  A    between atoms: N_19  and  C_26
REMARK    7  A    between atoms: C_20  and  C_23
REMARK                            x       y       z     vdW  Elec       q    Type
REMARK                         _______ _______ _______ _____ _____    ______ ____
ROOT
ATOM      1  C   UNL     1       0.471  -2.272  -2.996  0.00  0.00    +0.123 C 
ATOM      2  N   UNL     1       1.714  -2.277  -3.355  0.00  0.00    -0.178 NA
ATOM      3  N   UNL     1       1.999  -3.154  -4.400  0.00  0.00    -0.212 N 
ATOM      4  C   UNL     1       0.759  -3.837  -4.800  0.00  0.00    +0.189 C 
ATOM      5  C   UNL     1      -0.303  -3.253  -3.847  0.00  0.00    +0.096 C 
ENDROOT
BRANCH   3   6
ATOM      6  C   UNL     1       3.256  -3.352  -4.975  0.00  0.00    +0.052 A 
ATOM      7  C   UNL     1       3.409  -4.254  -6.020  0.00  0.00    +0.025 A 
ATOM      8  C   UNL     1       4.654  -4.447  -6.586  0.00  0.00    +0.002 A 
ATOM      9  C   UNL     1       5.747  -3.744  -6.113  0.00  0.00    +0.000 A 
ATOM     10  C   UNL     1       5.598  -2.845  -5.072  0.00  0.00    +0.002 A 
ATOM     11  C   UNL     1       4.355  -2.642  -4.506  0.00  0.00    +0.025 A 
ENDBRANCH   3   6
BRANCH   4  12
ATOM     12  C   UNL     1       0.886  -5.326  -4.600  0.00  0.00    +0.233 C 
ATOM     13  O   UNL     1       1.748  -5.768  -3.870  0.00  0.00    -0.274 OA
ATOM     14  N   UNL     1       0.042  -6.165  -5.233  0.00  0.00    -0.328 N 
ATOM     15  H   UNL     1      -0.647  -5.811  -5.816  0.00  0.00    +0.145 HD
ATOM     16  H   UNL     1       0.124  -7.123  -5.104  0.00  0.00    +0.145 HD
ENDBRANCH   4  12
BRANCH   1  19
ATOM     17  N   UNL     1       0.665  -0.520  -1.317  0.00  0.00    -0.290 N 
ATOM     18  C   UNL     1       2.024  -0.255  -1.796  0.00  0.00    +0.133 C 
ATOM     19  C   UNL     1      -0.097  -1.448  -1.929  0.00  0.00    +0.263 C 
ATOM     20  O   UNL     1      -1.257  -1.601  -1.593  0.00  0.00    -0.269 OA
BRANCH  17  22
ATOM     21  C   UNL     1       0.127   1.720  -0.494  0.00  0.00    +0.036 C 
ATOM     22  C   UNL     1       0.134   0.224  -0.171  0.00  0.00    +0.139 C 
BRANCH  22  23
ATOM     23  C   UNL     1       1.002  -0.026   1.036  0.00  0.00    +0.126 A 
ATOM     24  C   UNL     1       0.546  -0.210   2.282  0.00  0.00    +0.055 A 
ATOM     25  C   UNL     1       1.731  -0.416   3.124  0.00  0.00    +0.020 A 
ATOM     26  C   UNL     1       1.932  -0.655   4.483  0.00  0.00    +0.011 A 
ATOM     27  C   UNL     1       3.203  -0.805   4.964  0.00  0.00    +0.001 A 
ATOM     28  C   UNL     1       4.293  -0.721   4.108  0.00  0.00    +0.004 A 
ATOM     29  C   UNL     1       4.113  -0.485   2.762  0.00  0.00    +0.047 A 
ATOM     30  C   UNL     1       2.830  -0.330   2.253  0.00  0.00    +0.135 A 
ATOM     31  O   UNL     1       2.344  -0.102   1.016  0.00  0.00    -0.458 OA
ENDBRANCH  22  23
ENDBRANCH  17  22
ENDBRANCH   1  19
TORSDOF 5
