REMARK  Name = ZINC04308931
REMARK  5 active torsions:
REMARK  status: ('A' for Active; 'I' for Inactive)
REMARK    1  A    between atoms: C_1  and  C_2
REMARK    2  A    between atoms: N_11  and  C_15
REMARK    3  A    between atoms: C_15  and  C_16
REMARK    4  A    between atoms: N_18  and  C_19
REMARK    5  A    between atoms: C_24  and  C_25
REMARK                            x       y       z     vdW  Elec       q    Type
REMARK                         _______ _______ _______ _____ _____    ______ ____
ROOT
ATOM      1  C   UNL     1      -4.879   0.016  -0.143  0.00  0.00    +0.214 C 
ENDROOT
BRANCH   1  11
ATOM      2  C   UNL     1      -9.179  -0.479  -1.105  0.00  0.00    +0.010 C 
ATOM      3  C   UNL     1      -8.908  -1.915  -1.560  0.00  0.00    +0.018 C 
ATOM      4  C   UNL     1      -8.856  -1.964  -3.090  0.00  0.00    +0.006 C 
ATOM      5  C   UNL     1      -8.565  -3.396  -3.543  0.00  0.00    +0.000 C 
ATOM      6  C   UNL     1      -7.214  -3.845  -2.982  0.00  0.00    +0.003 C 
ATOM      7  C   UNL     1      -7.260  -3.804  -1.452  0.00  0.00    +0.035 C 
ATOM      8  C   UNL     1      -7.576  -2.386  -0.988  0.00  0.00    +0.115 C 
ATOM      9  C   UNL     1      -6.469  -1.437  -1.387  0.00  0.00    +0.247 C 
ATOM     10  O   UNL     1      -6.100  -1.172  -2.511  0.00  0.00    -0.273 OA
ATOM     11  N   UNL     1      -5.978  -0.949  -0.229  0.00  0.00    -0.215 N 
ATOM     12  C   UNL     1      -6.623  -1.451   0.830  0.00  0.00    +0.310 C 
ATOM     13  O   UNL     1      -6.363  -1.159   1.981  0.00  0.00    -0.252 OA
ATOM     14  N   UNL     1      -7.593  -2.317   0.478  0.00  0.00    -0.285 N 
ATOM     15  H   UNL     1      -8.185  -2.800   1.076  0.00  0.00    +0.151 HD
ENDBRANCH   1  11
BRANCH   1  16
ATOM     16  C   UNL     1      -3.568  -0.722  -0.052  0.00  0.00    +0.235 C 
ATOM     17  O   UNL     1      -3.554  -1.935  -0.059  0.00  0.00    -0.274 OA
ATOM     18  N   UNL     1      -2.413  -0.035   0.037  0.00  0.00    -0.284 N 
ATOM     19  H   UNL     1      -2.428   0.931   0.123  0.00  0.00    +0.155 HD
BRANCH  18  20
ATOM     20  C   UNL     1      -1.190  -0.714   0.004  0.00  0.00    +0.045 A 
ATOM     21  C   UNL     1      -1.100  -1.956  -0.612  0.00  0.00    +0.024 A 
ATOM     22  C   UNL     1       0.107  -2.627  -0.637  0.00  0.00    +0.002 A 
ATOM     23  C   UNL     1       1.226  -2.062  -0.053  0.00  0.00    +0.001 A 
ATOM     24  C   UNL     1       1.141  -0.824   0.556  0.00  0.00    +0.014 A 
ATOM     25  C   UNL     1      -0.063  -0.148   0.585  0.00  0.00    +0.076 A 
BRANCH  25  26
ATOM     26  C   UNL     1      -0.155   1.201   1.251  0.00  0.00    +0.419 C 
ATOM     27  F   UNL     1       1.098   1.555   1.762  0.00  0.00    -0.166 F 
ATOM     28  F   UNL     1      -0.564   2.157   0.314  0.00  0.00    -0.166 F 
ATOM     29  F   UNL     1      -1.086   1.144   2.294  0.00  0.00    -0.166 F 
ENDBRANCH  25  26
ENDBRANCH  18  20
ENDBRANCH   1  16
TORSDOF 4
