REMARK  Name = ZINC21810912
REMARK  7 active torsions:
REMARK  status: ('A' for Active; 'I' for Inactive)
REMARK    1  A    between atoms: C_1  and  C_2
REMARK    2  A    between atoms: C_2  and  C_3
REMARK    3  A    between atoms: C_6  and  N_9
REMARK    4  A    between atoms: C_18  and  C_19
REMARK    5  A    between atoms: C_18  and  C_20
REMARK    6  A    between atoms: N_22  and  C_23
REMARK    7  A    between atoms: C_26  and  C_29
REMARK                            x       y       z     vdW  Elec       q    Type
REMARK                         _______ _______ _______ _____ _____    ______ ____
ROOT
ATOM      1  N   UNL     1       1.084  -0.541  -0.706  0.00  0.00    -0.250 N 
ATOM      2  C   UNL     1       1.091  -1.810  -1.178  0.00  0.00    +0.268 C 
ATOM      3  O   UNL     1       2.074  -2.289  -1.714  0.00  0.00    -0.268 OA
ATOM      4  C   UNL     1      -0.148  -2.577  -1.008  0.00  0.00    +0.109 A 
ATOM      5  C   UNL     1      -0.404  -3.903  -1.197  0.00  0.00    +0.079 A 
ATOM      6  C   UNL     1      -1.749  -4.124  -0.865  0.00  0.00    +0.153 A 
ATOM      7  C   UNL     1      -2.294  -2.901  -0.475  0.00  0.00    +0.088 A 
ATOM      8  N   UNL     1      -1.317  -1.956  -0.573  0.00  0.00    -0.331 N 
ATOM      9  C   UNL     1      -1.368  -0.516  -0.305  0.00  0.00    +0.158 C 
ATOM     10  C   UNL     1       0.012  -0.040   0.146  0.00  0.00    +0.133 C 
ATOM     11  C   UNL     1       0.257  -0.520   1.578  0.00  0.00    +0.044 C 
ATOM     12  C   UNL     1      -3.644  -3.162  -0.140  0.00  0.00    +0.067 A 
ATOM     13  C   UNL     1      -3.857  -4.474  -0.334  0.00  0.00    +0.198 A 
ATOM     14  O   UNL     1      -2.725  -5.052  -0.770  0.00  0.00    -0.461 OA
ENDROOT
BRANCH   1  18
ATOM     15  C   UNL     1       4.219   2.008  -1.718  0.00  0.00    -0.048 A 
ATOM     16  C   UNL     1       3.993   1.686  -0.393  0.00  0.00    +0.005 A 
ATOM     17  C   UNL     1       2.954   0.841  -0.054  0.00  0.00    +0.024 A 
ATOM     18  C   UNL     1       2.136   0.315  -1.046  0.00  0.00    +0.038 A 
ATOM     19  C   UNL     1       2.370   0.636  -2.377  0.00  0.00    +0.024 A 
ATOM     20  C   UNL     1       3.407   1.486  -2.708  0.00  0.00    +0.005 A 
BRANCH  15  22
ATOM     21  C   UNL     1       6.647   2.121  -2.212  0.00  0.00    +0.009 C 
ATOM     22  C   UNL     1       5.354   2.929  -2.085  0.00  0.00    +0.032 C 
ENDBRANCH  15  22
ENDBRANCH   1  18
BRANCH  10  23
ATOM     23  C   UNL     1       0.038   1.466   0.127  0.00  0.00    +0.239 C 
ATOM     24  O   UNL     1      -0.088   2.088   1.161  0.00  0.00    -0.273 OA
ATOM     25  N   UNL     1       0.197   2.123  -1.039  0.00  0.00    -0.311 N 
ATOM     26  H   UNL     1       0.226   1.563  -1.986  0.00  0.00    +0.149 HD
BRANCH  25  27
ATOM     27  C   UNL     1       0.330   3.582  -1.046  0.00  0.00    +0.073 C 
ATOM     28  C   UNL     1      -1.053   4.221  -0.905  0.00  0.00    +0.022 C 
ATOM     29  C   UNL     1      -1.938   3.784  -2.074  0.00  0.00    +0.005 C 
ATOM     30  C   UNL     1      -1.302   4.232  -3.391  0.00  0.00    -0.014 C 
ATOM     31  C   UNL     1       0.081   3.592  -3.532  0.00  0.00    +0.005 C 
ATOM     32  C   UNL     1       0.967   4.029  -2.363  0.00  0.00    +0.022 C 
ATOM     33  C   UNL     1      -2.187   3.795  -4.559  0.00  0.00    +0.007 C 
ENDBRANCH  25  27
ENDBRANCH  10  23
TORSDOF 4
