REMARK  Name = ZINC27690576
REMARK  5 active torsions:
REMARK  status: ('A' for Active; 'I' for Inactive)
REMARK    1  A    between atoms: C_1  and  C_2
REMARK    2  A    between atoms: C_2  and  C_4
REMARK    3  A    between atoms: C_2  and  N_13
REMARK    4  A    between atoms: C_14  and  C_16
REMARK    5  A    between atoms: C_20  and  C_26
REMARK                            x       y       z     vdW  Elec       q    Type
REMARK                         _______ _______ _______ _____ _____    ______ ____
ROOT
ATOM      1  N   UNL     1       0.688  -0.476  -1.203  0.00  0.00    -0.307 N 
ATOM      2  C   UNL     1       0.006  -0.608  -2.358  0.00  0.00    +0.235 C 
ATOM      3  O   UNL     1      -1.175  -0.336  -2.400  0.00  0.00    -0.274 OA
ATOM      4  H   UNL     1       1.632  -0.695  -1.170  0.00  0.00    +0.149 HD
ENDROOT
BRANCH   2   5
ATOM      5  C   UNL     1       0.712  -1.094  -3.598  0.00  0.00    +0.173 C 
ATOM      6  C   UNL     1       1.320  -2.485  -3.300  0.00  0.00    +0.103 C 
ATOM      7  S   UNL     1       0.158  -3.564  -4.253  0.00  0.00    -0.133 S 
ATOM      8  C   UNL     1      -0.257  -2.305  -5.531  0.00  0.00    +0.082 C 
ATOM      9  N   UNL     1      -0.240  -1.066  -4.713  0.00  0.00    -0.275 N 
ATOM     10  C   UNL     1      -1.183  -0.228  -5.223  0.00  0.00    +0.217 C 
ATOM     11  O   UNL     1      -1.259   0.958  -4.978  0.00  0.00    -0.276 OA
ATOM     12  C   UNL     1      -2.121  -0.980  -6.138  0.00  0.00    +0.099 C 
ATOM     13  C   UNL     1      -1.724  -2.455  -5.966  0.00  0.00    +0.046 C 
ATOM     14  C   UNL     1       0.720  -2.295  -6.708  0.00  0.00    +0.044 C 
ENDBRANCH   2   5
BRANCH   1  16
ATOM     15  C   UNL     1      -0.019   1.526   0.010  0.00  0.00    +0.033 C 
ATOM     16  C   UNL     1       0.002  -0.004   0.002  0.00  0.00    +0.100 C 
BRANCH  16  17
ATOM     17  C   UNL     1       0.731  -0.503   1.223  0.00  0.00    -0.024 A 
ATOM     18  C   UNL     1       2.113  -0.513   1.245  0.00  0.00    +0.009 A 
ATOM     19  C   UNL     1       2.786  -0.970   2.363  0.00  0.00    +0.050 A 
ATOM     20  C   UNL     1       2.076  -1.419   3.464  0.00  0.00    +0.166 A 
ATOM     21  C   UNL     1       0.684  -1.409   3.442  0.00  0.00    +0.167 A 
ATOM     22  C   UNL     1       0.016  -0.945   2.320  0.00  0.00    +0.055 A 
ATOM     23  O   UNL     1       0.225  -1.895   4.632  0.00  0.00    -0.453 OA
ATOM     24  C   UNL     1       1.343  -2.583   5.223  0.00  0.00    +0.466 C 
ATOM     25  O   UNL     1       2.490  -1.911   4.668  0.00  0.00    -0.453 OA
ENDBRANCH  16  17
ENDBRANCH   1  16
TORSDOF 3
