REMARK  Name = ZINC28307422
REMARK  9 active torsions:
REMARK  status: ('A' for Active; 'I' for Inactive)
REMARK    1  A    between atoms: C_1  and  C_2
REMARK    2  A    between atoms: C_5  and  C_8
REMARK    3  A    between atoms: C_8  and  C_10
REMARK    4  A    between atoms: C_15  and  C_16
REMARK    5  A    between atoms: N_18  and  C_19
REMARK    6  A    between atoms: C_19  and  C_30
REMARK    7  A    between atoms: C_20  and  C_21
REMARK    8  A    between atoms: N_32  and  C_33
REMARK    9  A    between atoms: C_36  and  C_39
REMARK                            x       y       z     vdW  Elec       q    Type
REMARK                         _______ _______ _______ _____ _____    ______ ____
ROOT
ATOM      1  C   UNL     1       2.470  -3.690   0.246  0.00  0.00    +0.097 C 
ATOM      2  C   UNL     1       1.362  -4.295   0.736  0.00  0.00    +0.036 C 
ENDROOT
BRANCH   2   3
ATOM      3  C   UNL     1       0.097  -3.552   0.824  0.00  0.00    -0.019 A 
ATOM      4  C   UNL     1       0.103  -2.192   1.153  0.00  0.00    +0.012 A 
ATOM      5  C   UNL     1      -1.084  -1.498   1.232  0.00  0.00    +0.050 A 
ATOM      6  C   UNL     1      -2.290  -2.144   0.994  0.00  0.00    +0.166 A 
ATOM      7  C   UNL     1      -2.304  -3.502   0.669  0.00  0.00    +0.167 A 
ATOM      8  C   UNL     1      -1.118  -4.204   0.585  0.00  0.00    +0.057 A 
ATOM      9  O   UNL     1      -3.600  -3.892   0.486  0.00  0.00    -0.453 OA
ATOM     10  C   UNL     1      -4.345  -2.674   0.299  0.00  0.00    +0.466 C 
ATOM     11  O   UNL     1      -3.576  -1.688   1.013  0.00  0.00    -0.453 OA
ENDBRANCH   2   3
BRANCH   1  14
ATOM     12  C   UNL     1       4.826  -3.696  -0.079  0.00  0.00    +0.249 C 
ATOM     13  O   UNL     1       4.776  -2.522  -0.387  0.00  0.00    -0.270 OA
ATOM     14  N   UNL     1       3.706  -4.342   0.301  0.00  0.00    -0.277 N 
ATOM     15  H   UNL     1       3.764  -5.382   0.656  0.00  0.00    +0.155 HD
BRANCH  12  21
ATOM     16  C   UNL     1       7.298  -3.736  -0.474  0.00  0.00    +0.034 A 
ATOM     17  C   UNL     1       8.507  -4.427  -0.505  0.00  0.00    +0.012 A 
ATOM     18  C   UNL     1       8.541  -5.775  -0.201  0.00  0.00    +0.001 A 
ATOM     19  C   UNL     1       7.379  -6.445   0.141  0.00  0.00    +0.001 A 
ATOM     20  C   UNL     1       6.171  -5.775   0.181  0.00  0.00    +0.014 A 
ATOM     21  C   UNL     1       6.117  -4.418  -0.121  0.00  0.00    +0.048 A 
BRANCH  16  22
ATOM     22  C   UNL     1       7.255  -2.296  -0.804  0.00  0.00    +0.194 C 
ATOM     23  O   UNL     1       7.618  -1.474   0.015  0.00  0.00    -0.287 OA
BRANCH  22  28
ATOM     24  C   UNL     1       5.370  -0.581  -5.962  0.00  0.00    +0.044 C 
ATOM     25  C   UNL     1       5.864  -1.030  -4.611  0.00  0.00    -0.050 A 
ATOM     26  C   UNL     1       6.310  -0.094  -3.695  0.00  0.00    +0.004 A 
ATOM     27  C   UNL     1       6.763  -0.498  -2.457  0.00  0.00    +0.012 A 
ATOM     28  C   UNL     1       6.771  -1.856  -2.128  0.00  0.00    +0.022 A 
ATOM     29  C   UNL     1       6.325  -2.796  -3.060  0.00  0.00    +0.012 A 
ATOM     30  C   UNL     1       5.869  -2.377  -4.293  0.00  0.00    +0.004 A 
ENDBRANCH  22  28
ENDBRANCH  16  22
ENDBRANCH  12  21
ENDBRANCH   1  14
BRANCH   1  31
ATOM     31  C   UNL     1       2.374  -2.348  -0.344  0.00  0.00    +0.262 C 
ATOM     32  O   UNL     1       2.683  -1.371   0.313  0.00  0.00    -0.268 OA
ATOM     33  N   UNL     1       1.943  -2.199  -1.612  0.00  0.00    -0.280 N 
ATOM     34  H   UNL     1       1.598  -3.074  -2.183  0.00  0.00    +0.155 HD
BRANCH  33  35
ATOM     35  C   UNL     1       1.935  -0.932  -2.203  0.00  0.00    +0.034 A 
ATOM     36  C   UNL     1       2.242  -0.790  -3.550  0.00  0.00    +0.023 A 
ATOM     37  C   UNL     1       2.233   0.463  -4.131  0.00  0.00    +0.005 A 
ATOM     38  C   UNL     1       1.917   1.575  -3.373  0.00  0.00    -0.050 A 
ATOM     39  C   UNL     1       1.611   1.438  -2.031  0.00  0.00    +0.005 A 
ATOM     40  C   UNL     1       1.619   0.188  -1.444  0.00  0.00    +0.023 A 
ATOM     41  C   UNL     1       1.908   2.941  -4.010  0.00  0.00    +0.044 C 
ENDBRANCH  33  35
ENDBRANCH   1  31
TORSDOF 7
