REMARK  Name = ZINC10288610
REMARK  8 active torsions:
REMARK  status: ('A' for Active; 'I' for Inactive)
REMARK    1  A    between atoms: C_1  and  C_2
REMARK    2  A    between atoms: C_2  and  C_3
REMARK    3  A    between atoms: C_3  and  C_5
REMARK    4  A    between atoms: C_3  and  O_6
REMARK    5  A    between atoms: O_6  and  C_7
REMARK    6  A    between atoms: C_10  and  C_13
REMARK    7  A    between atoms: N_15  and  C_16
REMARK    8  A    between atoms: C_17  and  C_25
REMARK                            x       y       z     vdW  Elec       q    Type
REMARK                         _______ _______ _______ _____ _____    ______ ____
ROOT
ATOM      1  C   UNL     1      -5.334   5.486  -0.782  0.00  0.00    +0.249 C 
ATOM      2  O   UNL     1      -5.408   6.699  -0.811  0.00  0.00    -0.270 OA
ATOM      3  N   UNL     1      -6.354   4.737  -1.245  0.00  0.00    -0.275 N 
ATOM      4  H   UNL     1      -6.295   3.769  -1.223  0.00  0.00    +0.156 HD
ENDROOT
BRANCH   3   5
ATOM      5  C   UNL     1      -7.488   5.350  -1.753  0.00  0.00    +0.085 A 
ATOM      6  C   UNL     1      -8.629   4.756  -2.276  0.00  0.00    +0.068 A 
ATOM      7  C   UNL     1      -9.688   5.633  -2.744  0.00  0.00    -0.023 A 
ATOM      8  C   UNL     1      -9.436   6.955  -2.625  0.00  0.00    -0.004 A 
ATOM      9  S   UNL     1      -7.824   7.043  -1.898  0.00  0.00    -0.077 S 
ATOM     10  C   UNL     1     -10.332   8.085  -3.025  0.00  0.00    +0.043 C 
ATOM     11  C   UNL     1     -11.434   7.529  -3.939  0.00  0.00    +0.005 C 
ATOM     12  C   UNL     1     -12.024   6.272  -3.292  0.00  0.00    +0.005 C 
ATOM     13  C   UNL     1     -11.001   5.136  -3.336  0.00  0.00    +0.037 C 
BRANCH   6  14
ATOM     14  C   UNL     1      -8.761   3.298  -2.349  0.00  0.00    +0.244 C 
ATOM     15  O   UNL     1      -9.251   2.683  -1.420  0.00  0.00    -0.270 OA
ATOM     16  N   UNL     1      -8.339   2.637  -3.446  0.00  0.00    -0.325 N 
ATOM     17  H   UNL     1      -7.948   3.127  -4.187  0.00  0.00    +0.145 HD
ATOM     18  H   UNL     1      -8.427   1.672  -3.495  0.00  0.00    +0.145 HD
ENDBRANCH   6  14
ENDBRANCH   3   5
BRANCH   1  22
ATOM     19  C   UNL     1      -1.859   3.608   0.776  0.00  0.00    +0.121 A 
ATOM     20  C   UNL     1      -2.908   2.834   0.295  0.00  0.00    +0.046 A 
ATOM     21  C   UNL     1      -4.038   3.439  -0.207  0.00  0.00    +0.016 A 
ATOM     22  C   UNL     1      -4.126   4.833  -0.241  0.00  0.00    +0.037 A 
ATOM     23  C   UNL     1      -3.067   5.608   0.239  0.00  0.00    +0.016 A 
ATOM     24  C   UNL     1      -1.942   4.995   0.744  0.00  0.00    +0.046 A 
BRANCH  19  25
ATOM     25  O   UNL     1      -0.748   3.008   1.275  0.00  0.00    -0.489 OA
BRANCH  25  26
ATOM     26  C   UNL     1       0.342   3.858   1.636  0.00  0.00    +0.170 C 
ATOM     27  C   UNL     1       0.130   4.383   3.058  0.00  0.00    +0.052 C 
BRANCH  26  29
ATOM     28  C   UNL     1       1.924   2.648   0.129  0.00  0.00    +0.007 C 
ATOM     29  C   UNL     1       1.649   3.066   1.574  0.00  0.00    +0.041 C 
ENDBRANCH  26  29
ENDBRANCH  25  26
ENDBRANCH  19  25
ENDBRANCH   1  22
TORSDOF 6
