REMARK  Name = ZINC64623060
REMARK  9 active torsions:
REMARK  status: ('A' for Active; 'I' for Inactive)
REMARK    1  A    between atoms: C_1  and  C_2
REMARK    2  A    between atoms: C_2  and  O_3
REMARK    3  A    between atoms: O_3  and  C_4
REMARK    4  A    between atoms: C_4  and  C_6
REMARK    5  A    between atoms: C_6  and  C_7
REMARK    6  A    between atoms: C_10  and  N_13
REMARK    7  A    between atoms: C_29  and  C_31
REMARK    8  A    between atoms: C_34  and  O_37
REMARK    9  A    between atoms: O_37  and  C_38
REMARK                            x       y       z     vdW  Elec       q    Type
REMARK                         _______ _______ _______ _____ _____    ______ ____
ROOT
ATOM      1  N   UNL     1       2.079  -7.694   2.231  0.00  0.00    -0.269 N 
ATOM      2  C   UNL     1       2.792  -8.518   1.438  0.00  0.00    +0.307 C 
ATOM      3  O   UNL     1       3.675  -8.070   0.734  0.00  0.00    -0.252 OA
ATOM      4  N   UNL     1       2.527  -9.840   1.427  0.00  0.00    -0.276 N 
ATOM      5  C   UNL     1       1.364 -10.352   2.159  0.00  0.00    +0.114 C 
ATOM      6  C   UNL     1       0.437 -11.105   1.187  0.00  0.00    +0.052 C 
ATOM      7  C   UNL     1       1.321 -11.992   0.346  0.00  0.00    -0.035 C 
ATOM      8  C   UNL     1       1.261 -13.291   0.079  0.00  0.00    -0.001 A 
ATOM      9  C   UNL     1       0.257 -14.315   0.412  0.00  0.00    +0.010 A 
ATOM     10  C   UNL     1       0.526 -15.578  -0.010  0.00  0.00    +0.001 A 
ATOM     11  C   UNL     1       1.680 -15.922  -0.722  0.00  0.00    +0.002 A 
ATOM     12  C   UNL     1       2.651 -15.044  -1.078  0.00  0.00    +0.026 A 
ATOM     13  C   UNL     1       2.477 -13.682  -0.697  0.00  0.00    +0.043 A 
ATOM     14  N   UNL     1       3.225 -12.643  -0.923  0.00  0.00    -0.375 N 
ATOM     15  C   UNL     1       2.554 -11.463  -0.377  0.00  0.00    +0.131 C 
ATOM     16  C   UNL     1       3.403 -10.752   0.675  0.00  0.00    +0.134 C 
ATOM     17  H   UNL     1       1.435  -8.061   2.857  0.00  0.00    +0.156 HD
ATOM     18  H   UNL     1       4.083 -12.649  -1.376  0.00  0.00    +0.160 HD
ENDROOT
BRANCH   1  22
ATOM     19  C   UNL     1       2.639  -3.573   1.994  0.00  0.00    -0.037 A 
ATOM     20  C   UNL     1       1.390  -4.083   2.298  0.00  0.00    +0.006 A 
ATOM     21  C   UNL     1       1.201  -5.449   2.377  0.00  0.00    +0.023 A 
ATOM     22  C   UNL     1       2.267  -6.310   2.151  0.00  0.00    +0.035 A 
ATOM     23  C   UNL     1       3.519  -5.795   1.846  0.00  0.00    +0.023 A 
ATOM     24  C   UNL     1       3.701  -4.428   1.762  0.00  0.00    +0.006 A 
BRANCH  19  25
ATOM     25  C   UNL     1       2.842  -2.082   1.908  0.00  0.00    +0.155 C 
BRANCH  25  26
ATOM     26  C   UNL     1       2.580  -1.620   0.498  0.00  0.00    +0.311 C 
ATOM     27  O   UNL     1       2.262  -2.419  -0.351  0.00  0.00    -0.250 OA
BRANCH  26  28
ATOM     28  O   UNL     1       2.701  -0.320   0.184  0.00  0.00    -0.465 OA
BRANCH  28  30
ATOM     29  C   UNL     1       2.625   1.557  -1.336  0.00  0.00    +0.048 C 
ATOM     30  C   UNL     1       2.438   0.047  -1.171  0.00  0.00    +0.229 C 
ENDBRANCH  28  30
ENDBRANCH  26  28
ENDBRANCH  25  26
ENDBRANCH  19  25
ENDBRANCH   1  22
BRANCH  16  31
ATOM     31  C   UNL     1       4.006 -11.767   1.611  0.00  0.00    -0.024 A 
ATOM     32  C   UNL     1       3.201 -12.720   2.208  0.00  0.00    +0.009 A 
ATOM     33  C   UNL     1       3.752 -13.651   3.067  0.00  0.00    +0.046 A 
ATOM     34  C   UNL     1       5.114 -13.631   3.329  0.00  0.00    +0.120 A 
ATOM     35  C   UNL     1       5.920 -12.675   2.728  0.00  0.00    +0.046 A 
ATOM     36  C   UNL     1       5.365 -11.749   1.866  0.00  0.00    +0.009 A 
BRANCH  34  37
ATOM     37  O   UNL     1       5.658 -14.546   4.174  0.00  0.00    -0.495 OA
ATOM     38  C   UNL     1       7.067 -14.466   4.397  0.00  0.00    +0.277 C 
ENDBRANCH  34  37
ENDBRANCH  16  31
TORSDOF 7
