REMARK  Name = ZINC03186990
REMARK  4 active torsions:
REMARK  status: ('A' for Active; 'I' for Inactive)
REMARK    1  A    between atoms: C_4  and  C_7
REMARK    2  A    between atoms: C_16  and  C_18
REMARK    3  A    between atoms: C_24  and  C_26
REMARK    4  A    between atoms: C_31  and  C_32
REMARK                            x       y       z     vdW  Elec       q    Type
REMARK                         _______ _______ _______ _____ _____    ______ ____
ROOT
ATOM      1  C   UNL     1       3.682  -0.897  -0.709  0.00  0.00    +0.013 C 
ATOM      2  C   UNL     1       3.743  -2.232  -0.562  0.00  0.00    -0.024 C 
ATOM      3  C   UNL     1       2.512  -3.116  -0.668  0.00  0.00    +0.037 C 
ATOM      4  C   UNL     1       2.571  -4.160   0.453  0.00  0.00    +0.009 C 
ATOM      5  C   UNL     1       3.785  -5.073   0.261  0.00  0.00    +0.035 C 
ATOM      6  C   UNL     1       5.021  -4.232   0.088  0.00  0.00    -0.021 C 
ATOM      7  C   UNL     1       5.016  -2.940  -0.291  0.00  0.00    +0.049 C 
ATOM      8  N   UNL     1       6.302  -2.435  -0.370  0.00  0.00    -0.261 N 
ATOM      9  N   UNL     1       7.237  -3.426  -0.037  0.00  0.00    -0.207 N 
ATOM     10  C   UNL     1       6.457  -4.638   0.286  0.00  0.00    +0.155 C 
ATOM     11  C   UNL     1       8.578  -3.295  -0.006  0.00  0.00    +0.264 C 
ATOM     12  O   UNL     1       9.278  -4.262   0.225  0.00  0.00    -0.268 OA
ATOM     13  H   UNL     1       6.525  -1.525  -0.621  0.00  0.00    +0.170 HD
ENDROOT
BRANCH   1  17
ATOM     14  C   UNL     1       0.071   0.936  -1.976  0.00  0.00    +0.000 A 
ATOM     15  C   UNL     1       0.857   1.553  -1.018  0.00  0.00    +0.001 A 
ATOM     16  C   UNL     1       2.032   0.963  -0.601  0.00  0.00    +0.008 A 
ATOM     17  C   UNL     1       2.428  -0.261  -1.149  0.00  0.00    -0.025 A 
ATOM     18  C   UNL     1       1.629  -0.877  -2.115  0.00  0.00    +0.008 A 
ATOM     19  C   UNL     1       0.457  -0.276  -2.522  0.00  0.00    +0.001 A 
ENDBRANCH   1  17
BRANCH  10  20
ATOM     20  C   UNL     1       6.689  -5.066   1.712  0.00  0.00    -0.021 A 
ATOM     21  C   UNL     1       6.865  -4.115   2.699  0.00  0.00    +0.006 A 
ATOM     22  C   UNL     1       7.078  -4.508   4.007  0.00  0.00    +0.000 A 
ATOM     23  C   UNL     1       7.115  -5.852   4.328  0.00  0.00    +0.000 A 
ATOM     24  C   UNL     1       6.939  -6.803   3.341  0.00  0.00    +0.000 A 
ATOM     25  C   UNL     1       6.722  -6.411   2.033  0.00  0.00    +0.006 A 
ENDBRANCH  10  20
BRANCH  11  26
ATOM     26  C   UNL     1       9.199  -1.974  -0.253  0.00  0.00    +0.052 A 
ATOM     27  C   UNL     1       8.959  -1.301  -1.447  0.00  0.00    +0.014 A 
ATOM     28  C   UNL     1       9.541  -0.067  -1.674  0.00  0.00    +0.001 A 
ATOM     29  C   UNL     1      10.363   0.505  -0.720  0.00  0.00    +0.001 A 
ATOM     30  C   UNL     1      10.613  -0.148   0.472  0.00  0.00    +0.016 A 
ATOM     31  C   UNL     1      10.030  -1.389   0.721  0.00  0.00    +0.075 A 
BRANCH  31  32
ATOM     32  C   UNL     1      10.288  -2.089   1.995  0.00  0.00    +0.387 C 
ATOM     33  O   UNL     1      10.952  -1.547   2.867  0.00  0.00    -0.241 OA
ATOM     34  O   UNL     1       9.837  -3.211   2.179  0.00  0.00    -0.241 OA
ENDBRANCH  31  32
ENDBRANCH  11  26
TORSDOF 4
