REMARK  Name = ZINC13342077
REMARK  6 active torsions:
REMARK  status: ('A' for Active; 'I' for Inactive)
REMARK    1  A    between atoms: C_5  and  N_9
REMARK    2  A    between atoms: C_6  and  C_7
REMARK    3  A    between atoms: C_10  and  C_12
REMARK    4  A    between atoms: C_12  and  S_13
REMARK    5  A    between atoms: S_13  and  C_14
REMARK    6  A    between atoms: C_17  and  C_20
REMARK                            x       y       z     vdW  Elec       q    Type
REMARK                         _______ _______ _______ _____ _____    ______ ____
ROOT
ATOM      1  N   UNL     1       1.251  -2.076  -0.003  0.00  0.00    -0.283 N 
ATOM      2  C   UNL     1       2.412  -2.728  -0.212  0.00  0.00    +0.227 C 
ATOM      3  O   UNL     1       3.448  -2.107  -0.309  0.00  0.00    -0.275 OA
ATOM      4  H   UNL     1       0.435  -2.575   0.153  0.00  0.00    +0.155 HD
ENDROOT
BRANCH   1   9
ATOM      5  C   UNL     1       0.257   1.396  -0.789  0.00  0.00    +0.037 A 
ATOM      6  C   UNL     1       1.173   2.096  -0.030  0.00  0.00    +0.043 A 
ATOM      7  C   UNL     1       2.110   1.419   0.734  0.00  0.00    +0.042 A 
ATOM      8  C   UNL     1       2.139   0.038   0.745  0.00  0.00    +0.064 A 
ATOM      9  C   UNL     1       1.224  -0.682  -0.013  0.00  0.00    +0.066 A 
ATOM     10  C   UNL     1       0.274  -0.001  -0.787  0.00  0.00    +0.087 A 
ATOM     11 CL   UNL     1       3.318  -0.797   1.706  0.00  0.00    -0.082 Cl
ATOM     12 CL   UNL     1       1.150   3.832  -0.034  0.00  0.00    -0.083 Cl
BRANCH  10  13
ATOM     13  C   UNL     1      -0.702  -0.754  -1.596  0.00  0.00    +0.388 C 
ATOM     14  O   UNL     1      -0.622  -1.964  -1.672  0.00  0.00    -0.241 OA
ATOM     15  O   UNL     1      -1.682  -0.101  -2.251  0.00  0.00    -0.241 OA
ENDBRANCH  10  13
ENDBRANCH   1   9
BRANCH   2  16
ATOM     16  C   UNL     1       2.421  -4.231  -0.323  0.00  0.00    +0.172 C 
BRANCH  16  17
ATOM     17  S   UNL     1       4.119  -4.806  -0.600  0.00  0.00    -0.095 S 
BRANCH  17  18
ATOM     18  C   UNL     1       3.964  -6.558  -0.707  0.00  0.00    +0.116 A 
ATOM     19  C   UNL     1       5.096  -7.340  -0.926  0.00  0.00    +0.073 A 
ATOM     20  C   UNL     1       4.959  -8.715  -1.002  0.00  0.00    +0.036 A 
ATOM     21  C   UNL     1       3.690  -9.263  -0.867  0.00  0.00    +0.074 A 
ATOM     22  C   UNL     1       2.611  -8.428  -0.657  0.00  0.00    +0.124 A 
ATOM     23  N   UNL     1       2.771  -7.120  -0.583  0.00  0.00    -0.247 NA
ATOM     24 CL   UNL     1       6.657  -6.600  -1.095  0.00  0.00    -0.081 Cl
BRANCH  21  25
ATOM     25  C   UNL     1       3.493 -10.755  -0.948  0.00  0.00    +0.419 C 
ATOM     26  F   UNL     1       2.137 -11.056  -0.782  0.00  0.00    -0.166 F 
ATOM     27  F   UNL     1       3.924 -11.215  -2.198  0.00  0.00    -0.166 F 
ATOM     28  F   UNL     1       4.236 -11.379   0.059  0.00  0.00    -0.166 F 
ENDBRANCH  21  25
ENDBRANCH  17  18
ENDBRANCH  16  17
ENDBRANCH   2  16
TORSDOF 6
