REMARK  Name = ZINC15481785
REMARK  7 active torsions:
REMARK  status: ('A' for Active; 'I' for Inactive)
REMARK    1  A    between atoms: C_1  and  C_2
REMARK    2  A    between atoms: C_2  and  N_3
REMARK    3  A    between atoms: N_3  and  C_4
REMARK    4  A    between atoms: N_3  and  C_11
REMARK    5  A    between atoms: C_4  and  C_5
REMARK    6  A    between atoms: C_11  and  C_12
REMARK    7  A    between atoms: N_14  and  N_15
REMARK                            x       y       z     vdW  Elec       q    Type
REMARK                         _______ _______ _______ _____ _____    ______ ____
ROOT
ATOM      1  C   UNL     1      -1.944   1.486  -1.141  0.00  0.00    +0.213 C 
ATOM      2  O   UNL     1      -1.428   2.100  -0.231  0.00  0.00    -0.276 OA
ATOM      3  N   UNL     1      -2.457   2.149  -2.196  0.00  0.00    -0.225 N 
ATOM      4  H   UNL     1      -2.870   1.658  -2.923  0.00  0.00    +0.173 HD
ENDROOT
BRANCH   3   5
ATOM      5  N   UNL     1      -2.395   3.548  -2.242  0.00  0.00    -0.137 N 
ATOM      6  C   UNL     1      -3.447   4.362  -2.017  0.00  0.00    +0.263 C 
ATOM      7  O   UNL     1      -4.582   4.035  -1.746  0.00  0.00    -0.271 OA
ATOM      8  C   UNL     1      -2.911   5.766  -2.172  0.00  0.00    +0.114 C 
ATOM      9  C   UNL     1      -3.060   6.540  -0.867  0.00  0.00    +0.035 C 
ATOM     10  C   UNL     1      -2.485   7.948  -1.037  0.00  0.00    +0.003 C 
ATOM     11  C   UNL     1      -3.227   8.669  -2.165  0.00  0.00    +0.000 C 
ATOM     12  C   UNL     1      -3.048   7.894  -3.472  0.00  0.00    +0.003 C 
ATOM     13  C   UNL     1      -3.626   6.485  -3.311  0.00  0.00    +0.035 C 
ATOM     14  N   UNL     1      -1.492   5.573  -2.497  0.00  0.00    -0.284 N 
ATOM     15  C   UNL     1      -1.282   4.243  -2.510  0.00  0.00    +0.326 C 
ATOM     16  O   UNL     1      -0.205   3.730  -2.742  0.00  0.00    -0.251 OA
ATOM     17  H   UNL     1      -0.834   6.266  -2.664  0.00  0.00    +0.151 HD
ENDBRANCH   3   5
BRANCH   1  18
ATOM     18  C   UNL     1      -2.011  -0.019  -1.091  0.00  0.00    +0.021 C 
BRANCH  18  19
ATOM     19  N   UNL     1      -1.528  -0.488   0.215  0.00  0.00    +0.388 N 
ATOM     20  H   UNL     1      -0.617  -0.094   0.397  0.00  0.00    -0.081 HD
BRANCH  19  22
ATOM     21  C   UNL     1      -0.362  -2.390  -0.795  0.00  0.00    -0.017 C 
ATOM     22  C   UNL     1      -1.435  -1.954   0.205  0.00  0.00    -0.081 C 
ENDBRANCH  19  22
BRANCH  19  23
ATOM     23  C   UNL     1      -2.464  -0.063   1.264  0.00  0.00    -0.035 C 
BRANCH  23  24
ATOM     24  C   UNL     1      -1.908  -0.437   2.614  0.00  0.00    -0.025 A 
ATOM     25  C   UNL     1      -1.111   0.286   3.438  0.00  0.00    +0.011 A 
ATOM     26  C   UNL     1      -0.718  -0.264   4.644  0.00  0.00    +0.028 A 
ATOM     27  C   UNL     1      -1.143  -1.512   4.966  0.00  0.00    +0.078 A 
ATOM     28  S   UNL     1      -2.135  -1.943   3.546  0.00  0.00    -0.084 S 
ATOM     29 CL   UNL     1      -0.813  -2.444   6.393  0.00  0.00    -0.076 Cl
ENDBRANCH  23  24
ENDBRANCH  19  23
ENDBRANCH  18  19
ENDBRANCH   1  18
TORSDOF 6
