REMARK  Name = ZINC14920142
REMARK  7 active torsions:
REMARK  status: ('A' for Active; 'I' for Inactive)
REMARK    1  A    between atoms: C_4  and  C_7
REMARK    2  A    between atoms: C_7  and  C_8
REMARK    3  A    between atoms: C_7  and  C_14
REMARK    4  A    between atoms: N_16  and  C_17
REMARK    5  A    between atoms: C_17  and  C_18
REMARK    6  A    between atoms: N_20  and  N_21
REMARK    7  A    between atoms: N_21  and  C_22
REMARK                            x       y       z     vdW  Elec       q    Type
REMARK                         _______ _______ _______ _____ _____    ______ ____
ROOT
ATOM      1  C   UNL     1       3.652  -1.665  -1.200  0.00  0.00    +0.225 C 
ATOM      2  O   UNL     1       2.672  -1.691  -1.914  0.00  0.00    -0.275 OA
ATOM      3  N   UNL     1       4.687  -2.491  -1.446  0.00  0.00    -0.306 N 
ATOM      4  H   UNL     1       5.471  -2.470  -0.874  0.00  0.00    +0.149 HD
ENDROOT
BRANCH   1   5
ATOM      5  C   UNL     1       3.711  -0.707  -0.038  0.00  0.00    +0.135 C 
BRANCH   5   9
ATOM      6  C   UNL     1       0.102   1.573   0.113  0.00  0.00    +0.000 A 
ATOM      7  C   UNL     1       1.325   2.216   0.082  0.00  0.00    +0.000 A 
ATOM      8  C   UNL     1       2.493   1.478   0.034  0.00  0.00    +0.005 A 
ATOM      9  C   UNL     1       2.438   0.097   0.016  0.00  0.00    -0.031 A 
ATOM     10  C   UNL     1       1.215  -0.546   0.048  0.00  0.00    +0.005 A 
ATOM     11  C   UNL     1       0.047   0.192   0.095  0.00  0.00    +0.000 A 
ENDBRANCH   5   9
BRANCH   5  12
ATOM     12  C   UNL     1       3.870  -1.483   1.245  0.00  0.00    -0.031 A 
ATOM     13  C   UNL     1       3.012  -2.528   1.531  0.00  0.00    +0.005 A 
ATOM     14  C   UNL     1       3.158  -3.240   2.707  0.00  0.00    +0.000 A 
ATOM     15  C   UNL     1       4.161  -2.906   3.597  0.00  0.00    +0.000 A 
ATOM     16  C   UNL     1       5.020  -1.861   3.310  0.00  0.00    +0.000 A 
ATOM     17  C   UNL     1       4.877  -1.153   2.132  0.00  0.00    +0.005 A 
ENDBRANCH   5  12
ENDBRANCH   1   5
BRANCH   3  18
ATOM     18  C   UNL     1       4.630  -3.422  -2.575  0.00  0.00    +0.201 C 
BRANCH  18  19
ATOM     19  C   UNL     1       5.903  -4.226  -2.629  0.00  0.00    +0.246 C 
ATOM     20  O   UNL     1       6.773  -4.041  -1.805  0.00  0.00    -0.273 OA
ATOM     21  N   UNL     1       6.075  -5.152  -3.593  0.00  0.00    -0.236 N 
ATOM     22  H   UNL     1       5.379  -5.301  -4.253  0.00  0.00    +0.173 HD
BRANCH  21  23
ATOM     23  N   UNL     1       7.258  -5.900  -3.643  0.00  0.00    -0.271 N 
ATOM     24  H   UNL     1       7.954  -5.752  -2.984  0.00  0.00    +0.169 HD
BRANCH  23  25
ATOM     25  C   UNL     1       7.429  -6.822  -4.603  0.00  0.00    +0.095 C 
ATOM     26  C   UNL     1       8.612  -7.569  -4.653  0.00  0.00    -0.009 C 
ATOM     27  C   UNL     1       9.623  -7.357  -3.690  0.00  0.00    +0.013 C 
ATOM     28  C   UNL     1      10.769  -8.082  -3.740  0.00  0.00    +0.052 C 
ATOM     29  C   UNL     1      10.950  -9.045  -4.751  0.00  0.00    +0.192 C 
ATOM     30  O   UNL     1      11.985  -9.698  -4.795  0.00  0.00    -0.287 OA
ATOM     31  C   UNL     1       9.943  -9.258  -5.713  0.00  0.00    +0.061 C 
ATOM     32  C   UNL     1       8.793  -8.539  -5.663  0.00  0.00    +0.027 C 
ATOM     33  I   UNL     1      10.217 -10.692  -7.216  0.00  0.00    -0.040 I 
ENDBRANCH  23  25
ENDBRANCH  21  23
ENDBRANCH  18  19
ENDBRANCH   3  18
TORSDOF 7
