REMARK  Name = ZINC40087181
REMARK  4 active torsions:
REMARK  status: ('A' for Active; 'I' for Inactive)
REMARK    1  A    between atoms: C_3  and  N_21
REMARK    2  A    between atoms: C_6  and  N_7
REMARK    3  A    between atoms: C_8  and  C_10
REMARK    4  A    between atoms: C_10  and  C_11
REMARK                            x       y       z     vdW  Elec       q    Type
REMARK                         _______ _______ _______ _____ _____    ______ ____
ROOT
ATOM      1  C   UNL     1       0.065   1.248  -0.587  0.00  0.00    +0.025 A 
ATOM      2  C   UNL     1       1.251   1.954  -0.586  0.00  0.00    +0.029 A 
ATOM      3  C   UNL     1       2.382   1.411   0.011  0.00  0.00    +0.068 A 
ATOM      4  C   UNL     1       2.319   0.159   0.607  0.00  0.00    +0.029 A 
ATOM      5  C   UNL     1       1.133  -0.547   0.607  0.00  0.00    +0.025 A 
ATOM      6  C   UNL     1       0.003  -0.005   0.010  0.00  0.00    +0.034 A 
ENDROOT
BRANCH   3   7
ATOM      7  N   UNL     1       3.587   2.128   0.011  0.00  0.00    -0.214 N 
ATOM      8  C   UNL     1       4.515   2.127   1.006  0.00  0.00    +0.170 A 
ATOM      9  C   UNL     1       5.551   2.977   0.587  0.00  0.00    +0.103 A 
ATOM     10  C   UNL     1       5.199   3.472  -0.682  0.00  0.00    +0.150 A 
ATOM     11  N   UNL     1       4.045   2.963  -1.016  0.00  0.00    -0.172 NA
ATOM     12  C   UNL     1       6.695   3.160   1.480  0.00  0.00    +0.262 A 
ATOM     13  O   UNL     1       7.626   3.884   1.175  0.00  0.00    -0.267 OA
ATOM     14  N   UNL     1       6.680   2.496   2.660  0.00  0.00    -0.313 N 
ATOM     15  H   UNL     1       7.421   2.593   3.278  0.00  0.00    +0.170 HD
ATOM     16  C   UNL     1       5.633   1.694   2.981  0.00  0.00    +0.201 A 
ATOM     17  N   UNL     1       4.608   1.520   2.199  0.00  0.00    -0.218 NA
ENDBRANCH   3   7
BRANCH   6  18
ATOM     18  N   UNL     1      -1.201  -0.721   0.010  0.00  0.00    -0.285 N 
ATOM     19  C   UNL     1      -1.186  -2.064  -0.099  0.00  0.00    +0.217 C 
ATOM     20  O   UNL     1      -0.129  -2.659  -0.113  0.00  0.00    -0.275 OA
ATOM     21  H   UNL     1      -2.045  -0.250   0.089  0.00  0.00    +0.155 HD
BRANCH  19  22
ATOM     22  C   UNL     1      -2.482  -2.826  -0.204  0.00  0.00    +0.100 C 
BRANCH  22  23
ATOM     23  C   UNL     1      -2.186  -4.323  -0.316  0.00  0.00    +0.001 C 
ATOM     24  C   UNL     1      -1.506  -4.638  -1.668  0.00  0.00    +0.007 C 
ATOM     25  C   UNL     1      -2.487  -5.614  -2.385  0.00  0.00    -0.010 C 
ATOM     26  C   UNL     1      -2.365  -6.947  -1.585  0.00  0.00    +0.004 C 
ATOM     27  C   UNL     1      -3.035  -6.649  -0.224  0.00  0.00    +0.004 C 
ATOM     28  C   UNL     1      -3.514  -5.139  -0.340  0.00  0.00    -0.007 C 
ATOM     29  C   UNL     1      -3.866  -5.069  -1.871  0.00  0.00    +0.007 C 
ENDBRANCH  22  23
ENDBRANCH  19  22
ENDBRANCH   6  18
TORSDOF 4
