REMARK  Name = ZINC59384311
REMARK  5 active torsions:
REMARK  status: ('A' for Active; 'I' for Inactive)
REMARK    1  A    between atoms: C_3  and  N_14
REMARK    2  A    between atoms: C_4  and  N_11
REMARK    3  A    between atoms: C_6  and  C_7
REMARK    4  A    between atoms: N_14  and  N_15
REMARK    5  A    between atoms: C_16  and  C_18
REMARK                            x       y       z     vdW  Elec       q    Type
REMARK                         _______ _______ _______ _____ _____    ______ ____
ROOT
ATOM      1  N   UNL     1       3.591   2.102  -0.127  0.00  0.00    -0.262 N 
ATOM      2  H   UNL     1       4.434   1.626  -0.065  0.00  0.00    +0.170 HD
ENDROOT
BRANCH   1   5
ATOM      3  C   UNL     1      -0.008   1.364  -0.206  0.00  0.00    +0.014 A 
ATOM      4  C   UNL     1       1.182   2.062  -0.267  0.00  0.00    +0.027 A 
ATOM      5  C   UNL     1       2.385   1.399  -0.066  0.00  0.00    +0.075 A 
ATOM      6  C   UNL     1       2.388   0.034   0.196  0.00  0.00    +0.149 A 
ATOM      7  C   UNL     1       1.194  -0.658   0.255  0.00  0.00    +0.047 A 
ATOM      8  C   UNL     1      -0.002   0.006   0.054  0.00  0.00    +0.057 A 
BRANCH   8   9
ATOM      9  C   UNL     1      -1.303  -0.753   0.120  0.00  0.00    +0.417 C 
ATOM     10  F   UNL     1      -2.367   0.125  -0.113  0.00  0.00    -0.166 F 
ATOM     11  F   UNL     1      -1.306  -1.758  -0.853  0.00  0.00    -0.166 F 
ATOM     12  F   UNL     1      -1.443  -1.329   1.387  0.00  0.00    -0.166 F 
ENDBRANCH   8   9
BRANCH   6  13
ATOM     13  N   UNL     1       3.668  -0.677   0.410  0.00  0.00    +0.058 N 
ATOM     14  O   UNL     1       3.816  -1.798  -0.016  0.00  0.00    -0.126 OA
ATOM     15  O   UNL     1       4.567  -0.136   1.012  0.00  0.00    -0.126 OA
ENDBRANCH   6  13
ENDBRANCH   1   5
BRANCH   1  16
ATOM     16  N   UNL     1       3.583   3.495  -0.278  0.00  0.00    -0.232 N 
ATOM     17  C   UNL     1       4.746   4.173  -0.337  0.00  0.00    +0.261 C 
ATOM     18  O   UNL     1       5.802   3.576  -0.259  0.00  0.00    -0.269 OA
ATOM     19  H   UNL     1       2.740   3.971  -0.340  0.00  0.00    +0.173 HD
BRANCH  17  20
ATOM     20  C   UNL     1       4.737   5.642  -0.496  0.00  0.00    +0.056 A 
ATOM     21  C   UNL     1       3.525   6.331  -0.580  0.00  0.00    +0.015 A 
ATOM     22  C   UNL     1       3.523   7.701  -0.729  0.00  0.00    +0.016 A 
ATOM     23  C   UNL     1       4.720   8.396  -0.795  0.00  0.00    +0.019 A 
ATOM     24  C   UNL     1       5.925   7.720  -0.713  0.00  0.00    +0.036 A 
ATOM     25  C   UNL     1       5.941   6.348  -0.557  0.00  0.00    +0.054 A 
ATOM     26 CL   UNL     1       7.453   5.502  -0.447  0.00  0.00    -0.083 Cl
ATOM     27 BR   UNL     1       4.707  10.276  -1.000  0.00  0.00    -0.050 Br
ENDBRANCH  17  20
ENDBRANCH   1  16
TORSDOF 5
