REMARK  Name = ZINC18454811
REMARK  7 active torsions:
REMARK  status: ('A' for Active; 'I' for Inactive)
REMARK    1  A    between atoms: C_1  and  C_2
REMARK    2  A    between atoms: C_2  and  C_4
REMARK    3  A    between atoms: C_2  and  S_19
REMARK    4  A    between atoms: N_6  and  C_7
REMARK    5  A    between atoms: C_8  and  C_17
REMARK    6  A    between atoms: S_19  and  C_20
REMARK    7  A    between atoms: C_23  and  C_25
REMARK                            x       y       z     vdW  Elec       q    Type
REMARK                         _______ _______ _______ _____ _____    ______ ____
ROOT
ATOM      1  C   UNL     1      -0.749   3.086   1.275  0.00  0.00    +0.231 C 
ATOM      2  O   UNL     1      -1.748   3.681   0.929  0.00  0.00    -0.274 OA
ATOM      3  N   UNL     1       0.342   3.773   1.668  0.00  0.00    -0.278 N 
ATOM      4  H   UNL     1       1.141   3.297   1.945  0.00  0.00    +0.155 HD
ENDROOT
BRANCH   3   5
ATOM      5  C   UNL     1       0.323   5.160   1.675  0.00  0.00    +0.090 A 
ATOM      6  C   UNL     1       1.335   6.033   2.041  0.00  0.00    +0.084 A 
ATOM      7  C   UNL     1       1.062   7.461   1.957  0.00  0.00    -0.018 A 
ATOM      8  C   UNL     1      -0.179   7.779   1.530  0.00  0.00    -0.004 A 
ATOM      9  S   UNL     1      -0.968   6.222   1.222  0.00  0.00    -0.077 S 
ATOM     10  C   UNL     1      -0.765   9.145   1.353  0.00  0.00    +0.043 C 
ATOM     11  C   UNL     1       0.216  10.016   0.557  0.00  0.00    +0.005 C 
ATOM     12  C   UNL     1       1.157  10.706   1.539  0.00  0.00    +0.001 C 
ATOM     13  C   UNL     1       1.413   9.803   2.744  0.00  0.00    +0.005 C 
ATOM     14  C   UNL     1       2.104   8.515   2.309  0.00  0.00    +0.037 C 
BRANCH   6  15
ATOM     15  C   UNL     1       2.606   5.548   2.487  0.00  0.00    +0.102 C 
ATOM     16  N   UNL     1       3.614   5.163   2.841  0.00  0.00    -0.191 NA
ENDBRANCH   6  15
ENDBRANCH   3   5
BRANCH   1  18
ATOM     17  C   UNL     1      -0.013   1.086   0.008  0.00  0.00    +0.029 C 
ATOM     18  C   UNL     1      -0.729   1.579   1.267  0.00  0.00    +0.139 C 
BRANCH  18  19
ATOM     19  S   UNL     1      -2.427   0.953   1.280  0.00  0.00    -0.053 S 
BRANCH  19  20
ATOM     20  C   UNL     1      -2.114  -0.776   1.419  0.00  0.00    +0.278 A 
ATOM     21  N   UNL     1      -0.935  -1.348   1.487  0.00  0.00    -0.101 NA
ATOM     22  N   UNL     1      -1.082  -2.623   1.582  0.00  0.00    -0.105 NA
ATOM     23  C   UNL     1      -2.362  -2.916   1.577  0.00  0.00    +0.265 A 
ATOM     24  O   UNL     1      -3.042  -1.751   1.480  0.00  0.00    -0.410 OA
BRANCH  23  25
ATOM     25  C   UNL     1      -2.948  -4.262   1.669  0.00  0.00    +0.104 A 
ATOM     26  C   UNL     1      -4.281  -4.561   1.670  0.00  0.00    +0.032 A 
ATOM     27  C   UNL     1      -4.396  -5.955   1.770  0.00  0.00    +0.020 A 
ATOM     28  C   UNL     1      -3.148  -6.469   1.835  0.00  0.00    +0.083 A 
ATOM     29  N   UNL     1      -2.253  -5.442   1.774  0.00  0.00    -0.357 N 
ATOM     30  H   UNL     1      -1.287  -5.530   1.801  0.00  0.00    +0.165 HD
ENDBRANCH  23  25
ENDBRANCH  19  20
ENDBRANCH  18  19
ENDBRANCH   1  18
TORSDOF 6
