REMARK  Name = ZINC01262829
REMARK  9 active torsions:
REMARK  status: ('A' for Active; 'I' for Inactive)
REMARK    1  A    between atoms: C_1  and  C_2
REMARK    2  A    between atoms: C_2  and  C_3
REMARK    3  A    between atoms: C_2  and  C_4
REMARK    4  A    between atoms: C_4  and  N_5
REMARK    5  A    between atoms: C_13  and  C_24
REMARK    6  A    between atoms: C_13  and  C_28
REMARK    7  A    between atoms: C_14  and  C_16
REMARK    8  A    between atoms: C_16  and  C_17
REMARK    9  A    between atoms: C_17  and  C_18
REMARK                            x       y       z     vdW  Elec       q    Type
REMARK                         _______ _______ _______ _____ _____    ______ ____
ROOT
ATOM      1  N   UNL     1       3.815   3.682  -0.692  0.00  0.00    -0.281 N 
ATOM      2  C   UNL     1       2.585   4.161  -0.345  0.00  0.00    +0.119 A 
ATOM      3  C   UNL     1       1.501   3.311  -0.359  0.00  0.00    +0.098 A 
ATOM      4  C   UNL     1       1.696   1.979  -0.735  0.00  0.00    +0.262 A 
ATOM      5  N   UNL     1       2.914   1.562  -1.061  0.00  0.00    -0.275 N 
ATOM      6  C   UNL     1       3.954   2.390  -1.046  0.00  0.00    +0.331 A 
ATOM      7  O   UNL     1       5.057   1.971  -1.356  0.00  0.00    -0.246 OA
ATOM      8  O   UNL     1       0.652   1.119  -0.761  0.00  0.00    -0.267 OA
ATOM      9  C   UNL     1       0.139   3.809   0.030  0.00  0.00    +0.264 C 
ATOM     10  C   UNL     1       1.141   6.006   0.033  0.00  0.00    +0.074 C 
ATOM     11  N   UNL     1       2.408   5.477   0.016  0.00  0.00    -0.290 N 
ATOM     12  H   UNL     1       3.051   0.606  -1.323  0.00  0.00    +0.173 HD
ATOM     13  H   UNL     1       3.171   6.025   0.256  0.00  0.00    +0.155 HD
ATOM     14  N   UNL     1       0.011   5.310   0.036  0.00  0.00    -0.352 N 
ATOM     15  H   UNL     1      -0.906   5.772   0.043  0.00  0.00    +0.162 HD
ENDROOT
BRANCH   9  16
ATOM     16  C   UNL     1      -0.893   3.279  -0.968  0.00  0.00    +0.426 C 
ATOM     17  F   UNL     1      -1.173   1.938  -0.681  0.00  0.00    -0.167 F 
ATOM     18  F   UNL     1      -2.067   4.032  -0.869  0.00  0.00    -0.167 F 
ATOM     19  F   UNL     1      -0.381   3.381  -2.266  0.00  0.00    -0.167 F 
ENDBRANCH   9  16
BRANCH   9  20
ATOM     20  C   UNL     1      -0.204   3.291   1.428  0.00  0.00    +0.426 C 
ATOM     21  F   UNL     1       0.745   3.755   2.344  0.00  0.00    -0.167 F 
ATOM     22  F   UNL     1      -1.473   3.751   1.797  0.00  0.00    -0.167 F 
ATOM     23  F   UNL     1      -0.200   1.892   1.421  0.00  0.00    -0.167 F 
ENDBRANCH   9  20
BRANCH   1  24
ATOM     24  C   UNL     1       4.980   4.570  -0.677  0.00  0.00    +0.131 C 
BRANCH  24  26
ATOM     25  C   UNL     1       6.193   3.126   0.962  0.00  0.00    +0.009 C 
ATOM     26  C   UNL     1       5.637   4.528   0.704  0.00  0.00    +0.003 C 
ATOM     27  C   UNL     1       6.777   5.547   0.758  0.00  0.00    +0.009 C 
ENDBRANCH  24  26
ENDBRANCH   1  24
BRANCH  10  28
ATOM     28  C   UNL     1       0.976   7.504   0.048  0.00  0.00    +0.070 C 
BRANCH  28  29
ATOM     29  C   UNL     1      -0.514   7.853   0.066  0.00  0.00    +0.011 C 
BRANCH  29  30
ATOM     30  C   UNL     1      -0.681   9.374   0.082  0.00  0.00    -0.011 C 
ATOM     31  C   UNL     1      -0.118   9.935   1.389  0.00  0.00    +0.003 C 
ATOM     32  C   UNL     1      -0.286  11.456   1.405  0.00  0.00    +0.000 C 
ATOM     33  C   UNL     1      -1.771  11.807   1.297  0.00  0.00    +0.000 C 
ATOM     34  C   UNL     1      -2.334  11.245  -0.011  0.00  0.00    +0.000 C 
ATOM     35  C   UNL     1      -2.167   9.724  -0.026  0.00  0.00    +0.003 C 
ENDBRANCH  29  30
ENDBRANCH  28  29
ENDBRANCH  10  28
TORSDOF 7
