REMARK  Name = ZINC10139605
REMARK  8 active torsions:
REMARK  status: ('A' for Active; 'I' for Inactive)
REMARK    1  A    between atoms: C_1  and  C_2
REMARK    2  A    between atoms: C_2  and  C_3
REMARK    3  A    between atoms: C_2  and  C_4
REMARK    4  A    between atoms: C_4  and  C_6
REMARK    5  A    between atoms: C_4  and  N_51
REMARK    6  A    between atoms: C_13  and  C_14
REMARK    7  A    between atoms: C_13  and  N_51
REMARK    8  A    between atoms: C_18  and  C_27
REMARK                            x       y       z     vdW  Elec       q    Type
REMARK                         _______ _______ _______ _____ _____    ______ ____
ROOT
ATOM      1  C   UNL     1      -5.449   3.356   2.368  0.00  0.00    +0.203 C 
ATOM      2  O   UNL     1      -5.333   2.158   2.512  0.00  0.00    -0.277 OA
ATOM      3  N   UNL     1      -6.410   4.025   3.037  0.00  0.00    -0.266 N 
ATOM      4  C   UNL     1      -6.635   5.463   2.812  0.00  0.00    +0.168 C 
ATOM      5  C   UNL     1      -6.873   6.115   4.182  0.00  0.00    +0.276 C 
ATOM      6  O   UNL     1      -7.995   5.484   4.803  0.00  0.00    -0.476 OA
ATOM      7  C   UNL     1      -8.014   4.125   4.846  0.00  0.00    +0.143 A 
ATOM      8  C   UNL     1      -7.236   3.373   3.968  0.00  0.00    +0.078 A 
ATOM      9  C   UNL     1      -7.266   1.990   4.023  0.00  0.00    +0.027 A 
ATOM     10  C   UNL     1      -8.075   1.354   4.947  0.00  0.00    +0.002 A 
ATOM     11  C   UNL     1      -8.849   2.098   5.818  0.00  0.00    +0.004 A 
ATOM     12  C   UNL     1      -8.821   3.479   5.770  0.00  0.00    +0.047 A 
ENDROOT
BRANCH   5  13
ATOM     13  C   UNL     1      -7.156   7.584   4.000  0.00  0.00    +0.253 C 
ATOM     14  O   UNL     1      -8.244   8.032   4.294  0.00  0.00    -0.272 OA
ATOM     15  N   UNL     1      -6.201   8.399   3.510  0.00  0.00    -0.326 N 
ATOM     16  H   UNL     1      -5.331   8.040   3.275  0.00  0.00    +0.145 HD
ATOM     17  H   UNL     1      -6.383   9.344   3.393  0.00  0.00    +0.145 HD
ENDBRANCH   5  13
BRANCH   1  18
ATOM     18  C   UNL     1      -4.521   4.098   1.442  0.00  0.00    +0.016 C 
BRANCH  18  19
ATOM     19  N   UNL     1      -3.497   3.165   0.934  0.00  0.00    +0.389 N 
ATOM     20  H   UNL     1      -2.967   2.780   1.725  0.00  0.00    -0.084 HD
ATOM     21  H   UNL     1      -3.958   2.400   0.427  0.00  0.00    -0.084 HD
BRANCH  19  22
ATOM     22  C   UNL     1      -2.572   3.865   0.023  0.00  0.00    -0.038 C 
BRANCH  22  23
ATOM     23  C   UNL     1      -1.252   3.138   0.004  0.00  0.00    -0.061 A 
ATOM     24  C   UNL     1      -1.224   1.756   0.004  0.00  0.00    +0.003 A 
ATOM     25  C   UNL     1      -0.014   1.089  -0.008  0.00  0.00    +0.020 A 
ATOM     26  C   UNL     1       1.170   1.805  -0.030  0.00  0.00    +0.041 A 
ATOM     27  C   UNL     1       1.141   3.188  -0.035  0.00  0.00    +0.020 A 
ATOM     28  C   UNL     1      -0.070   3.854  -0.018  0.00  0.00    +0.003 A 
ATOM     29 CL   UNL     1       2.691   0.968  -0.051  0.00  0.00    -0.084 Cl
ENDBRANCH  22  23
BRANCH  22  31
ATOM     30  C   UNL     1      -2.199   4.604  -2.334  0.00  0.00    +0.006 C 
ATOM     31  C   UNL     1      -3.163   3.886  -1.388  0.00  0.00    -0.027 C 
ATOM     32  C   UNL     1      -3.378   2.451  -1.872  0.00  0.00    +0.006 C 
ENDBRANCH  22  31
ENDBRANCH  19  22
ENDBRANCH  18  19
ENDBRANCH   1  18
TORSDOF 6
