REMARK  Name = ZINC62238969
REMARK  4 active torsions:
REMARK  status: ('A' for Active; 'I' for Inactive)
REMARK    1  A    between atoms: C_5  and  C_7
REMARK    2  A    between atoms: C_8  and  C_21
REMARK    3  A    between atoms: N_11  and  C_12
REMARK    4  A    between atoms: C_21  and  O_22
REMARK                            x       y       z     vdW  Elec       q    Type
REMARK                         _______ _______ _______ _____ _____    ______ ____
ROOT
ATOM      1  C   UNL     1       1.248  -2.162  -0.023  0.00  0.00    +0.103 A 
ATOM      2  C   UNL     1       1.267  -2.985   1.064  0.00  0.00    +0.116 A 
ATOM      3  N   UNL     1       1.288  -4.248   0.646  0.00  0.00    -0.131 NA
ATOM      4  N   UNL     1       1.282  -4.292  -0.640  0.00  0.00    -0.060 NA
ATOM      5  N   UNL     1       1.252  -2.975  -1.125  0.00  0.00    -0.212 N 
ENDROOT
BRANCH   5   6
ATOM      6  C   UNL     1       1.232  -2.574  -2.469  0.00  0.00    +0.071 A 
ATOM      7  C   UNL     1       0.523  -1.440  -2.844  0.00  0.00    +0.031 A 
ATOM      8  C   UNL     1       0.502  -1.043  -4.167  0.00  0.00    +0.051 A 
ATOM      9  C   UNL     1       1.189  -1.774  -5.123  0.00  0.00    +0.166 A 
ATOM     10  C   UNL     1       1.901  -2.912  -4.749  0.00  0.00    +0.168 A 
ATOM     11  C   UNL     1       1.926  -3.306  -3.422  0.00  0.00    +0.077 A 
ATOM     12  O   UNL     1       2.483  -3.448  -5.862  0.00  0.00    -0.453 OA
ATOM     13  C   UNL     1       1.786  -2.864  -6.979  0.00  0.00    +0.466 C 
ATOM     14  O   UNL     1       1.325  -1.598  -6.470  0.00  0.00    -0.453 OA
ENDBRANCH   5   6
BRANCH   1  19
ATOM     15  C   UNL     1      -0.017   1.375   0.010  0.00  0.00    +0.001 A 
ATOM     16  C   UNL     1       1.170   2.087   0.002  0.00  0.00    +0.003 A 
ATOM     17  C   UNL     1       2.382   1.423  -0.013  0.00  0.00    +0.039 A 
ATOM     18  C   UNL     1       2.416   0.041  -0.021  0.00  0.00    +0.133 A 
ATOM     19  C   UNL     1       1.221  -0.683  -0.014  0.00  0.00    +0.038 A 
ATOM     20  C   UNL     1       0.002  -0.004   0.002  0.00  0.00    +0.013 A 
ATOM     21  F   UNL     1       3.601  -0.608  -0.037  0.00  0.00    -0.205 F 
ENDBRANCH   1  19
BRANCH   2  22
ATOM     22  C   UNL     1       1.266  -2.537   2.503  0.00  0.00    +0.215 C 
BRANCH  22  23
ATOM     23  O   UNL     1      -0.081  -2.420   2.965  0.00  0.00    -0.389 OA
ATOM     24  H   UNL     1      -0.158  -2.134   3.885  0.00  0.00    +0.210 HD
ENDBRANCH  22  23
ENDBRANCH   2  22
TORSDOF 4
