REMARK  Name = ZINC38507536
REMARK  5 active torsions:
REMARK  status: ('A' for Active; 'I' for Inactive)
REMARK    1  A    between atoms: C_1  and  C_2
REMARK    2  A    between atoms: C_15  and  C_17
REMARK    3  A    between atoms: N_20  and  C_22
REMARK    4  A    between atoms: C_22  and  C_23
REMARK    5  A    between atoms: C_22  and  C_24
REMARK                            x       y       z     vdW  Elec       q    Type
REMARK                         _______ _______ _______ _____ _____    ______ ____
ROOT
ATOM      1  C   UNL     1      -0.018   1.503   0.010  0.00  0.00    +0.073 C 
ATOM      2  C   UNL     1       0.002  -0.004   0.002  0.00  0.00    +0.076 A 
ATOM      3  N   UNL     1      -1.014  -0.816   0.002  0.00  0.00    -0.243 NA
ATOM      4  C   UNL     1      -0.867  -2.157  -0.007  0.00  0.00    +0.094 A 
ATOM      5  C   UNL     1       0.485  -2.569  -0.015  0.00  0.00    +0.040 A 
ATOM      6  S   UNL     1       1.345  -1.018  -0.017  0.00  0.00    -0.072 S 
ATOM      7  C   UNL     1       0.838  -3.899  -0.025  0.00  0.00    +0.019 A 
ATOM      8  C   UNL     1      -0.107  -4.878  -0.025  0.00  0.00    +0.030 A 
ATOM      9  C   UNL     1      -1.488  -4.548  -0.017  0.00  0.00    +0.082 A 
ATOM     10  C   UNL     1      -1.821  -3.184  -0.008  0.00  0.00    +0.067 A 
ATOM     11  S   UNL     1      -3.597  -3.219   0.001  0.00  0.00    -0.050 S 
ATOM     12  C   UNL     1      -3.783  -4.997  -0.008  0.00  0.00    +0.166 A 
ATOM     13  N   UNL     1      -2.536  -5.405  -0.017  0.00  0.00    -0.224 NA
ATOM     14  N   UNL     1      -4.946  -5.750  -0.006  0.00  0.00    -0.259 N 
ATOM     15  C   UNL     1      -4.877  -7.096  -0.014  0.00  0.00    +0.270 C 
ATOM     16  O   UNL     1      -3.794  -7.649  -0.024  0.00  0.00    -0.268 OA
ATOM     17  H   UNL     1      -5.810  -5.309   0.001  0.00  0.00    +0.157 HD
ENDROOT
BRANCH  15  18
ATOM     18  C   UNL     1      -6.116  -7.899  -0.012  0.00  0.00    +0.147 A 
ATOM     19  C   UNL     1      -6.205  -9.311  -0.014  0.00  0.00    +0.054 A 
ATOM     20  C   UNL     1      -7.529  -9.591  -0.011  0.00  0.00    +0.109 A 
ATOM     21  N   UNL     1      -8.187  -8.411  -0.007  0.00  0.00    -0.268 N 
ATOM     22  N   UNL     1      -7.351  -7.436  -0.002  0.00  0.00    -0.166 NA
BRANCH  21  23
ATOM     23  C   UNL     1      -9.645  -8.265  -0.003  0.00  0.00    +0.101 C 
ATOM     24  C   UNL     1     -10.168  -8.337  -1.438  0.00  0.00    +0.032 C 
ATOM     25  C   UNL     1     -10.268  -9.391   0.825  0.00  0.00    +0.032 C 
ENDBRANCH  21  23
ENDBRANCH  15  18
TORSDOF 2
