REMARK  Name = ZINC09459597
REMARK  10 active torsions:
REMARK  status: ('A' for Active; 'I' for Inactive)
REMARK    1  A    between atoms: C_1  and  C_2
REMARK    2  A    between atoms: C_9  and  C_19
REMARK    3  A    between atoms: C_12  and  C_13
REMARK    4  A    between atoms: C_19  and  O_21
REMARK    5  A    between atoms: O_21  and  C_22
REMARK    6  A    between atoms: C_22  and  C_24
REMARK    7  A    between atoms: C_22  and  C_25
REMARK    8  A    between atoms: N_27  and  C_28
REMARK    9  A    between atoms: C_28  and  C_30
REMARK   10  A    between atoms: C_28  and  C_31
REMARK                            x       y       z     vdW  Elec       q    Type
REMARK                         _______ _______ _______ _____ _____    ______ ____
ROOT
ATOM      1  C   UNL     1      -2.524   1.259  -0.519  0.00  0.00    +0.051 C 
ATOM      2  C   UNL     1      -1.221   1.963  -0.241  0.00  0.00    +0.040 A 
ATOM      3  C   UNL     1      -0.003   1.243  -0.262  0.00  0.00    +0.196 A 
ATOM      4  O   UNL     1       0.023   0.048  -0.503  0.00  0.00    -0.287 OA
ATOM      5  C   UNL     1       1.235   1.998   0.014  0.00  0.00    +0.065 A 
ATOM      6  C   UNL     1       2.481   1.373   0.009  0.00  0.00    +0.015 A 
ATOM      7  C   UNL     1       3.621   2.106   0.271  0.00  0.00    +0.002 A 
ATOM      8  C   UNL     1       3.538   3.460   0.539  0.00  0.00    +0.019 A 
ATOM      9  C   UNL     1       2.301   4.105   0.548  0.00  0.00    +0.102 A 
ATOM     10  C   UNL     1       1.134   3.371   0.284  0.00  0.00    +0.153 A 
ATOM     11  O   UNL     1      -0.073   3.968   0.286  0.00  0.00    -0.454 OA
ATOM     12  C   UNL     1      -1.207   3.295   0.037  0.00  0.00    +0.142 A 
ENDROOT
BRANCH  12  13
ATOM     13  C   UNL     1      -2.488   4.029   0.060  0.00  0.00    +0.018 A 
ATOM     14  C   UNL     1      -2.643   5.194  -0.695  0.00  0.00    +0.011 A 
ATOM     15  C   UNL     1      -3.844   5.872  -0.672  0.00  0.00    +0.001 A 
ATOM     16  C   UNL     1      -4.890   5.407   0.104  0.00  0.00    +0.000 A 
ATOM     17  C   UNL     1      -4.743   4.256   0.858  0.00  0.00    +0.001 A 
ATOM     18  C   UNL     1      -3.549   3.565   0.841  0.00  0.00    +0.011 A 
ENDBRANCH  12  13
BRANCH   9  19
ATOM     19  C   UNL     1       2.220   5.549   0.834  0.00  0.00    +0.343 C 
ATOM     20  O   UNL     1       1.140   6.108   0.841  0.00  0.00    -0.245 OA
BRANCH  19  21
ATOM     21  O   UNL     1       3.342   6.250   1.088  0.00  0.00    -0.449 OA
BRANCH  21  22
ATOM     22  C   UNL     1       3.187   7.668   1.361  0.00  0.00    +0.259 C 
ATOM     23  C   UNL     1       3.271   8.452   0.050  0.00  0.00    +0.062 C 
BRANCH  22  24
ATOM     24  C   UNL     1       4.282   8.123   2.290  0.00  0.00    +0.254 C 
ATOM     25  O   UNL     1       5.164   7.355   2.611  0.00  0.00    -0.272 OA
ATOM     26  N   UNL     1       4.282   9.385   2.764  0.00  0.00    -0.306 N 
ATOM     27  H   UNL     1       3.578  10.000   2.507  0.00  0.00    +0.149 HD
BRANCH  26  28
ATOM     28  C   UNL     1       5.347   9.828   3.668  0.00  0.00    +0.100 C 
ATOM     29  C   UNL     1       6.552  10.292   2.847  0.00  0.00    +0.033 C 
BRANCH  28  30
ATOM     30  C   UNL     1       4.846  10.970   4.514  0.00  0.00    -0.027 A 
ATOM     31  C   UNL     1       4.048  11.948   3.951  0.00  0.00    +0.005 A 
ATOM     32  C   UNL     1       3.585  12.993   4.728  0.00  0.00    +0.000 A 
ATOM     33  C   UNL     1       3.926  13.064   6.066  0.00  0.00    +0.000 A 
ATOM     34  C   UNL     1       4.728  12.088   6.627  0.00  0.00    +0.000 A 
ATOM     35  C   UNL     1       5.188  11.041   5.851  0.00  0.00    +0.005 A 
ENDBRANCH  28  30
ENDBRANCH  26  28
ENDBRANCH  22  24
ENDBRANCH  21  22
ENDBRANCH  19  21
ENDBRANCH   9  19
TORSDOF 7
