REMARK  Name = ZINC40449555
REMARK  7 active torsions:
REMARK  status: ('A' for Active; 'I' for Inactive)
REMARK    1  A    between atoms: C_1  and  C_2
REMARK    2  A    between atoms: C_4  and  C_14
REMARK    3  A    between atoms: C_5  and  C_10
REMARK    4  A    between atoms: C_6  and  C_9
REMARK    5  A    between atoms: C_7  and  C_8
REMARK    6  A    between atoms: C_10  and  C_12
REMARK    7  A    between atoms: C_12  and  O_13
REMARK                            x       y       z     vdW  Elec       q    Type
REMARK                         _______ _______ _______ _____ _____    ______ ____
ROOT
ATOM      1  C   UNL     1      -0.503   1.431   0.455  0.00  0.00    +0.044 C 
ATOM      2  C   UNL     1      -0.234  -0.033   0.216  0.00  0.00    -0.047 A 
ATOM      3  C   UNL     1      -0.037  -0.494  -1.074  0.00  0.00    +0.007 A 
ATOM      4  C   UNL     1       0.209  -1.832  -1.301  0.00  0.00    -0.039 A 
ATOM      5  C   UNL     1       0.260  -2.722  -0.224  0.00  0.00    +0.026 A 
ATOM      6  C   UNL     1       0.060  -2.248   1.076  0.00  0.00    -0.036 A 
ATOM      7  C   UNL     1      -0.180  -0.906   1.288  0.00  0.00    -0.044 A 
ATOM      8  C   UNL     1      -0.390  -0.392   2.688  0.00  0.00    +0.044 C 
ATOM      9  C   UNL     1       0.113  -3.199   2.244  0.00  0.00    +0.045 C 
ATOM     10  C   UNL     1       0.423  -2.333  -2.706  0.00  0.00    +0.044 C 
ENDROOT
BRANCH   5  11
ATOM     11  C   UNL     1       0.522  -4.152  -0.458  0.00  0.00    +0.189 C 
ATOM     12  O   UNL     1      -0.403  -4.924  -0.589  0.00  0.00    -0.290 OA
BRANCH  11  13
ATOM     13  C   UNL     1       1.941  -4.655  -0.534  0.00  0.00    +0.235 C 
BRANCH  13  14
ATOM     14  O   UNL     1       1.935  -6.079  -0.647  0.00  0.00    -0.387 OA
ATOM     15  H   UNL     1       2.817  -6.473  -0.701  0.00  0.00    +0.210 HD
ENDBRANCH  13  14
ENDBRANCH  11  13
ENDBRANCH   5  11
TORSDOF 3
