REMARK  Name = ZINC09871500
REMARK  4 active torsions:
REMARK  status: ('A' for Active; 'I' for Inactive)
REMARK    1  A    between atoms: C_4  and  C_7
REMARK    2  A    between atoms: C_9  and  N_20
REMARK    3  A    between atoms: C_21  and  C_23
REMARK    4  A    between atoms: C_26  and  N_29
REMARK                            x       y       z     vdW  Elec       q    Type
REMARK                         _______ _______ _______ _____ _____    ______ ____
ROOT
ATOM      1  C   UNL     1       3.518   2.093  -0.593  0.00  0.00    +0.128 C 
ATOM      2  C   UNL     1       2.422   1.186  -0.015  0.00  0.00    +0.169 C 
ATOM      3  C   UNL     1       2.823   0.819   1.401  0.00  0.00    +0.187 C 
ATOM      4  O   UNL     1       2.013   0.820   2.304  0.00  0.00    -0.290 OA
ATOM      5  C   UNL     1       4.230   0.463   1.637  0.00  0.00    +0.040 A 
ATOM      6  C   UNL     1       4.619  -0.168   2.821  0.00  0.00    +0.013 A 
ATOM      7  C   UNL     1       5.945  -0.487   3.018  0.00  0.00    +0.001 A 
ATOM      8  C   UNL     1       6.890  -0.185   2.050  0.00  0.00    +0.002 A 
ATOM      9  C   UNL     1       6.520   0.436   0.874  0.00  0.00    +0.023 A 
ATOM     10  C   UNL     1       5.189   0.766   0.654  0.00  0.00    +0.038 A 
ATOM     11  N   UNL     1       4.803   1.386  -0.525  0.00  0.00    -0.334 N 
ATOM     12  H   UNL     1       5.380   1.352  -1.303  0.00  0.00    +0.147 HD
ENDROOT
BRANCH   1  16
ATOM     13  C   UNL     1       3.745   5.696   1.690  0.00  0.00    +0.000 A 
ATOM     14  C   UNL     1       3.069   5.684   0.484  0.00  0.00    +0.000 A 
ATOM     15  C   UNL     1       2.996   4.518  -0.255  0.00  0.00    +0.005 A 
ATOM     16  C   UNL     1       3.598   3.364   0.213  0.00  0.00    -0.025 A 
ATOM     17  C   UNL     1       4.269   3.376   1.421  0.00  0.00    +0.005 A 
ATOM     18  C   UNL     1       4.347   4.543   2.158  0.00  0.00    +0.000 A 
ENDBRANCH   1  16
BRANCH   2  19
ATOM     19  N   UNL     1       1.143   1.901   0.001  0.00  0.00    -0.299 N 
ATOM     20  C   UNL     1      -0.014   1.211   0.009  0.00  0.00    +0.245 C 
ATOM     21  O   UNL     1       0.002  -0.004   0.002  0.00  0.00    -0.270 OA
ATOM     22  H   UNL     1       1.130   2.871   0.007  0.00  0.00    +0.150 HD
BRANCH  20  23
ATOM     23  C   UNL     1      -1.305   1.933   0.019  0.00  0.00    +0.037 A 
ATOM     24  C   UNL     1      -1.327   3.329   0.032  0.00  0.00    +0.015 A 
ATOM     25  C   UNL     1      -2.534   3.996   0.036  0.00  0.00    +0.033 A 
ATOM     26  C   UNL     1      -3.721   3.285   0.038  0.00  0.00    +0.126 A 
ATOM     27  C   UNL     1      -3.706   1.901   0.030  0.00  0.00    +0.033 A 
ATOM     28  C   UNL     1      -2.506   1.222   0.021  0.00  0.00    +0.015 A 
BRANCH  26  29
ATOM     29  N   UNL     1      -5.013   4.008   0.049  0.00  0.00    +0.056 N 
ATOM     30  O   UNL     1      -6.060   3.384   0.051  0.00  0.00    -0.126 OA
ATOM     31  O   UNL     1      -5.030   5.225   0.055  0.00  0.00    -0.126 OA
ENDBRANCH  26  29
ENDBRANCH  20  23
ENDBRANCH   2  19
TORSDOF 4
