REMARK  Name = ZINC34787159
REMARK  8 active torsions:
REMARK  status: ('A' for Active; 'I' for Inactive)
REMARK    1  A    between atoms: C_1  and  C_2
REMARK    2  A    between atoms: C_4  and  C_37
REMARK    3  A    between atoms: C_11  and  C_17
REMARK    4  A    between atoms: C_12  and  C_16
REMARK    5  A    between atoms: N_18  and  N_19
REMARK    6  A    between atoms: N_18  and  N_26
REMARK    7  A    between atoms: N_19  and  C_20
REMARK    8  A    between atoms: N_26  and  C_27
REMARK                            x       y       z     vdW  Elec       q    Type
REMARK                         _______ _______ _______ _____ _____    ______ ____
ROOT
ATOM      1  C   UNL     1       4.021  -6.610  -0.934  0.00  0.00    +0.067 C 
ATOM      2  C   UNL     1       2.611  -6.405  -0.444  0.00  0.00    +0.061 A 
ATOM      3  C   UNL     1       1.480  -6.238  -1.252  0.00  0.00    +0.048 A 
ATOM      4  C   UNL     1       0.408  -6.083  -0.441  0.00  0.00    +0.045 A 
ATOM      5  N   UNL     1       0.850  -6.151   0.842  0.00  0.00    -0.202 N 
ATOM      6  N   UNL     1       2.235  -6.358   0.808  0.00  0.00    -0.169 NA
ATOM      7  C   UNL     1       0.064  -6.039   1.990  0.00  0.00    +0.254 A 
ATOM      8  N   UNL     1       0.639  -6.120   3.182  0.00  0.00    -0.192 NA
ATOM      9  C   UNL     1      -0.053  -6.021   4.304  0.00  0.00    +0.170 A 
ATOM     10  C   UNL     1      -1.460  -5.820   4.239  0.00  0.00    +0.054 A 
ATOM     11  C   UNL     1      -2.429  -5.681   5.312  0.00  0.00    -0.028 A 
ATOM     12  C   UNL     1      -3.722  -5.497   5.008  0.00  0.00    -0.008 A 
ATOM     13  S   UNL     1      -3.735  -5.496   3.226  0.00  0.00    -0.073 S 
ATOM     14  C   UNL     1      -2.003  -5.744   2.937  0.00  0.00    +0.116 A 
ATOM     15  N   UNL     1      -1.240  -5.848   1.866  0.00  0.00    -0.203 NA
ATOM     16  C   UNL     1      -4.887  -5.331   5.950  0.00  0.00    +0.052 C 
ATOM     17  C   UNL     1      -1.986  -5.744   6.751  0.00  0.00    +0.045 C 
ATOM     18  N   UNL     1       0.584  -6.111   5.529  0.00  0.00    -0.151 N 
ATOM     19  C   UNL     1      -1.018  -5.874  -0.881  0.00  0.00    +0.066 C 
ENDROOT
BRANCH  18  20
ATOM     20  N   UNL     1       0.182  -7.080   6.457  0.00  0.00    -0.246 N 
ATOM     21  H   UNL     1      -0.547  -6.894   7.069  0.00  0.00    +0.172 HD
BRANCH  20  22
ATOM     22  C   UNL     1       0.832  -8.316   6.502  0.00  0.00    +0.046 A 
ATOM     23  C   UNL     1       1.947  -8.546   5.705  0.00  0.00    +0.024 A 
ATOM     24  C   UNL     1       2.587  -9.768   5.753  0.00  0.00    +0.002 A 
ATOM     25  C   UNL     1       2.120 -10.763   6.592  0.00  0.00    +0.000 A 
ATOM     26  C   UNL     1       1.011 -10.538   7.386  0.00  0.00    +0.002 A 
ATOM     27  C   UNL     1       0.369  -9.316   7.348  0.00  0.00    +0.024 A 
ENDBRANCH  20  22
ENDBRANCH  18  20
BRANCH  18  28
ATOM     28  N   UNL     1       1.630  -5.234   5.840  0.00  0.00    -0.246 N 
ATOM     29  H   UNL     1       2.531  -5.574   5.957  0.00  0.00    +0.172 HD
BRANCH  28  30
ATOM     30  C   UNL     1       1.377  -3.871   5.983  0.00  0.00    +0.054 A 
ATOM     31  C   UNL     1       0.132  -3.359   5.685  0.00  0.00    +0.025 A 
ATOM     32  C   UNL     1      -0.130  -2.000   5.825  0.00  0.00    +0.002 A 
ATOM     33  C   UNL     1       0.831  -1.139   6.258  0.00  0.00    +0.008 A 
ATOM     34  C   UNL     1       2.114  -1.620   6.573  0.00  0.00    -0.016 A 
ATOM     35  C   UNL     1       2.392  -3.002   6.440  0.00  0.00    +0.004 A 
ATOM     36  C   UNL     1       3.672  -3.482   6.759  0.00  0.00    +0.010 A 
ATOM     37  C   UNL     1       4.627  -2.615   7.197  0.00  0.00    +0.001 A 
ATOM     38  C   UNL     1       4.352  -1.256   7.333  0.00  0.00    +0.001 A 
ATOM     39  C   UNL     1       3.126  -0.754   7.023  0.00  0.00    +0.008 A 
ENDBRANCH  28  30
ENDBRANCH  18  28
TORSDOF 4
