REMARK  Name = ZINC41519145
REMARK  6 active torsions:
REMARK  status: ('A' for Active; 'I' for Inactive)
REMARK    1  A    between atoms: C_1  and  C_2
REMARK    2  A    between atoms: C_6  and  N_9
REMARK    3  A    between atoms: C_7  and  C_8
REMARK    4  A    between atoms: C_10  and  C_12
REMARK    5  A    between atoms: N_14  and  C_15
REMARK    6  A    between atoms: C_15  and  C_16
REMARK                            x       y       z     vdW  Elec       q    Type
REMARK                         _______ _______ _______ _____ _____    ______ ____
ROOT
ATOM      1  C   UNL     1      -0.137  -4.891   3.671  0.00  0.00    +0.300 C 
ATOM      2  O   UNL     1      -0.136  -4.289   4.724  0.00  0.00    -0.265 OA
ATOM      3  N   UNL     1      -0.220  -6.236   3.663  0.00  0.00    -0.303 N 
ATOM      4  H   UNL     1      -0.220  -6.718   2.821  0.00  0.00    +0.149 HD
ENDROOT
BRANCH   1   6
ATOM      5  N   UNL     1       0.037  -2.796   2.389  0.00  0.00    -0.278 N 
ATOM      6  C   UNL     1      -0.046  -4.142   2.382  0.00  0.00    +0.303 C 
ATOM      7  O   UNL     1      -0.047  -4.744   1.328  0.00  0.00    -0.265 OA
ATOM      8  H   UNL     1       0.119  -2.320   3.230  0.00  0.00    +0.155 HD
BRANCH   5  14
ATOM      9  C   UNL     1       1.175   1.237  -0.178  0.00  0.00    +0.044 C 
ATOM     10  C   UNL     1       0.548  -0.130  -0.088  0.00  0.00    -0.046 A 
ATOM     11  C   UNL     1      -0.062  -0.685  -1.199  0.00  0.00    +0.004 A 
ATOM     12  C   UNL     1      -0.638  -1.939  -1.121  0.00  0.00    +0.002 A 
ATOM     13  C   UNL     1      -0.607  -2.642   0.068  0.00  0.00    +0.023 A 
ATOM     14  C   UNL     1       0.004  -2.088   1.185  0.00  0.00    +0.037 A 
ATOM     15  C   UNL     1       0.588  -0.830   1.101  0.00  0.00    -0.026 A 
ATOM     16  C   UNL     1       1.257  -0.227   2.309  0.00  0.00    +0.046 C 
ENDBRANCH   5  14
ENDBRANCH   1   6
BRANCH   3  17
ATOM     17  C   UNL     1      -0.308  -6.971   4.927  0.00  0.00    +0.141 C 
BRANCH  17  18
ATOM     18  C   UNL     1      -0.390  -8.449   4.644  0.00  0.00    -0.014 A 
ATOM     19  C   UNL     1      -1.623  -9.062   4.466  0.00  0.00    +0.010 A 
ATOM     20  C   UNL     1      -1.654 -10.421   4.208  0.00  0.00    +0.042 A 
ATOM     21  C   UNL     1      -0.455 -11.123   4.137  0.00  0.00    +0.099 A 
ATOM     22  N   UNL     1       0.701 -10.502   4.313  0.00  0.00    -0.349 N 
ATOM     23  C   UNL     1       0.760  -9.206   4.554  0.00  0.00    +0.089 A 
ATOM     24  N   UNL     1      -0.472 -12.489   3.879  0.00  0.00    -0.317 N 
ATOM     25  C   UNL     1       0.770 -13.273   3.918  0.00  0.00    +0.106 C 
ATOM     26  C   UNL     1       0.574 -14.459   4.867  0.00  0.00    +0.019 C 
ATOM     27  C   UNL     1      -0.658 -15.256   4.434  0.00  0.00    +0.003 C 
ATOM     28  C   UNL     1      -1.899 -14.363   4.514  0.00  0.00    +0.019 C 
ATOM     29  C   UNL     1      -1.732 -13.177   3.567  0.00  0.00    +0.106 C 
ATOM     30  H   UNL     1       1.524 -11.012   4.259  0.00  0.00    +0.167 HD
ENDBRANCH  17  18
ENDBRANCH   3  17
TORSDOF 4
