REMARK  Name = ZINC67607826
REMARK  6 active torsions:
REMARK  status: ('A' for Active; 'I' for Inactive)
REMARK    1  A    between atoms: C_1  and  C_2
REMARK    2  A    between atoms: C_4  and  C_7
REMARK    3  A    between atoms: C_7  and  N_8
REMARK    4  A    between atoms: N_11  and  C_12
REMARK    5  A    between atoms: C_12  and  C_13
REMARK    6  A    between atoms: C_16  and  C_18
REMARK                            x       y       z     vdW  Elec       q    Type
REMARK                         _______ _______ _______ _____ _____    ______ ____
ROOT
ATOM      1  C   UNL     1      -3.435  -6.533  -3.171  0.00  0.00    +0.180 C 
ENDROOT
BRANCH   1   5
ATOM      2  N   UNL     1      -1.691  -3.832  -1.387  0.00  0.00    -0.294 N 
ATOM      3  C   UNL     1      -2.442  -4.923  -1.635  0.00  0.00    +0.300 C 
ATOM      4  O   UNL     1      -2.961  -5.526  -0.715  0.00  0.00    -0.253 OA
ATOM      5  N   UNL     1      -2.619  -5.346  -2.902  0.00  0.00    -0.292 N 
ATOM      6  H   UNL     1      -1.278  -3.351  -2.121  0.00  0.00    +0.151 HD
ATOM      7  H   UNL     1      -2.205  -4.865  -3.636  0.00  0.00    +0.151 HD
BRANCH   2   8
ATOM      8  C   UNL     1      -1.500  -3.372  -0.010  0.00  0.00    +0.164 C 
BRANCH   8  12
ATOM      9  C   UNL     1      -0.018   1.503   0.010  0.00  0.00    +0.089 C 
ATOM     10  C   UNL     1       0.002  -0.004   0.002  0.00  0.00    +0.135 A 
ATOM     11  C   UNL     1      -1.077  -0.810   0.003  0.00  0.00    +0.072 A 
ATOM     12  C   UNL     1      -0.627  -2.143  -0.007  0.00  0.00    +0.101 A 
ATOM     13  N   UNL     1       0.676  -2.130  -0.013  0.00  0.00    -0.081 NA
ATOM     14  O   UNL     1       1.098  -0.778  -0.013  0.00  0.00    -0.360 OA
ENDBRANCH   8  12
ENDBRANCH   2   8
ENDBRANCH   1   5
BRANCH   1  15
ATOM     15  C   UNL     1      -3.472  -6.790  -4.656  0.00  0.00    +0.123 A 
ATOM     16  C   UNL     1      -2.604  -7.562  -5.342  0.00  0.00    +0.047 A 
ATOM     17  C   UNL     1      -3.000  -7.531  -6.691  0.00  0.00    +0.052 A 
ATOM     18  C   UNL     1      -4.102  -6.731  -6.758  0.00  0.00    +0.160 A 
ATOM     19  O   UNL     1      -4.378  -6.295  -5.513  0.00  0.00    -0.456 OA
BRANCH  18  20
ATOM     20  C   UNL     1      -4.861  -6.407  -7.975  0.00  0.00    +0.144 A 
ATOM     21  N   UNL     1      -4.650  -6.807  -9.212  0.00  0.00    -0.236 NA
ATOM     22  C   UNL     1      -5.434  -6.426 -10.239  0.00  0.00    +0.079 A 
ATOM     23  C   UNL     1      -5.319  -6.780 -11.605  0.00  0.00    +0.029 A 
ATOM     24  C   UNL     1      -6.201  -6.305 -12.524  0.00  0.00    +0.002 A 
ATOM     25  C   UNL     1      -7.242  -5.460 -12.167  0.00  0.00    +0.001 A 
ATOM     26  C   UNL     1      -7.391  -5.090 -10.843  0.00  0.00    +0.017 A 
ATOM     27  C   UNL     1      -6.506  -5.564  -9.906  0.00  0.00    +0.040 A 
ATOM     28  S   UNL     1      -6.309  -5.374  -8.151  0.00  0.00    -0.064 S 
ENDBRANCH  18  20
ENDBRANCH   1  15
TORSDOF 5
