REMARK  Name = ZINC34749116
REMARK  9 active torsions:
REMARK  status: ('A' for Active; 'I' for Inactive)
REMARK    1  A    between atoms: C_1  and  C_2
REMARK    2  A    between atoms: C_2  and  C_3
REMARK    3  A    between atoms: C_4  and  C_37
REMARK    4  A    between atoms: N_10  and  C_26
REMARK    5  A    between atoms: N_16  and  C_19
REMARK    6  A    between atoms: C_19  and  C_20
REMARK    7  A    between atoms: C_26  and  C_27
REMARK    8  A    between atoms: N_29  and  C_30
REMARK    9  A    between atoms: C_35  and  C_36
REMARK                            x       y       z     vdW  Elec       q    Type
REMARK                         _______ _______ _______ _____ _____    ______ ____
ROOT
ATOM      1  C   UNL     1       0.662  -0.610  -1.258  0.00  0.00    -0.023 A 
ATOM      2  C   UNL     1       0.001  -0.847  -2.400  0.00  0.00    -0.007 A 
ATOM      3  S   UNL     1       1.287  -1.356  -3.525  0.00  0.00    -0.073 S 
ATOM      4  C   UNL     1       2.676  -1.237  -2.427  0.00  0.00    +0.117 A 
ATOM      5  C   UNL     1       2.102  -0.798  -1.219  0.00  0.00    +0.076 A 
ATOM      6  C   UNL     1       3.012  -0.607  -0.132  0.00  0.00    +0.264 A 
ATOM      7  O   UNL     1       2.605  -0.233   0.955  0.00  0.00    -0.267 OA
ATOM      8  N   UNL     1       4.322  -0.845  -0.324  0.00  0.00    -0.271 N 
ATOM      9  C   UNL     1       4.795  -1.264  -1.532  0.00  0.00    +0.202 A 
ATOM     10  N   UNL     1       3.980  -1.458  -2.548  0.00  0.00    -0.208 NA
ATOM     11  N   UNL     1       6.139  -1.496  -1.690  0.00  0.00    -0.304 N 
ATOM     12  C   UNL     1       7.061  -0.401  -2.028  0.00  0.00    +0.089 C 
ATOM     13  C   UNL     1       7.913  -0.836  -3.225  0.00  0.00    -0.059 C 
ATOM     14  N   UNL     1       8.573  -2.111  -2.918  0.00  0.00    +0.384 N 
ATOM     15  C   UNL     1       7.567  -3.166  -2.745  0.00  0.00    -0.059 C 
ATOM     16  C   UNL     1       6.699  -2.845  -1.518  0.00  0.00    +0.089 C 
ATOM     17  C   UNL     1      -1.476  -0.714  -2.669  0.00  0.00    +0.052 C 
ATOM     18  H   UNL     1       9.108  -2.015  -2.067  0.00  0.00    -0.081 HD
ENDROOT
BRANCH   1  20
ATOM     19  C   UNL     1      -0.140   1.381  -0.015  0.00  0.00    +0.009 C 
ATOM     20  C   UNL     1      -0.079  -0.148  -0.030  0.00  0.00    +0.033 C 
ENDBRANCH   1  20
BRANCH  14  21
ATOM     21  C   UNL     1       9.474  -2.473  -4.020  0.00  0.00    -0.043 C 
BRANCH  21  22
ATOM     22  C   UNL     1      10.243  -3.716  -3.653  0.00  0.00    -0.064 A 
ATOM     23  C   UNL     1      11.456  -3.610  -2.997  0.00  0.00    +0.002 A 
ATOM     24  C   UNL     1      12.161  -4.750  -2.660  0.00  0.00    +0.000 A 
ATOM     25  C   UNL     1      11.655  -5.996  -2.979  0.00  0.00    +0.000 A 
ATOM     26  C   UNL     1      10.442  -6.101  -3.635  0.00  0.00    +0.000 A 
ATOM     27  C   UNL     1       9.734  -4.962  -3.968  0.00  0.00    +0.002 A 
ENDBRANCH  21  22
ENDBRANCH  14  21
BRANCH   8  28
ATOM     28  C   UNL     1       5.258  -0.651   0.786  0.00  0.00    +0.224 C 
BRANCH  28  29
ATOM     29  C   UNL     1       5.299  -1.897   1.633  0.00  0.00    +0.237 C 
ATOM     30  O   UNL     1       4.613  -2.853   1.338  0.00  0.00    -0.274 OA
ATOM     31  N   UNL     1       6.097  -1.948   2.718  0.00  0.00    -0.284 N 
ATOM     32  H   UNL     1       6.596  -1.163   2.991  0.00  0.00    +0.155 HD
BRANCH  31  33
ATOM     33  C   UNL     1       6.206  -3.136   3.450  0.00  0.00    +0.036 A 
ATOM     34  C   UNL     1       5.106  -3.971   3.589  0.00  0.00    +0.023 A 
ATOM     35  C   UNL     1       5.217  -5.143   4.312  0.00  0.00    +0.002 A 
ATOM     36  C   UNL     1       6.422  -5.483   4.898  0.00  0.00    +0.000 A 
ATOM     37  C   UNL     1       7.519  -4.653   4.762  0.00  0.00    +0.005 A 
ATOM     38  C   UNL     1       7.417  -3.484   4.034  0.00  0.00    -0.029 A 
ATOM     39  C   UNL     1       8.615  -2.583   3.881  0.00  0.00    +0.045 C 
ENDBRANCH  31  33
ENDBRANCH  28  29
ENDBRANCH   8  28
TORSDOF 6
