REMARK  Name = ZINC28618508
REMARK  5 active torsions:
REMARK  status: ('A' for Active; 'I' for Inactive)
REMARK    1  A    between atoms: C_1  and  C_2
REMARK    2  A    between atoms: C_2  and  C_3
REMARK    3  A    between atoms: C_4  and  C_8
REMARK    4  A    between atoms: N_10  and  N_11
REMARK    5  A    between atoms: C_12  and  C_14
REMARK                            x       y       z     vdW  Elec       q    Type
REMARK                         _______ _______ _______ _____ _____    ______ ____
ROOT
ATOM      1  N   UNL     1      -2.138  -0.814   4.920  0.00  0.00    -0.230 N 
ATOM      2  C   UNL     1      -2.988  -1.131   5.916  0.00  0.00    +0.267 C 
ATOM      3  O   UNL     1      -4.104  -1.542   5.656  0.00  0.00    -0.268 OA
ATOM      4  H   UNL     1      -1.248  -0.487   5.128  0.00  0.00    +0.173 HD
ENDROOT
BRANCH   2   5
ATOM      5  C   UNL     1      -2.569  -0.983   7.313  0.00  0.00    +0.076 A 
ATOM      6  C   UNL     1      -3.272  -1.252   8.467  0.00  0.00    +0.024 A 
ATOM      7  C   UNL     1      -2.627  -0.989   9.679  0.00  0.00    -0.036 A 
ATOM      8  C   UNL     1      -1.392  -0.457   9.610  0.00  0.00    -0.006 A 
ATOM      9  S   UNL     1      -1.015  -0.413   7.968  0.00  0.00    -0.088 S 
ATOM     10  C   UNL     1      -0.463   0.102  10.659  0.00  0.00    +0.043 C 
ATOM     11  C   UNL     1      -1.074   0.056  12.060  0.00  0.00    +0.005 C 
ATOM     12  C   UNL     1      -0.961  -1.337  12.657  0.00  0.00    +0.000 C 
ATOM     13  C   UNL     1      -1.175  -2.435  11.636  0.00  0.00    +0.000 C 
ATOM     14  C   UNL     1      -2.688  -2.646  11.520  0.00  0.00    +0.005 C 
ATOM     15  C   UNL     1      -3.326  -1.368  10.977  0.00  0.00    +0.036 C 
ENDBRANCH   2   5
BRANCH   1  18
ATOM     16  C   UNL     1      -1.688  -0.638   2.589  0.00  0.00    +0.270 C 
ATOM     17  O   UNL     1      -0.573  -0.228   2.849  0.00  0.00    -0.268 OA
ATOM     18  N   UNL     1      -2.538  -0.956   3.585  0.00  0.00    -0.230 N 
ATOM     19  H   UNL     1      -3.428  -1.283   3.378  0.00  0.00    +0.173 HD
BRANCH  16  21
ATOM     20  C   UNL     1      -1.412  -0.526   0.013  0.00  0.00    +0.084 A 
ATOM     21  C   UNL     1      -2.109  -0.787   1.187  0.00  0.00    +0.118 A 
ATOM     22  S   UNL     1      -3.659  -1.357   0.509  0.00  0.00    +0.042 S 
ATOM     23  N   UNL     1      -3.292  -1.215  -1.064  0.00  0.00    -0.110 NA
ATOM     24  N   UNL     1      -2.088  -0.765  -1.084  0.00  0.00    -0.145 NA
BRANCH  20  26
ATOM     25  C   UNL     1      -0.019   1.526   0.010  0.00  0.00    +0.010 C 
ATOM     26  C   UNL     1       0.002  -0.004   0.002  0.00  0.00    +0.055 C 
ENDBRANCH  20  26
ENDBRANCH  16  21
ENDBRANCH   1  18
TORSDOF 4
