REMARK  Name = ZINC09336899
REMARK  5 active torsions:
REMARK  status: ('A' for Active; 'I' for Inactive)
REMARK    1  A    between atoms: C_1  and  C_2
REMARK    2  A    between atoms: C_2  and  C_20
REMARK    3  A    between atoms: N_5  and  C_9
REMARK    4  A    between atoms: C_9  and  C_10
REMARK    5  A    between atoms: C_13  and  C_15
REMARK                            x       y       z     vdW  Elec       q    Type
REMARK                         _______ _______ _______ _____ _____    ______ ____
ROOT
ATOM      1  C   UNL     1      -2.557   0.595   4.651  0.00  0.00    +0.047 C 
ATOM      2  C   UNL     1      -3.576   0.664   3.513  0.00  0.00    +0.135 C 
ATOM      3  C   UNL     1      -2.942   0.254   2.198  0.00  0.00    +0.251 C 
ATOM      4  O   UNL     1      -2.454  -0.821   1.924  0.00  0.00    -0.272 OA
ATOM      5  N   UNL     1      -3.032   1.335   1.398  0.00  0.00    -0.218 N 
ATOM      6  C   UNL     1      -3.635   2.357   2.015  0.00  0.00    +0.310 C 
ATOM      7  O   UNL     1      -3.835   3.438   1.495  0.00  0.00    -0.252 OA
ATOM      8  N   UNL     1      -3.996   2.056   3.276  0.00  0.00    -0.281 N 
ATOM      9  H   UNL     1      -4.444   2.642   3.906  0.00  0.00    +0.152 HD
ENDROOT
BRANCH   2  10
ATOM     10  C   UNL     1      -4.769  -0.204   3.818  0.00  0.00    -0.012 A 
ATOM     11  C   UNL     1      -4.767  -1.536   3.446  0.00  0.00    +0.010 A 
ATOM     12  C   UNL     1      -5.859  -2.337   3.725  0.00  0.00    +0.050 A 
ATOM     13  C   UNL     1      -6.959  -1.806   4.378  0.00  0.00    +0.166 A 
ATOM     14  C   UNL     1      -6.962  -0.465   4.753  0.00  0.00    +0.167 A 
ATOM     15  C   UNL     1      -5.862   0.331   4.475  0.00  0.00    +0.055 A 
ATOM     16  O   UNL     1      -8.145  -0.188   5.374  0.00  0.00    -0.453 OA
ATOM     17  C   UNL     1      -9.030  -1.264   5.013  0.00  0.00    +0.466 C 
ATOM     18  O   UNL     1      -8.141  -2.369   4.765  0.00  0.00    -0.453 OA
ENDBRANCH   2  10
BRANCH   5  19
ATOM     19  C   UNL     1      -2.537   1.382   0.020  0.00  0.00    +0.176 C 
BRANCH  19  20
ATOM     20  C   UNL     1      -1.107   1.858   0.017  0.00  0.00    +0.098 A 
ATOM     21  C   UNL     1      -0.013   1.076   0.008  0.00  0.00    +0.222 A 
ATOM     22  O   UNL     1       1.063   1.890   0.002  0.00  0.00    -0.443 OA
ATOM     23  C   UNL     1       0.616   3.159   0.013  0.00  0.00    +0.234 A 
ATOM     24  N   UNL     1      -0.699   3.137   0.026  0.00  0.00    -0.212 NA
BRANCH  23  25
ATOM     25  C   UNL     1       1.455   4.366   0.011  0.00  0.00    +0.074 A 
ATOM     26  C   UNL     1       2.834   4.469  -0.002  0.00  0.00    +0.021 A 
ATOM     27  C   UNL     1       3.396   5.724  -0.001  0.00  0.00    +0.008 A 
ATOM     28  C   UNL     1       2.587   6.815   0.013  0.00  0.00    +0.046 A 
ATOM     29  S   UNL     1       0.959   6.081   0.017  0.00  0.00    -0.092 S 
ENDBRANCH  23  25
ENDBRANCH  19  20
ENDBRANCH   5  19
TORSDOF 4
