REMARK  Name = ZINC39426549
REMARK  9 active torsions:
REMARK  status: ('A' for Active; 'I' for Inactive)
REMARK    1  A    between atoms: C_1  and  C_2
REMARK    2  A    between atoms: C_9  and  N_15
REMARK    3  A    between atoms: C_10  and  C_11
REMARK    4  A    between atoms: C_11  and  O_13
REMARK    5  A    between atoms: O_13  and  C_14
REMARK    6  A    between atoms: C_16  and  C_18
REMARK    7  A    between atoms: C_18  and  C_20
REMARK    8  A    between atoms: C_18  and  S_21
REMARK    9  A    between atoms: S_21  and  C_22
REMARK                            x       y       z     vdW  Elec       q    Type
REMARK                         _______ _______ _______ _____ _____    ______ ____
ROOT
ATOM      1  N   UNL     1       0.698  -5.847   2.435  0.00  0.00    -0.278 N 
ATOM      2  C   UNL     1       1.679  -6.094   3.325  0.00  0.00    +0.231 C 
ATOM      3  O   UNL     1       2.384  -5.189   3.717  0.00  0.00    -0.274 OA
ATOM      4  H   UNL     1       0.134  -6.571   2.121  0.00  0.00    +0.155 HD
ENDROOT
BRANCH   1  12
ATOM      5  C   UNL     1      -0.019   1.526   0.010  0.00  0.00    +0.008 C 
ATOM      6  C   UNL     1       0.002  -0.004   0.002  0.00  0.00    -0.009 C 
ATOM      7  C   UNL     1      -1.434  -0.537   0.019  0.00  0.00    +0.008 C 
ATOM      8  C   UNL     1      -1.432  -2.045  -0.237  0.00  0.00    +0.037 C 
ATOM      9  C   UNL     1      -0.464  -2.704   0.735  0.00  0.00    -0.021 A 
ATOM     10  C   UNL     1       0.485  -1.986   1.374  0.00  0.00    -0.004 A 
ATOM     11  S   UNL     1       1.344  -3.167   2.373  0.00  0.00    -0.077 S 
ATOM     12  C   UNL     1       0.494  -4.558   1.968  0.00  0.00    +0.086 A 
ATOM     13  C   UNL     1      -0.459  -4.120   1.061  0.00  0.00    +0.091 A 
ATOM     14  C   UNL     1       0.739  -0.515   1.248  0.00  0.00    +0.046 C 
BRANCH  13  15
ATOM     15  C   UNL     1      -1.419  -5.045   0.456  0.00  0.00    +0.342 C 
ATOM     16  O   UNL     1      -1.147  -5.610  -0.586  0.00  0.00    -0.245 OA
BRANCH  15  17
ATOM     17  O   UNL     1      -2.607  -5.272   1.056  0.00  0.00    -0.464 OA
ATOM     18  C   UNL     1      -3.495  -6.186   0.410  0.00  0.00    +0.280 C 
ENDBRANCH  15  17
ENDBRANCH  13  15
ENDBRANCH   1  12
BRANCH   2  19
ATOM     19  C   UNL     1       1.901  -7.496   3.832  0.00  0.00    +0.136 C 
ATOM     20  C   UNL     1       2.797  -8.257   2.853  0.00  0.00    +0.029 C 
BRANCH  19  21
ATOM     21  S   UNL     1       2.700  -7.431   5.459  0.00  0.00    -0.084 S 
BRANCH  21  22
ATOM     22  C   UNL     1       2.754  -9.115   5.975  0.00  0.00    +0.161 A 
ATOM     23  N   UNL     1       2.329 -10.195   5.348  0.00  0.00    -0.133 NA
ATOM     24  N   UNL     1       2.472 -11.429   5.939  0.00  0.00    -0.125 NA
ATOM     25  C   UNL     1       3.032 -11.527   7.129  0.00  0.00    +0.180 A 
ATOM     26  S   UNL     1       3.406  -9.816   7.482  0.00  0.00    -0.025 S 
ATOM     27  N   UNL     1       3.272 -12.659   7.899  0.00  0.00    -0.336 N 
ATOM     28  H   UNL     1       3.014 -13.534   7.570  0.00  0.00    +0.144 HD
ATOM     29  H   UNL     1       3.698 -12.573   8.766  0.00  0.00    +0.144 HD
ENDBRANCH  21  22
ENDBRANCH  19  21
ENDBRANCH   2  19
TORSDOF 6
