REMARK  Name = ZINC29467211
REMARK  6 active torsions:
REMARK  status: ('A' for Active; 'I' for Inactive)
REMARK    1  A    between atoms: C_1  and  C_2
REMARK    2  A    between atoms: C_15  and  C_17
REMARK    3  A    between atoms: C_17  and  S_18
REMARK    4  A    between atoms: S_18  and  C_19
REMARK    5  A    between atoms: N_20  and  C_21
REMARK    6  A    between atoms: C_21  and  C_22
REMARK                            x       y       z     vdW  Elec       q    Type
REMARK                         _______ _______ _______ _____ _____    ______ ____
ROOT
ATOM      1  C   UNL     1       7.476   0.899  -7.647  0.00  0.00    +0.029 C 
ATOM      2  C   UNL     1       5.961   1.102  -7.578  0.00  0.00    +0.087 C 
ATOM      3  C   UNL     1       5.261  -0.033  -8.328  0.00  0.00    +0.118 C 
ATOM      4  C   UNL     1       3.804  -0.083  -7.950  0.00  0.00    +0.219 C 
ATOM      5  O   UNL     1       2.967   0.329  -8.726  0.00  0.00    -0.275 OA
ATOM      6  N   UNL     1       3.422  -0.583  -6.754  0.00  0.00    -0.284 N 
ATOM      7  C   UNL     1       4.377  -0.982  -5.811  0.00  0.00    +0.055 A 
ATOM      8  C   UNL     1       4.286  -2.212  -5.183  0.00  0.00    +0.025 A 
ATOM      9  C   UNL     1       5.242  -2.566  -4.226  0.00  0.00    +0.002 A 
ATOM     10  C   UNL     1       6.267  -1.695  -3.906  0.00  0.00    +0.002 A 
ATOM     11  C   UNL     1       6.366  -0.471  -4.542  0.00  0.00    +0.025 A 
ATOM     12  C   UNL     1       5.432  -0.115  -5.501  0.00  0.00    +0.058 A 
ATOM     13  N   UNL     1       5.535   1.108  -6.178  0.00  0.00    -0.266 N 
ATOM     14  C   UNL     1       5.252   2.267  -5.550  0.00  0.00    +0.230 C 
ATOM     15  O   UNL     1       5.350   3.319  -6.146  0.00  0.00    -0.274 OA
ATOM     16  H   UNL     1       2.352  -0.679  -6.514  0.00  0.00    +0.155 HD
ENDROOT
BRANCH  14  17
ATOM     17  C   UNL     1       4.815   2.255  -4.108  0.00  0.00    +0.173 C 
BRANCH  17  18
ATOM     18  S   UNL     1       4.513   3.952  -3.556  0.00  0.00    -0.084 S 
BRANCH  18  19
ATOM     19  C   UNL     1       4.029   3.650  -1.888  0.00  0.00    +0.126 C 
ATOM     20  N   UNL     1       3.988   2.429  -1.433  0.00  0.00    -0.364 N 
ATOM     21  N   UNL     1       3.697   4.702  -1.067  0.00  0.00    -0.339 N 
ATOM     22  H   UNL     1       3.395   4.514  -0.026  0.00  0.00    +0.144 HD
ATOM     23  H   UNL     1       3.732   5.732  -1.451  0.00  0.00    +0.144 HD
ATOM     24  H   UNL     1       4.352   1.597  -2.054  0.00  0.00    +0.162 HD
BRANCH  20  25
ATOM     25  C   UNL     1       3.456   2.164  -0.093  0.00  0.00    +0.150 C 
BRANCH  25  26
ATOM     26  C   UNL     1       2.224   1.303  -0.203  0.00  0.00    -0.028 A 
ATOM     27  C   UNL     1       0.979   1.890  -0.328  0.00  0.00    +0.005 A 
ATOM     28  C   UNL     1      -0.151   1.100  -0.429  0.00  0.00    +0.000 A 
ATOM     29  C   UNL     1      -0.036  -0.277  -0.404  0.00  0.00    +0.000 A 
ATOM     30  C   UNL     1       1.209  -0.864  -0.278  0.00  0.00    +0.000 A 
ATOM     31  C   UNL     1       2.339  -0.074  -0.177  0.00  0.00    +0.005 A 
ENDBRANCH  25  26
ENDBRANCH  20  25
ENDBRANCH  18  19
ENDBRANCH  17  18
ENDBRANCH  14  17
TORSDOF 5
