REMARK  Name = ZINC62916338
REMARK  8 active torsions:
REMARK  status: ('A' for Active; 'I' for Inactive)
REMARK    1  A    between atoms: C_1  and  C_2
REMARK    2  A    between atoms: C_2  and  C_16
REMARK    3  A    between atoms: C_7  and  C_9
REMARK    4  A    between atoms: C_9  and  C_11
REMARK    5  A    between atoms: C_9  and  N_15
REMARK    6  A    between atoms: C_11  and  C_12
REMARK    7  A    between atoms: C_11  and  C_13
REMARK    8  A    between atoms: C_11  and  C_14
REMARK                            x       y       z     vdW  Elec       q    Type
REMARK                         _______ _______ _______ _____ _____    ______ ____
ROOT
ATOM      1  C   UNL     1       0.225   2.490   0.952  0.00  0.00    +0.024 C 
ATOM      2  C   UNL     1      -0.065   1.055   0.507  0.00  0.00    +0.086 C 
ATOM      3  C   UNL     1      -1.565   0.712   0.704  0.00  0.00    +0.038 C 
ATOM      4  C   UNL     1      -1.601   0.324   2.203  0.00  0.00    +0.109 C 
ATOM      5  N   UNL     1      -0.332  -0.388   2.439  0.00  0.00    -0.302 N 
ATOM      6  C   UNL     1       0.645   0.043   1.430  0.00  0.00    +0.125 C 
ATOM      7  C   UNL     1      -0.106  -1.286   3.419  0.00  0.00    +0.202 C 
ATOM      8  O   UNL     1       0.949  -1.883   3.463  0.00  0.00    -0.277 OA
ENDROOT
BRANCH   2   9
ATOM      9  C   UNL     1       0.349   0.850  -0.928  0.00  0.00    +0.363 C 
ATOM     10  O   UNL     1       0.851   1.768  -1.554  0.00  0.00    -0.246 OA
ATOM     11  O   UNL     1       0.181  -0.233  -1.462  0.00  0.00    -0.246 OA
ENDBRANCH   2   9
BRANCH   7  12
ATOM     12  C   UNL     1      -1.164  -1.548   4.460  0.00  0.00    +0.018 C 
BRANCH  12  13
ATOM     13  C   UNL     1      -0.931  -0.634   5.665  0.00  0.00    -0.042 C 
ATOM     14  C   UNL     1      -0.999   0.828   5.217  0.00  0.00    +0.009 C 
ATOM     15  C   UNL     1      -2.009  -0.895   6.719  0.00  0.00    +0.009 C 
ATOM     16  C   UNL     1       0.448  -0.920   6.263  0.00  0.00    +0.009 C 
ENDBRANCH  12  13
BRANCH  12  17
ATOM     17  N   UNL     1      -1.093  -2.951   4.889  0.00  0.00    +0.386 N 
ATOM     18  H   UNL     1      -0.182  -3.137   5.280  0.00  0.00    -0.089 HD
ATOM     19  H   UNL     1      -1.801  -3.126   5.585  0.00  0.00    -0.089 HD
ATOM     20  H   UNL     1      -1.246  -3.553   4.094  0.00  0.00    -0.089 HD
ENDBRANCH  12  17
ENDBRANCH   7  12
TORSDOF 4
