REMARK  Name = ZINC52676196
REMARK  11 active torsions:
REMARK  status: ('A' for Active; 'I' for Inactive)
REMARK    1  A    between atoms: C_1  and  C_2
REMARK    2  A    between atoms: C_4  and  C_28
REMARK    3  A    between atoms: N_5  and  C_7
REMARK    4  A    between atoms: C_10  and  N_14
REMARK    5  A    between atoms: C_15  and  C_17
REMARK    6  A    between atoms: N_19  and  C_20
REMARK    7  A    between atoms: C_20  and  C_21
REMARK    8  A    between atoms: C_21  and  C_22
REMARK    9  A    between atoms: N_24  and  C_25
REMARK   10  A    between atoms: C_25  and  C_26
REMARK   11  A    between atoms: C_25  and  C_27
REMARK                            x       y       z     vdW  Elec       q    Type
REMARK                         _______ _______ _______ _____ _____    ______ ____
ROOT
ATOM      1  N   UNL     1       0.321  -6.673   3.837  0.00  0.00    -0.278 N 
ATOM      2  C   UNL     1       0.149  -6.569   5.170  0.00  0.00    +0.303 C 
ATOM      3  O   UNL     1       0.030  -5.475   5.683  0.00  0.00    -0.265 OA
ATOM      4  H   UNL     1       0.491  -7.540   3.437  0.00  0.00    +0.155 HD
ENDROOT
BRANCH   1   8
ATOM      5  C   UNL     1       0.125  -3.272   1.435  0.00  0.00    +0.101 A 
ATOM      6  C   UNL     1       0.983  -4.311   1.100  0.00  0.00    +0.032 A 
ATOM      7  C   UNL     1       1.048  -5.437   1.896  0.00  0.00    +0.025 A 
ATOM      8  C   UNL     1       0.255  -5.533   3.033  0.00  0.00    +0.037 A 
ATOM      9  C   UNL     1      -0.604  -4.494   3.369  0.00  0.00    +0.063 A 
ATOM     10  C   UNL     1      -0.665  -3.364   2.576  0.00  0.00    +0.150 A 
ATOM     11  F   UNL     1      -1.496  -2.351   2.905  0.00  0.00    -0.203 F 
BRANCH   5  16
ATOM     12  C   UNL     1       0.052   1.491   0.049  0.00  0.00    +0.067 C 
ATOM     13  C   UNL     1       0.029  -0.016   0.026  0.00  0.00    +0.061 A 
ATOM     14  C   UNL     1      -0.097  -0.816  -1.114  0.00  0.00    +0.047 A 
ATOM     15  C   UNL     1      -0.075  -2.111  -0.718  0.00  0.00    +0.042 A 
ATOM     16  N   UNL     1       0.060  -2.128   0.627  0.00  0.00    -0.234 N 
ATOM     17  N   UNL     1       0.129  -0.800   1.069  0.00  0.00    -0.171 NA
ATOM     18  C   UNL     1      -0.182  -3.316  -1.616  0.00  0.00    +0.066 C 
ENDBRANCH   5  16
ENDBRANCH   1   8
BRANCH   2  19
ATOM     19  C   UNL     1       0.105  -7.799   6.016  0.00  0.00    +0.299 C 
ATOM     20  O   UNL     1       0.225  -8.893   5.503  0.00  0.00    -0.265 OA
ATOM     21  N   UNL     1      -0.066  -7.694   7.348  0.00  0.00    -0.307 N 
ATOM     22  H   UNL     1      -0.162  -6.821   7.758  0.00  0.00    +0.149 HD
BRANCH  21  23
ATOM     23  C   UNL     1      -0.109  -8.901   8.178  0.00  0.00    +0.114 C 
BRANCH  23  24
ATOM     24  C   UNL     1      -0.312  -8.506   9.642  0.00  0.00    +0.114 C 
BRANCH  24  25
ATOM     25  C   UNL     1      -0.357  -9.747  10.496  0.00  0.00    +0.215 C 
ATOM     26  O   UNL     1      -0.238 -10.840   9.984  0.00  0.00    -0.276 OA
ATOM     27  N   UNL     1      -0.529  -9.643  11.829  0.00  0.00    -0.313 N 
ATOM     28  H   UNL     1      -0.624  -8.769  12.238  0.00  0.00    +0.149 HD
BRANCH  27  29
ATOM     29  C   UNL     1      -0.572 -10.850  12.658  0.00  0.00    +0.067 C 
ATOM     30  C   UNL     1      -0.153 -10.501  14.088  0.00  0.00    +0.027 C 
ATOM     31  C   UNL     1      -1.994 -11.412  12.667  0.00  0.00    +0.027 C 
ENDBRANCH  27  29
ENDBRANCH  24  25
ENDBRANCH  23  24
ENDBRANCH  21  23
ENDBRANCH   2  19
TORSDOF 7
