REMARK  Name = ZINC64185984
REMARK  6 active torsions:
REMARK  status: ('A' for Active; 'I' for Inactive)
REMARK    1  A    between atoms: C_1  and  C_2
REMARK    2  A    between atoms: C_6  and  C_8
REMARK    3  A    between atoms: C_9  and  C_14
REMARK    4  A    between atoms: N_15  and  N_16
REMARK    5  A    between atoms: C_17  and  C_19
REMARK    6  A    between atoms: C_19  and  C_20
REMARK                            x       y       z     vdW  Elec       q    Type
REMARK                         _______ _______ _______ _____ _____    ______ ____
ROOT
ATOM      1  N   UNL     1       4.747  -1.355  -2.425  0.00  0.00    -0.207 N 
ATOM      2  C   UNL     1       3.936  -1.185  -3.488  0.00  0.00    +0.233 C 
ATOM      3  O   UNL     1       2.779  -0.860  -3.322  0.00  0.00    -0.274 OA
ATOM      4  H   UNL     1       5.672  -1.615  -2.557  0.00  0.00    +0.177 HD
ENDROOT
BRANCH   1   6
ATOM      5  C   UNL     1       5.036  -1.319  -0.104  0.00  0.00    +0.142 C 
ATOM      6  N   UNL     1       4.254  -1.156  -1.129  0.00  0.00    -0.188 NA
BRANCH   5   8
ATOM      7  C   UNL     1       3.195  -0.844   1.609  0.00  0.00    +0.108 A 
ATOM      8  C   UNL     1       4.518  -1.111   1.258  0.00  0.00    +0.043 A 
ATOM      9  C   UNL     1       5.266  -1.143   2.452  0.00  0.00    +0.144 A 
ATOM     10  N   UNL     1       4.460  -0.914   3.453  0.00  0.00    -0.181 NA
ATOM     11  N   UNL     1       3.163  -0.717   2.966  0.00  0.00    -0.273 N 
ATOM     12  H   UNL     1       2.377  -0.525   3.501  0.00  0.00    +0.189 HD
BRANCH   7  17
ATOM     13  C   UNL     1      -0.588  -2.281   0.166  0.00  0.00    +0.052 C 
ATOM     14  C   UNL     1       0.379  -1.439  -0.669  0.00  0.00    +0.174 C 
ATOM     15  C   UNL     1       0.181   0.070  -0.389  0.00  0.00    +0.075 C 
ATOM     16  C   UNL     1       1.218   0.325   0.691  0.00  0.00    +0.024 C 
ATOM     17  C   UNL     1       2.052  -0.718   0.689  0.00  0.00    +0.142 C 
ATOM     18  O   UNL     1       1.740  -1.648  -0.247  0.00  0.00    -0.487 OA
ENDBRANCH   7  17
ENDBRANCH   5   8
ENDBRANCH   1   6
BRANCH   2  19
ATOM     19  C   UNL     1       4.466  -1.399  -4.882  0.00  0.00    +0.104 C 
BRANCH  19  20
ATOM     20  C   UNL     1       3.350  -1.143  -5.897  0.00  0.00    -0.020 C 
ATOM     21  C   UNL     1       2.853   0.297  -5.756  0.00  0.00    +0.011 C 
ATOM     22  C   UNL     1       1.737   0.553  -6.771  0.00  0.00    -0.010 C 
ATOM     23  C   UNL     1       2.275   0.336  -8.186  0.00  0.00    +0.007 C 
ATOM     24  C   UNL     1       2.772  -1.104  -8.327  0.00  0.00    -0.010 C 
ATOM     25  C   UNL     1       3.889  -1.360  -7.313  0.00  0.00    +0.011 C 
ATOM     26  C   UNL     1       1.616  -2.071  -8.068  0.00  0.00    +0.007 C 
ATOM     27  C   UNL     1       1.077  -1.854  -6.652  0.00  0.00    -0.010 C 
ATOM     28  C   UNL     1       0.580  -0.414  -6.511  0.00  0.00    +0.007 C 
ATOM     29  C   UNL     1       2.193  -2.110  -5.637  0.00  0.00    +0.011 C 
ENDBRANCH  19  20
ENDBRANCH   2  19
TORSDOF 5
