REMARK  Name = ZINC27533877
REMARK  4 active torsions:
REMARK  status: ('A' for Active; 'I' for Inactive)
REMARK    1  A    between atoms: C_9  and  C_11
REMARK    2  A    between atoms: N_15  and  N_19
REMARK    3  A    between atoms: C_20  and  C_22
REMARK    4  A    between atoms: C_25  and  O_28
REMARK                            x       y       z     vdW  Elec       q    Type
REMARK                         _______ _______ _______ _____ _____    ______ ____
ROOT
ATOM      1  C   UNL     1      -0.013   1.076   0.008  0.00  0.00    +0.066 C 
ATOM      2  C   UNL     1      -1.198   1.739   0.017  0.00  0.00    +0.082 C 
ATOM      3  C   UNL     1      -1.465   3.197   0.026  0.00  0.00    +0.275 C 
ATOM      4  O   UNL     1      -0.564   4.013   0.027  0.00  0.00    -0.267 OA
ATOM      5  N   UNL     1      -2.736   3.563   0.034  0.00  0.00    -0.169 N 
ATOM      6  C   UNL     1      -3.732   2.654   0.034  0.00  0.00    +0.138 C 
ATOM      7  S   UNL     1      -5.422   2.930   0.043  0.00  0.00    -0.026 S 
ATOM      8  S   UNL     1      -2.865   1.093   0.014  0.00  0.00    -0.059 S 
ENDROOT
BRANCH   1  17
ATOM      9  C   UNL     1       5.415   3.606  -0.031  0.00  0.00    +0.002 A 
ATOM     10  C   UNL     1       4.666   4.776  -0.017  0.00  0.00    +0.002 A 
ATOM     11  C   UNL     1       3.302   4.729  -0.004  0.00  0.00    +0.030 A 
ATOM     12  C   UNL     1       2.645   3.492  -0.004  0.00  0.00    +0.089 A 
ATOM     13  C   UNL     1       3.406   2.307  -0.018  0.00  0.00    +0.066 A 
ATOM     14  C   UNL     1       4.792   2.376  -0.032  0.00  0.00    +0.028 A 
ATOM     15  N   UNL     1       2.500   1.266  -0.009  0.00  0.00    -0.338 N 
ATOM     16  H   UNL     1       2.857   0.226  -0.011  0.00  0.00    +0.167 HD
ATOM     17  C   UNL     1       1.246   1.825   0.000  0.00  0.00    +0.133 A 
ATOM     18  N   UNL     1       1.347   3.136   0.006  0.00  0.00    -0.228 NA
ENDBRANCH   1  17
BRANCH   5  19
ATOM     19  N   UNL     1      -3.055   4.927   0.043  0.00  0.00    -0.222 N 
ATOM     20  C   UNL     1      -3.508   5.520  -1.079  0.00  0.00    +0.261 C 
ATOM     21  O   UNL     1      -3.640   4.871  -2.099  0.00  0.00    -0.269 OA
ATOM     22  H   UNL     1      -2.935   5.514   0.966  0.00  0.00    +0.174 HD
BRANCH  20  23
ATOM     23  C   UNL     1      -3.844   6.957  -1.071  0.00  0.00    +0.038 A 
ATOM     24  C   UNL     1      -3.698   7.704   0.102  0.00  0.00    +0.016 A 
ATOM     25  C   UNL     1      -4.007   9.046   0.105  0.00  0.00    +0.046 A 
ATOM     26  C   UNL     1      -4.475   9.655  -1.054  0.00  0.00    +0.117 A 
ATOM     27  C   UNL     1      -4.626   8.915  -2.220  0.00  0.00    +0.046 A 
ATOM     28  C   UNL     1      -4.313   7.574  -2.233  0.00  0.00    +0.016 A 
BRANCH  26  29
ATOM     29  O   UNL     1      -4.784  10.977  -1.045  0.00  0.00    -0.507 OA
ATOM     30  H   UNL     1      -5.154  11.461  -1.961  0.00  0.00    +0.292 HD
ENDBRANCH  26  29
ENDBRANCH  20  23
ENDBRANCH   5  19
TORSDOF 4
