REMARK  Name = ZINC13500521
REMARK  13 active torsions:
REMARK  status: ('A' for Active; 'I' for Inactive)
REMARK    1  A    between atoms: C_1  and  C_2
REMARK    2  A    between atoms: C_6  and  C_8
REMARK    3  A    between atoms: C_8  and  C_9
REMARK    4  A    between atoms: C_9  and  N_10
REMARK    5  A    between atoms: N_10  and  C_11
REMARK    6  A    between atoms: N_10  and  C_25
REMARK    7  A    between atoms: C_11  and  C_12
REMARK    8  A    between atoms: C_18  and  C_24
REMARK    9  A    between atoms: C_25  and  C_27
REMARK   10  A    between atoms: C_25  and  C_37
REMARK   11  A    between atoms: N_31  and  C_32
REMARK   12  A    between atoms: C_37  and  C_38
REMARK   13  A    between atoms: C_37  and  C_39
REMARK                            x       y       z     vdW  Elec       q    Type
REMARK                         _______ _______ _______ _____ _____    ______ ____
ROOT
ATOM      1  N   UNL     1       0.075   0.119  -0.025  0.00  0.00    -0.288 NA
ENDROOT
BRANCH   1   2
ATOM      2  C   UNL     1       0.557  -0.537   1.197  0.00  0.00    +0.090 C 
BRANCH   2   3
ATOM      3  C   UNL     1      -0.089  -1.919   1.323  0.00  0.00    +0.050 C 
BRANCH   3   9
ATOM      4  C   UNL     1      -1.065  -2.844   6.144  0.00  0.00    +0.044 C 
ATOM      5  C   UNL     1      -0.162  -2.982   4.945  0.00  0.00    -0.050 A 
ATOM      6  C   UNL     1       1.027  -3.679   5.052  0.00  0.00    +0.003 A 
ATOM      7  C   UNL     1       1.855  -3.806   3.953  0.00  0.00    +0.001 A 
ATOM      8  C   UNL     1       1.492  -3.240   2.745  0.00  0.00    +0.004 A 
ATOM      9  C   UNL     1       0.305  -2.539   2.639  0.00  0.00    -0.046 A 
ATOM     10  C   UNL     1      -0.523  -2.413   3.739  0.00  0.00    +0.007 A 
ENDBRANCH   3   9
ENDBRANCH   2   3
ENDBRANCH   1   2
BRANCH   1  11
ATOM     11  C   UNL     1       0.668  -0.493  -1.221  0.00  0.00    +0.125 C 
BRANCH  11  12
ATOM     12  C   UNL     1      -0.186  -0.177  -2.422  0.00  0.00    +0.031 A 
ATOM     13  C   UNL     1       0.125   0.880  -3.212  0.00  0.00    +0.020 A 
ATOM     14  C   UNL     1      -0.721   1.157  -4.375  0.00  0.00    -0.001 A 
ATOM     15  C   UNL     1      -0.449   2.231  -5.229  0.00  0.00    +0.010 A 
ATOM     16  C   UNL     1      -1.260   2.465  -6.302  0.00  0.00    +0.001 A 
ATOM     17  C   UNL     1      -2.354   1.648  -6.552  0.00  0.00    +0.005 A 
ATOM     18  C   UNL     1      -2.643   0.585  -5.724  0.00  0.00    -0.026 A 
ATOM     19  C   UNL     1      -1.830   0.327  -4.625  0.00  0.00    +0.052 A 
ATOM     20  N   UNL     1      -2.094  -0.730  -3.780  0.00  0.00    -0.322 N 
ATOM     21  H   UNL     1      -2.959  -1.383  -3.970  0.00  0.00    +0.169 HD
ATOM     22  C   UNL     1      -1.308  -0.980  -2.718  0.00  0.00    +0.254 A 
ATOM     23  O   UNL     1      -1.572  -1.923  -1.992  0.00  0.00    -0.268 OA
ATOM     24  C   UNL     1      -3.834  -0.293  -6.007  0.00  0.00    +0.046 C 
ENDBRANCH  11  12
ENDBRANCH   1  11
BRANCH   1  25
ATOM     25  C   UNL     1       0.340   1.564   0.014  0.00  0.00    +0.129 C 
BRANCH  25  26
ATOM     26  C   UNL     1       1.804   1.798   0.288  0.00  0.00    +0.169 A 
ATOM     27  N   UNL     1       2.538   1.191   1.188  0.00  0.00    -0.112 NA
ATOM     28  N   UNL     1       3.733   1.666   1.113  0.00  0.00    -0.023 NA
ATOM     29  N   UNL     1       3.780   2.561   0.188  0.00  0.00    -0.044 NA
ATOM     30  N   UNL     1       2.611   2.667  -0.347  0.00  0.00    -0.225 N 
BRANCH  30  31
ATOM     31  C   UNL     1       2.233   3.568  -1.440  0.00  0.00    +0.111 C 
ATOM     32  C   UNL     1       3.110   3.292  -2.679  0.00  0.00    +0.027 C 
ATOM     33  C   UNL     1       3.353   4.696  -3.290  0.00  0.00    +0.002 C 
ATOM     34  C   UNL     1       3.518   5.591  -2.037  0.00  0.00    +0.002 C 
ATOM     35  C   UNL     1       2.492   5.029  -1.032  0.00  0.00    +0.027 C 
ENDBRANCH  30  31
ENDBRANCH  25  26
BRANCH  25  36
ATOM     36  C   UNL     1      -0.496   2.207   1.122  0.00  0.00    +0.008 C 
ATOM     37  C   UNL     1      -0.307   3.724   1.088  0.00  0.00    +0.009 C 
ATOM     38  C   UNL     1      -1.973   1.872   0.906  0.00  0.00    +0.009 C 
ENDBRANCH  25  36
ENDBRANCH   1  25
TORSDOF 9
