REMARK  Name = ZINC39440306
REMARK  11 active torsions:
REMARK  status: ('A' for Active; 'I' for Inactive)
REMARK    1  A    between atoms: C_1  and  C_2
REMARK    2  A    between atoms: C_7  and  C_9
REMARK    3  A    between atoms: C_7  and  C_10
REMARK    4  A    between atoms: N_13  and  C_17
REMARK    5  A    between atoms: C_17  and  C_18
REMARK    6  A    between atoms: N_20  and  C_21
REMARK    7  A    between atoms: C_21  and  C_22
REMARK    8  A    between atoms: C_22  and  C_24
REMARK    9  A    between atoms: C_22  and  N_32
REMARK   10  A    between atoms: C_27  and  O_30
REMARK   11  A    between atoms: O_30  and  C_31
REMARK                            x       y       z     vdW  Elec       q    Type
REMARK                         _______ _______ _______ _____ _____    ______ ____
ROOT
ATOM      1  C   UNL     1      -1.405  -5.458  -2.801  0.00  0.00    +0.231 C 
ATOM      2  O   UNL     1      -1.169  -5.766  -1.652  0.00  0.00    -0.274 OA
ATOM      3  N   UNL     1      -1.252  -6.365  -3.787  0.00  0.00    -0.315 N 
ATOM      4  H   UNL     1      -1.441  -6.119  -4.706  0.00  0.00    +0.149 HD
ENDROOT
BRANCH   1   5
ATOM      5  C   UNL     1      -1.869  -4.062  -3.127  0.00  0.00    +0.213 C 
BRANCH   5  17
ATOM      6  C   UNL     1       0.243   1.422   0.174  0.00  0.00    +0.007 C 
ATOM      7  C   UNL     1       0.148  -0.107   0.152  0.00  0.00    -0.011 C 
ATOM      8  C   UNL     1      -1.319  -0.520   0.019  0.00  0.00    +0.038 C 
ATOM      9  C   UNL     1      -1.420  -2.038  -0.053  0.00  0.00    +0.113 C 
ATOM     10  C   UNL     1      -0.733  -2.730   1.107  0.00  0.00    +0.041 C 
ATOM     11  C   UNL     1       0.639  -2.190   1.472  0.00  0.00    -0.032 C 
ATOM     12  C   UNL     1       0.693  -0.667   1.464  0.00  0.00    +0.009 C 
ATOM     13  C   UNL     1       0.974  -2.665   2.903  0.00  0.00    +0.011 C 
ATOM     14  C   UNL     1       1.712  -2.759   0.539  0.00  0.00    +0.011 C 
ATOM     15  C   UNL     1      -0.936  -2.546  -1.388  0.00  0.00    +0.247 C 
ATOM     16  O   UNL     1       0.130  -2.339  -1.929  0.00  0.00    -0.273 OA
ATOM     17  N   UNL     1      -1.954  -3.276  -1.894  0.00  0.00    -0.215 N 
ATOM     18  C   UNL     1      -3.047  -3.188  -1.129  0.00  0.00    +0.310 C 
ATOM     19  O   UNL     1      -4.097  -3.746  -1.383  0.00  0.00    -0.252 OA
ATOM     20  N   UNL     1      -2.851  -2.418  -0.045  0.00  0.00    -0.285 N 
ATOM     21  H   UNL     1      -3.505  -2.155   0.618  0.00  0.00    +0.151 HD
ENDBRANCH   5  17
ENDBRANCH   1   5
BRANCH   3  22
ATOM     22  C   UNL     1      -0.801  -7.722  -3.470  0.00  0.00    +0.093 C 
BRANCH  22  23
ATOM     23  C   UNL     1      -0.821  -8.576  -4.740  0.00  0.00    -0.020 C 
BRANCH  23  24
ATOM     24  N   UNL     1      -0.461  -9.960  -4.405  0.00  0.00    +0.385 N 
ATOM     25  C   UNL     1      -0.426 -10.765  -5.632  0.00  0.00    -0.078 C 
ATOM     26  C   UNL     1       0.028 -12.188  -5.300  0.00  0.00    -0.019 C 
ATOM     27  C   UNL     1      -0.956 -12.812  -4.305  0.00  0.00    -0.004 C 
ATOM     28  C   UNL     1      -1.040 -11.925  -3.060  0.00  0.00    -0.019 C 
ATOM     29  C   UNL     1      -1.454 -10.511  -3.475  0.00  0.00    -0.078 C 
ATOM     30  H   UNL     1       0.449  -9.973  -3.970  0.00  0.00    -0.081 HD
ENDBRANCH  23  24
BRANCH  23  31
ATOM     31  C   UNL     1       0.170  -8.024  -5.732  0.00  0.00    -0.059 A 
ATOM     32  C   UNL     1       1.514  -8.320  -5.602  0.00  0.00    +0.005 A 
ATOM     33  C   UNL     1       2.425  -7.816  -6.509  0.00  0.00    +0.046 A 
ATOM     34  C   UNL     1       1.990  -7.011  -7.553  0.00  0.00    +0.120 A 
ATOM     35  C   UNL     1       0.641  -6.716  -7.681  0.00  0.00    +0.046 A 
ATOM     36  C   UNL     1      -0.267  -7.227  -6.774  0.00  0.00    +0.005 A 
BRANCH  34  37
ATOM     37  O   UNL     1       2.884  -6.513  -8.447  0.00  0.00    -0.495 OA
ATOM     38  C   UNL     1       2.365  -5.693  -9.495  0.00  0.00    +0.277 C 
ENDBRANCH  34  37
ENDBRANCH  23  31
ENDBRANCH  22  23
ENDBRANCH   3  22
TORSDOF 7
