REMARK  Name = ZINC04797692
REMARK  7 active torsions:
REMARK  status: ('A' for Active; 'I' for Inactive)
REMARK    1  A    between atoms: C_1  and  C_2
REMARK    2  A    between atoms: C_4  and  N_23
REMARK    3  A    between atoms: C_7  and  N_8
REMARK    4  A    between atoms: N_8  and  C_9
REMARK    5  A    between atoms: C_9  and  C_11
REMARK    6  A    between atoms: C_9  and  N_15
REMARK    7  A    between atoms: C_16  and  C_18
REMARK                            x       y       z     vdW  Elec       q    Type
REMARK                         _______ _______ _______ _____ _____    ______ ____
ROOT
ATOM      1  C   UNL     1       2.512  -2.788  -0.148  0.00  0.00    +0.210 C 
ENDROOT
BRANCH   1   2
ATOM      2  C   UNL     1       2.401  -3.842  -1.252  0.00  0.00    +0.225 C 
ATOM      3 CL   UNL     1       2.005  -3.035  -2.815  0.00  0.00    -0.080 Cl
ATOM      4 CL   UNL     1       3.969  -4.717  -1.408  0.00  0.00    -0.080 Cl
ATOM      5 CL   UNL     1       1.097  -5.015  -0.834  0.00  0.00    -0.080 Cl
ENDBRANCH   1   2
BRANCH   1   6
ATOM      6  N   UNL     1       2.834  -3.444   1.122  0.00  0.00    -0.289 N 
ATOM      7  C   UNL     1       3.787  -2.929   1.924  0.00  0.00    +0.252 C 
ATOM      8  O   UNL     1       4.380  -1.919   1.593  0.00  0.00    -0.270 OA
ATOM      9  H   UNL     1       2.361  -4.249   1.386  0.00  0.00    +0.151 HD
BRANCH   7  10
ATOM     10  C   UNL     1       4.108  -3.585   3.195  0.00  0.00    +0.074 A 
ATOM     11  C   UNL     1       5.042  -3.223   4.153  0.00  0.00    +0.021 A 
ATOM     12  C   UNL     1       5.140  -4.022   5.264  0.00  0.00    +0.008 A 
ATOM     13  C   UNL     1       4.333  -5.111   5.372  0.00  0.00    +0.046 A 
ATOM     14  S   UNL     1       3.395  -5.053   3.915  0.00  0.00    -0.092 S 
ENDBRANCH   7  10
ENDBRANCH   1   6
BRANCH   1  15
ATOM     15  N   UNL     1       1.238  -2.077  -0.021  0.00  0.00    -0.322 N 
ATOM     16  H   UNL     1       0.404  -2.573  -0.010  0.00  0.00    +0.148 HD
BRANCH  15  23
ATOM     17  C   UNL     1      -1.283  -0.759  -0.021  0.00  0.00    +0.046 C 
ATOM     18  C   UNL     1       0.014   0.000   0.087  0.00  0.00    -0.027 A 
ATOM     19  C   UNL     1       0.003   1.378   0.191  0.00  0.00    +0.038 A 
ATOM     20  C   UNL     1       1.193   2.075   0.290  0.00  0.00    +0.127 A 
ATOM     21  C   UNL     1       2.398   1.396   0.287  0.00  0.00    +0.034 A 
ATOM     22  C   UNL     1       2.416   0.019   0.184  0.00  0.00    +0.025 A 
ATOM     23  C   UNL     1       1.222  -0.684   0.083  0.00  0.00    +0.032 A 
BRANCH  20  24
ATOM     24  N   UNL     1       1.177   3.551   0.400  0.00  0.00    +0.056 N 
ATOM     25  O   UNL     1       0.116   4.150   0.403  0.00  0.00    -0.126 OA
ATOM     26  O   UNL     1       2.224   4.166   0.488  0.00  0.00    -0.126 OA
ENDBRANCH  20  24
ENDBRANCH  15  23
ENDBRANCH   1  15
TORSDOF 6
