REMARK  Name = ZINC65382563
REMARK  6 active torsions:
REMARK  status: ('A' for Active; 'I' for Inactive)
REMARK    1  A    between atoms: C_1  and  C_2
REMARK    2  A    between atoms: C_2  and  C_3
REMARK    3  A    between atoms: C_2  and  C_4
REMARK    4  A    between atoms: C_4  and  C_5
REMARK    5  A    between atoms: C_7  and  C_11
REMARK    6  A    between atoms: C_20  and  C_21
REMARK                            x       y       z     vdW  Elec       q    Type
REMARK                         _______ _______ _______ _____ _____    ______ ____
ROOT
ATOM      1  C   UNL     1      -0.199  -5.018   0.691  0.00  0.00    +0.247 C 
ATOM      2  O   UNL     1       0.777  -5.069  -0.027  0.00  0.00    -0.273 OA
ATOM      3  N   UNL     1      -0.190  -5.646   1.884  0.00  0.00    -0.289 N 
ATOM      4  C   UNL     1       0.916  -6.421   2.456  0.00  0.00    +0.147 C 
ATOM      5  C   UNL     1       0.468  -6.931   3.800  0.00  0.00    +0.019 A 
ATOM      6  C   UNL     1      -0.822  -6.500   4.037  0.00  0.00    +0.069 A 
ATOM      7  N   UNL     1      -1.418  -6.837   5.171  0.00  0.00    -0.218 NA
ATOM      8  C   UNL     1      -0.792  -7.579   6.074  0.00  0.00    +0.213 A 
ATOM      9  N   UNL     1       0.445  -8.011   5.885  0.00  0.00    -0.214 NA
ATOM     10  C   UNL     1       1.104  -7.710   4.768  0.00  0.00    +0.082 A 
ATOM     11  N   UNL     1      -1.449  -7.910   7.246  0.00  0.00    -0.327 N 
ATOM     12  C   UNL     1      -1.284  -5.679   2.861  0.00  0.00    +0.164 C 
ATOM     13  H   UNL     1      -2.356  -7.599   7.398  0.00  0.00    +0.145 HD
ATOM     14  H   UNL     1      -1.004  -8.452   7.915  0.00  0.00    +0.145 HD
ENDROOT
BRANCH  10  15
ATOM     15  C   UNL     1       2.490  -8.195   4.555  0.00  0.00    +0.019 A 
ATOM     16  C   UNL     1       3.375  -8.310   5.631  0.00  0.00    +0.013 A 
ATOM     17  C   UNL     1       4.657  -8.768   5.380  0.00  0.00    +0.020 A 
ATOM     18  C   UNL     1       5.018  -9.094   4.086  0.00  0.00    +0.111 A 
ATOM     19  N   UNL     1       4.160  -8.975   3.090  0.00  0.00    -0.263 NA
ATOM     20  C   UNL     1       2.928  -8.550   3.281  0.00  0.00    +0.120 A 
ENDBRANCH  10  15
BRANCH   1  23
ATOM     21  C   UNL     1      -1.416  -2.035  -0.119  0.00  0.00    +0.062 C 
ATOM     22  C   UNL     1      -1.465  -2.886   0.907  0.00  0.00    +0.035 C 
ATOM     23  C   UNL     1      -1.420  -4.254   0.250  0.00  0.00    +0.238 C 
ATOM     24  N   UNL     1      -1.346  -3.930  -1.185  0.00  0.00    -0.170 NA
ATOM     25  N   UNL     1      -1.355  -2.701  -1.293  0.00  0.00    -0.158 NA
BRANCH  21  26
ATOM     26  C   UNL     1      -1.433  -0.534   0.013  0.00  0.00    +0.060 C 
BRANCH  26  28
ATOM     27  C   UNL     1      -0.019   1.526   0.010  0.00  0.00    +0.007 C 
ATOM     28  C   UNL     1       0.002  -0.004   0.002  0.00  0.00    -0.011 C 
ATOM     29  C   UNL     1       0.742  -0.511   1.242  0.00  0.00    +0.007 C 
ENDBRANCH  26  28
ENDBRANCH  21  26
ENDBRANCH   1  23
TORSDOF 4
