REMARK  Name = ZINC67566762
REMARK  9 active torsions:
REMARK  status: ('A' for Active; 'I' for Inactive)
REMARK    1  A    between atoms: C_1  and  C_2
REMARK    2  A    between atoms: C_4  and  C_7
REMARK    3  A    between atoms: C_7  and  N_8
REMARK    4  A    between atoms: N_11  and  C_12
REMARK    5  A    between atoms: C_16  and  C_18
REMARK    6  A    between atoms: C_19  and  C_20
REMARK    7  A    between atoms: C_24  and  C_26
REMARK    8  A    between atoms: C_26  and  O_28
REMARK    9  A    between atoms: O_28  and  C_29
REMARK                            x       y       z     vdW  Elec       q    Type
REMARK                         _______ _______ _______ _____ _____    ______ ____
ROOT
ATOM      1  C   UNL     1      -3.479  -6.430  -3.112  0.00  0.00    +0.036 A 
ATOM      2  C   UNL     1      -4.129  -7.020  -2.034  0.00  0.00    +0.023 A 
ATOM      3  C   UNL     1      -4.980  -8.091  -2.235  0.00  0.00    +0.003 A 
ATOM      4  C   UNL     1      -5.191  -8.582  -3.508  0.00  0.00    +0.017 A 
ATOM      5  C   UNL     1      -4.543  -7.996  -4.598  0.00  0.00    +0.027 A 
ATOM      6  C   UNL     1      -3.687  -6.911  -4.395  0.00  0.00    +0.040 A 
ENDROOT
BRANCH   1  10
ATOM      7  N   UNL     1      -1.789  -3.269  -3.570  0.00  0.00    -0.293 N 
ATOM      8  C   UNL     1      -2.546  -4.357  -3.814  0.00  0.00    +0.304 C 
ATOM      9  O   UNL     1      -3.164  -4.445  -4.858  0.00  0.00    -0.252 OA
ATOM     10  N   UNL     1      -2.619  -5.346  -2.902  0.00  0.00    -0.269 N 
ATOM     11  H   UNL     1      -1.296  -3.198  -2.738  0.00  0.00    +0.151 HD
ATOM     12  H   UNL     1      -2.074  -5.308  -2.100  0.00  0.00    +0.156 HD
BRANCH   7  13
ATOM     13  C   UNL     1      -1.711  -2.193  -4.561  0.00  0.00    +0.164 C 
BRANCH  13  17
ATOM     14  C   UNL     1       2.430   0.653  -3.722  0.00  0.00    +0.089 C 
ATOM     15  C   UNL     1       1.017   0.131  -3.693  0.00  0.00    +0.135 A 
ATOM     16  C   UNL     1       0.564  -0.964  -4.334  0.00  0.00    +0.072 A 
ATOM     17  C   UNL     1      -0.806  -1.103  -4.048  0.00  0.00    +0.101 A 
ATOM     18  N   UNL     1      -1.156  -0.123  -3.263  0.00  0.00    -0.081 NA
ATOM     19  O   UNL     1      -0.010   0.671  -3.020  0.00  0.00    -0.360 OA
ENDBRANCH  13  17
ENDBRANCH   7  13
ENDBRANCH   1  10
BRANCH   5  20
ATOM     20  C   UNL     1      -4.759  -8.502  -5.920  0.00  0.00    -0.061 C 
ATOM     21  C   UNL     1      -4.936  -8.918  -7.004  0.00  0.00    -0.061 C 
BRANCH  21  22
ATOM     22  C   UNL     1      -5.152  -9.425  -8.325  0.00  0.00    +0.026 A 
ATOM     23  C   UNL     1      -6.018 -10.505  -8.529  0.00  0.00    +0.017 A 
ATOM     24  C   UNL     1      -6.227 -10.994  -9.803  0.00  0.00    +0.002 A 
ATOM     25  C   UNL     1      -5.585 -10.422 -10.884  0.00  0.00    +0.015 A 
ATOM     26  C   UNL     1      -4.718  -9.343 -10.695  0.00  0.00    +0.060 A 
ATOM     27  C   UNL     1      -4.505  -8.839  -9.413  0.00  0.00    +0.031 A 
BRANCH  26  28
ATOM     28  C   UNL     1      -4.032  -8.733 -11.853  0.00  0.00    +0.339 C 
ATOM     29  O   UNL     1      -3.278  -7.795 -11.688  0.00  0.00    -0.245 OA
BRANCH  28  30
ATOM     30  O   UNL     1      -4.242  -9.218 -13.092  0.00  0.00    -0.464 OA
ATOM     31  C   UNL     1      -3.546  -8.580 -14.165  0.00  0.00    +0.280 C 
ENDBRANCH  28  30
ENDBRANCH  26  28
ENDBRANCH  21  22
ENDBRANCH   5  20
TORSDOF 7
