REMARK  Name = ZINC36615769
REMARK  7 active torsions:
REMARK  status: ('A' for Active; 'I' for Inactive)
REMARK    1  A    between atoms: C_1  and  C_2
REMARK    2  A    between atoms: C_2  and  N_3
REMARK    3  A    between atoms: C_6  and  C_8
REMARK    4  A    between atoms: C_10  and  C_22
REMARK    5  A    between atoms: C_15  and  C_17
REMARK    6  A    between atoms: C_22  and  O_24
REMARK    7  A    between atoms: O_24  and  C_25
REMARK                            x       y       z     vdW  Elec       q    Type
REMARK                         _______ _______ _______ _____ _____    ______ ____
ROOT
ATOM      1  C   UNL     1       1.220  -0.667  -4.804  0.00  0.00    +0.096 A 
ATOM      2  C   UNL     1       0.276   0.144  -5.472  0.00  0.00    +0.065 A 
ATOM      3  C   UNL     1       0.305   0.212  -6.837  0.00  0.00    +0.153 A 
ATOM      4  N   UNL     1       1.256  -0.516  -7.520  0.00  0.00    -0.206 N 
ATOM      5  C   UNL     1       2.153  -1.291  -6.826  0.00  0.00    +0.172 A 
ATOM      6  N   UNL     1       2.119  -1.345  -5.492  0.00  0.00    -0.225 NA
ATOM      7  C   UNL     1       2.976  -1.897  -7.771  0.00  0.00    +0.094 A 
ATOM      8  C   UNL     1       2.559  -1.476  -9.023  0.00  0.00    +0.182 A 
ATOM      9  N   UNL     1       1.540  -0.656  -8.883  0.00  0.00    -0.159 NA
ATOM     10 BR   UNL     1       4.405  -3.082  -7.410  0.00  0.00    -0.044 Br
ENDROOT
BRANCH   1  14
ATOM     11  N   UNL     1       0.688  -0.476  -1.203  0.00  0.00    -0.271 N 
ATOM     12  C   UNL     1       1.741  -1.322  -1.236  0.00  0.00    +0.109 A 
ATOM     13  C   UNL     1       2.083  -1.512  -2.528  0.00  0.00    +0.051 A 
ATOM     14  C   UNL     1       1.204  -0.752  -3.325  0.00  0.00    +0.111 A 
ATOM     15  N   UNL     1       0.361  -0.135  -2.522  0.00  0.00    -0.170 NA
BRANCH  11  17
ATOM     16  C   UNL     1      -0.019   1.526   0.010  0.00  0.00    +0.029 C 
ATOM     17  C   UNL     1       0.002  -0.004   0.002  0.00  0.00    +0.140 C 
ENDBRANCH  11  17
ENDBRANCH   1  14
BRANCH   8  18
ATOM     18  C   UNL     1       3.175  -1.889 -10.335  0.00  0.00    +0.437 C 
ATOM     19  F   UNL     1       2.536  -3.040 -10.809  0.00  0.00    -0.164 F 
ATOM     20  F   UNL     1       3.027  -0.856 -11.266  0.00  0.00    -0.164 F 
ATOM     21  F   UNL     1       4.536  -2.156 -10.147  0.00  0.00    -0.164 F 
ENDBRANCH   8  18
BRANCH   3  22
ATOM     22  C   UNL     1      -0.665   1.048  -7.566  0.00  0.00    +0.358 C 
ATOM     23  O   UNL     1      -1.500   1.685  -6.953  0.00  0.00    -0.243 OA
BRANCH  22  24
ATOM     24  O   UNL     1      -0.627   1.107  -8.912  0.00  0.00    -0.463 OA
ATOM     25  C   UNL     1      -1.597   1.937  -9.553  0.00  0.00    +0.280 C 
ENDBRANCH  22  24
ENDBRANCH   3  22
TORSDOF 5
