REMARK  Name = ZINC41850606
REMARK  4 active torsions:
REMARK  status: ('A' for Active; 'I' for Inactive)
REMARK    1  A    between atoms: C_1  and  C_2
REMARK    2  A    between atoms: C_7  and  C_23
REMARK    3  A    between atoms: N_9  and  C_10
REMARK    4  A    between atoms: C_10  and  C_20
REMARK                            x       y       z     vdW  Elec       q    Type
REMARK                         _______ _______ _______ _____ _____    ______ ____
ROOT
ATOM      1  C   UNL     1       2.232   0.185   0.912  0.00  0.00    +0.071 C 
ATOM      2  C   UNL     1       2.450   1.698   0.833  0.00  0.00    +0.045 C 
ATOM      3  C   UNL     1       3.810   1.955   0.172  0.00  0.00    +0.228 C 
ATOM      4  O   UNL     1       3.753   1.481  -1.174  0.00  0.00    -0.492 OA
ATOM      5  C   UNL     1       3.272   0.228  -1.385  0.00  0.00    +0.123 A 
ATOM      6  C   UNL     1       2.535  -0.443  -0.424  0.00  0.00    -0.005 A 
ATOM      7  C   UNL     1       2.061  -1.717  -0.685  0.00  0.00    +0.006 A 
ATOM      8  C   UNL     1       2.323  -2.324  -1.898  0.00  0.00    +0.000 A 
ATOM      9  C   UNL     1       3.061  -1.658  -2.859  0.00  0.00    +0.004 A 
ATOM     10  C   UNL     1       3.535  -0.387  -2.605  0.00  0.00    +0.046 A 
ENDROOT
BRANCH   1  17
ATOM     11  C   UNL     1       0.036   1.417  -0.479  0.00  0.00    -0.013 C 
ATOM     12  C   UNL     1      -0.006  -0.008   0.077  0.00  0.00    -0.069 C 
ATOM     13  C   UNL     1      -1.448  -0.372   0.436  0.00  0.00    -0.016 C 
ATOM     14  C   UNL     1      -1.968   0.605   1.494  0.00  0.00    -0.003 C 
ATOM     15  C   UNL     1      -1.038   0.566   2.711  0.00  0.00    -0.016 C 
ATOM     16  C   UNL     1       0.388   0.895   2.268  0.00  0.00    -0.069 C 
ATOM     17  N   UNL     1       0.836  -0.090   1.276  0.00  0.00    +0.397 N 
ATOM     18  C   UNL     1       1.321   0.856   3.480  0.00  0.00    -0.013 C 
ATOM     19  H   UNL     1       0.769  -1.016   1.670  0.00  0.00    -0.079 HD
ENDBRANCH   1  17
BRANCH   1  20
ATOM     20  C   UNL     1       3.147  -0.398   1.959  0.00  0.00    +0.350 C 
ATOM     21  O   UNL     1       2.697  -1.134   2.821  0.00  0.00    -0.248 OA
ATOM     22  O   UNL     1       4.337  -0.134   1.943  0.00  0.00    -0.248 OA
ENDBRANCH   1  20
TORSDOF 2
