REMARK  Name = ZINC59915781
REMARK  11 active torsions:
REMARK  status: ('A' for Active; 'I' for Inactive)
REMARK    1  A    between atoms: C_1  and  C_2
REMARK    2  A    between atoms: C_2  and  C_3
REMARK    3  A    between atoms: C_2  and  C_4
REMARK    4  A    between atoms: C_4  and  C_5
REMARK    5  A    between atoms: C_5  and  C_26
REMARK    6  A    between atoms: N_6  and  N_7
REMARK    7  A    between atoms: C_11  and  S_14
REMARK    8  A    between atoms: N_12  and  N_13
REMARK    9  A    between atoms: S_14  and  C_15
REMARK   10  A    between atoms: C_15  and  C_16
REMARK   11  A    between atoms: N_18  and  C_19
REMARK                            x       y       z     vdW  Elec       q    Type
REMARK                         _______ _______ _______ _____ _____    ______ ____
ROOT
ATOM      1  N   UNL     1      -2.350  -0.830  -3.466  0.00  0.00    -0.204 N 
ATOM      2  C   UNL     1      -2.604  -1.786  -4.441  0.00  0.00    +0.254 A 
ATOM      3  N   UNL     1      -2.544  -3.085  -4.279  0.00  0.00    -0.109 NA
ATOM      4  N   UNL     1      -2.870  -3.688  -5.501  0.00  0.00    -0.119 NA
ATOM      5  C   UNL     1      -3.118  -2.737  -6.369  0.00  0.00    +0.210 A 
ATOM      6  N   UNL     1      -2.966  -1.537  -5.735  0.00  0.00    -0.211 N 
ATOM      7  H   UNL     1      -2.425   0.113  -3.680  0.00  0.00    +0.177 HD
ENDROOT
BRANCH   1   9
ATOM      8  C   UNL     1      -1.752  -0.346  -1.274  0.00  0.00    +0.034 C 
ATOM      9  N   UNL     1      -1.986  -1.227  -2.173  0.00  0.00    -0.189 NA
ATOM     10  C   UNL     1      -1.868   1.119  -1.608  0.00  0.00    +0.062 C 
BRANCH   8  11
ATOM     11  C   UNL     1      -1.359  -0.774   0.116  0.00  0.00    +0.055 C 
BRANCH  11  13
ATOM     12  C   UNL     1       0.568  -1.198   1.649  0.00  0.00    +0.007 C 
ATOM     13  C   UNL     1       0.164  -0.875   0.208  0.00  0.00    -0.012 C 
ATOM     14  C   UNL     1       0.659  -1.985  -0.721  0.00  0.00    +0.007 C 
ENDBRANCH  11  13
ENDBRANCH   8  11
ENDBRANCH   1   9
BRANCH   6  15
ATOM     15  N   UNL     1      -3.142  -0.304  -6.297  0.00  0.00    -0.294 N 
ATOM     16  H   UNL     1      -2.281   0.037  -6.697  0.00  0.00    +0.163 HD
ATOM     17  H   UNL     1      -3.879  -0.322  -6.986  0.00  0.00    +0.163 HD
ENDBRANCH   6  15
BRANCH   5  18
ATOM     18  S   UNL     1      -3.575  -2.967  -8.055  0.00  0.00    -0.075 S 
BRANCH  18  19
ATOM     19  C   UNL     1      -3.608  -4.769  -8.259  0.00  0.00    +0.173 C 
BRANCH  19  20
ATOM     20  C   UNL     1      -3.990  -5.107  -9.677  0.00  0.00    +0.227 C 
ATOM     21  O   UNL     1      -4.217  -4.220 -10.472  0.00  0.00    -0.275 OA
ATOM     22  N   UNL     1      -4.079  -6.396 -10.062  0.00  0.00    -0.285 N 
ATOM     23  H   UNL     1      -3.972  -7.106  -9.409  0.00  0.00    +0.155 HD
BRANCH  22  24
ATOM     24  C   UNL     1      -4.325  -6.710 -11.403  0.00  0.00    +0.033 A 
ATOM     25  C   UNL     1      -5.054  -7.846 -11.729  0.00  0.00    +0.024 A 
ATOM     26  C   UNL     1      -5.296  -8.154 -13.054  0.00  0.00    +0.016 A 
ATOM     27  C   UNL     1      -4.812  -7.332 -14.056  0.00  0.00    +0.013 A 
ATOM     28  C   UNL     1      -4.085  -6.199 -13.734  0.00  0.00    +0.016 A 
ATOM     29  C   UNL     1      -3.845  -5.884 -12.411  0.00  0.00    +0.024 A 
ATOM     30  I   UNL     1      -5.179  -7.803 -16.064  0.00  0.00    -0.044 I 
ENDBRANCH  22  24
ENDBRANCH  19  20
ENDBRANCH  18  19
ENDBRANCH   5  18
TORSDOF 8
