REMARK  Name = ZINC03229411
REMARK  6 active torsions:
REMARK  status: ('A' for Active; 'I' for Inactive)
REMARK    1  A    between atoms: C_1  and  C_2
REMARK    2  A    between atoms: C_4  and  N_7
REMARK    3  A    between atoms: N_7  and  N_8
REMARK    4  A    between atoms: C_9  and  C_11
REMARK    5  A    between atoms: C_15  and  S_17
REMARK    6  A    between atoms: S_17  and  N_20
REMARK                            x       y       z     vdW  Elec       q    Type
REMARK                         _______ _______ _______ _____ _____    ______ ____
ROOT
ATOM      1  C   UNL     1       5.308  -0.683  -2.048  0.00  0.00    +0.040 A 
ATOM      2  C   UNL     1       4.842  -1.836  -2.683  0.00  0.00    +0.013 A 
ATOM      3  C   UNL     1       3.946  -2.662  -2.036  0.00  0.00    +0.003 A 
ATOM      4  C   UNL     1       3.513  -2.352  -0.758  0.00  0.00    +0.028 A 
ATOM      5  C   UNL     1       3.966  -1.208  -0.126  0.00  0.00    +0.106 A 
ATOM      6  C   UNL     1       4.862  -0.374  -0.762  0.00  0.00    +0.041 A 
ENDROOT
BRANCH   1   8
ATOM      7  N   UNL     1       6.697  -0.096  -3.977  0.00  0.00    -0.232 N 
ATOM      8  C   UNL     1       6.269   0.206  -2.735  0.00  0.00    +0.260 C 
ATOM      9  O   UNL     1       6.673   1.209  -2.179  0.00  0.00    -0.269 OA
ATOM     10  H   UNL     1       6.374  -0.896  -4.420  0.00  0.00    +0.173 HD
BRANCH   7  11
ATOM     11  N   UNL     1       7.607   0.746  -4.628  0.00  0.00    -0.265 N 
ATOM     12  H   UNL     1       7.930   1.547  -4.184  0.00  0.00    +0.170 HD
BRANCH  11  16
ATOM     13  C   UNL     1      10.139   1.212  -8.952  0.00  0.00    +0.039 C 
ATOM     14  C   UNL     1       9.226   0.685  -7.875  0.00  0.00    -0.067 C 
ATOM     15  C   UNL     1       8.997   1.243  -6.694  0.00  0.00    +0.023 C 
ATOM     16  C   UNL     1       8.051   0.434  -5.914  0.00  0.00    +0.041 C 
ATOM     17  C   UNL     1       7.670  -0.639  -6.611  0.00  0.00    +0.002 C 
ATOM     18  C   UNL     1       8.393  -0.575  -7.938  0.00  0.00    +0.059 C 
ENDBRANCH  11  16
ENDBRANCH   7  11
ENDBRANCH   1   8
BRANCH   5  19
ATOM     19  S   UNL     1       3.402  -0.819   1.497  0.00  0.00    +0.061 S 
ATOM     20  O   UNL     1       4.396   0.011   2.084  0.00  0.00    -0.153 OA
ATOM     21  O   UNL     1       2.987  -2.043   2.087  0.00  0.00    -0.153 OA
BRANCH  19  22
ATOM     22  N   UNL     1       2.043   0.113   1.334  0.00  0.00    -0.177 NA
ATOM     23  C   UNL     1       0.714  -0.508   1.262  0.00  0.00    +0.109 C 
ATOM     24  C   UNL     1       0.002  -0.004   0.002  0.00  0.00    +0.017 C 
ATOM     25  C   UNL     1      -0.019   1.526   0.010  0.00  0.00    +0.003 C 
ATOM     26  C   UNL     1       1.417   2.058  -0.000  0.00  0.00    +0.017 C 
ATOM     27  C   UNL     1       2.144   1.577   1.259  0.00  0.00    +0.109 C 
ENDBRANCH  19  22
ENDBRANCH   5  19
TORSDOF 5
