REMARK  Name = ZINC39736066
REMARK  8 active torsions:
REMARK  status: ('A' for Active; 'I' for Inactive)
REMARK    1  A    between atoms: C_1  and  C_2
REMARK    2  A    between atoms: C_2  and  C_4
REMARK    3  A    between atoms: C_2  and  S_16
REMARK    4  A    between atoms: N_6  and  C_7
REMARK    5  A    between atoms: C_11  and  C_13
REMARK    6  A    between atoms: C_13  and  C_15
REMARK    7  A    between atoms: S_16  and  C_17
REMARK    8  A    between atoms: C_21  and  C_23
REMARK                            x       y       z     vdW  Elec       q    Type
REMARK                         _______ _______ _______ _____ _____    ______ ____
ROOT
ATOM      1  S   UNL     1       0.849  -0.592  -1.493  0.00  0.00    -0.084 S 
ENDROOT
BRANCH   1   2
ATOM      2  C   UNL     1       2.559  -0.026  -1.280  0.00  0.00    +0.340 C 
ATOM      3  N   UNL     1       2.601   1.438  -1.123  0.00  0.00    -0.219 N 
ATOM      4  N   UNL     1       3.152   1.665   0.146  0.00  0.00    -0.145 NA
ATOM      5  C   UNL     1       3.428   0.527   0.726  0.00  0.00    +0.238 C 
ATOM      6  O   UNL     1       3.107  -0.536  -0.056  0.00  0.00    -0.443 OA
ATOM      7  H   UNL     1       2.308   2.105  -1.764  0.00  0.00    +0.173 HD
BRANCH   5   8
ATOM      8  C   UNL     1       3.990   0.416   2.006  0.00  0.00    +0.043 C 
ATOM      9  C   UNL     1       4.341   1.458   2.866  0.00  0.00    +0.008 A 
ATOM     10  C   UNL     1       4.256   2.861   2.748  0.00  0.00    +0.010 A 
ATOM     11  C   UNL     1       4.683   3.650   3.768  0.00  0.00    +0.001 A 
ATOM     12  C   UNL     1       5.209   3.106   4.942  0.00  0.00    +0.002 A 
ATOM     13  C   UNL     1       5.321   1.767   5.123  0.00  0.00    +0.026 A 
ATOM     14  C   UNL     1       4.895   0.879   4.101  0.00  0.00    +0.043 A 
ATOM     15  N   UNL     1       4.897  -0.438   4.033  0.00  0.00    -0.380 N 
ATOM     16  C   UNL     1       4.338  -0.857   2.745  0.00  0.00    +0.154 C 
ATOM     17  H   UNL     1       5.216  -1.035   4.728  0.00  0.00    +0.160 HD
ENDBRANCH   5   8
ENDBRANCH   1   2
BRANCH   1  19
ATOM     18  C   UNL     1      -0.007   1.520   0.020  0.00  0.00    +0.029 C 
ATOM     19  C   UNL     1       0.004  -0.010   0.003  0.00  0.00    +0.134 C 
BRANCH  19  20
ATOM     20  C   UNL     1      -1.412  -0.524   0.013  0.00  0.00    +0.230 C 
ATOM     21  O   UNL     1      -1.931  -0.891  -1.021  0.00  0.00    -0.274 OA
ATOM     22  N   UNL     1      -2.103  -0.575   1.169  0.00  0.00    -0.285 N 
ATOM     23  H   UNL     1      -1.668  -0.345   2.004  0.00  0.00    +0.155 HD
BRANCH  22  24
ATOM     24  C   UNL     1      -3.449  -0.960   1.163  0.00  0.00    +0.034 A 
ATOM     25  C   UNL     1      -4.343  -0.373   2.051  0.00  0.00    +0.023 A 
ATOM     26  C   UNL     1      -5.673  -0.749   2.051  0.00  0.00    +0.002 A 
ATOM     27  C   UNL     1      -6.124  -1.709   1.170  0.00  0.00    +0.011 A 
ATOM     28  C   UNL     1      -5.234  -2.307   0.272  0.00  0.00    +0.019 A 
ATOM     29  C   UNL     1      -3.890  -1.922   0.269  0.00  0.00    +0.034 A 
BRANCH  28  30
ATOM     30  C   UNL     1      -5.711  -3.332  -0.669  0.00  0.00    +0.160 C 
ATOM     31  O   UNL     1      -4.936  -3.849  -1.447  0.00  0.00    -0.292 OA
ATOM     32  C   UNL     1      -7.161  -3.741  -0.668  0.00  0.00    +0.091 C 
ENDBRANCH  28  30
ENDBRANCH  22  24
ENDBRANCH  19  20
ENDBRANCH   1  19
TORSDOF 6
