REMARK  Name = ZINC63269572
REMARK  7 active torsions:
REMARK  status: ('A' for Active; 'I' for Inactive)
REMARK    1  A    between atoms: C_1  and  C_2
REMARK    2  A    between atoms: C_2  and  C_3
REMARK    3  A    between atoms: C_2  and  N_4
REMARK    4  A    between atoms: N_7  and  N_8
REMARK    5  A    between atoms: C_9  and  C_11
REMARK    6  A    between atoms: C_12  and  C_13
REMARK    7  A    between atoms: C_16  and  N_19
REMARK                            x       y       z     vdW  Elec       q    Type
REMARK                         _______ _______ _______ _____ _____    ______ ____
ROOT
ATOM      1  C   UNL     1      -6.285  -1.054   0.598  0.00  0.00    +0.069 C 
ATOM      2  C   UNL     1      -7.549  -1.527   0.621  0.00  0.00    +0.013 C 
ENDROOT
BRANCH   2   3
ATOM      3  C   UNL     1      -8.633  -0.702   1.173  0.00  0.00    -0.025 A 
ATOM      4  C   UNL     1      -8.357   0.577   1.671  0.00  0.00    +0.010 A 
ATOM      5  C   UNL     1      -9.375   1.346   2.188  0.00  0.00    +0.024 A 
ATOM      6  C   UNL     1     -10.677   0.854   2.216  0.00  0.00    +0.036 A 
ATOM      7  C   UNL     1     -10.955  -0.417   1.723  0.00  0.00    +0.024 A 
ATOM      8  C   UNL     1      -9.945  -1.191   1.199  0.00  0.00    +0.010 A 
BRANCH   6   9
ATOM      9  N   UNL     1     -11.705   1.636   2.742  0.00  0.00    -0.271 N 
ATOM     10  C   UNL     1     -13.124   1.264   2.717  0.00  0.00    +0.114 C 
ATOM     11  C   UNL     1     -13.807   2.175   3.761  0.00  0.00    +0.029 C 
ATOM     12  C   UNL     1     -12.851   3.389   3.794  0.00  0.00    +0.098 C 
ATOM     13  C   UNL     1     -11.522   2.826   3.341  0.00  0.00    +0.220 C 
ATOM     14  O   UNL     1     -10.449   3.369   3.494  0.00  0.00    -0.275 OA
ENDBRANCH   6   9
ENDBRANCH   2   3
BRANCH   1  16
ATOM     15  N   UNL     1      -3.945  -1.402   0.024  0.00  0.00    -0.230 N 
ATOM     16  C   UNL     1      -5.207  -1.875   0.048  0.00  0.00    +0.253 C 
ATOM     17  O   UNL     1      -5.450  -2.985  -0.389  0.00  0.00    -0.269 OA
ATOM     18  H   UNL     1      -3.752  -0.518   0.372  0.00  0.00    +0.173 HD
BRANCH  15  22
ATOM     19  N   UNL     1      -1.382  -0.487  -0.042  0.00  0.00    -0.296 N 
ATOM     20  C   UNL     1      -1.650  -1.716  -0.526  0.00  0.00    +0.316 C 
ATOM     21  O   UNL     1      -0.754  -2.399  -0.983  0.00  0.00    -0.251 OA
ATOM     22  N   UNL     1      -2.912  -2.189  -0.502  0.00  0.00    -0.218 N 
ATOM     23  H   UNL     1      -2.097   0.057   0.323  0.00  0.00    +0.151 HD
ATOM     24  H   UNL     1      -3.106  -3.073  -0.851  0.00  0.00    +0.174 HD
BRANCH  19  26
ATOM     25  C   UNL     1      -0.038   1.556  -0.073  0.00  0.00    +0.027 C 
ATOM     26  C   UNL     1      -0.010   0.026  -0.067  0.00  0.00    +0.068 C 
ATOM     27  C   UNL     1       0.741  -0.465   1.172  0.00  0.00    +0.027 C 
ENDBRANCH  19  26
ENDBRANCH  15  22
ENDBRANCH   1  16
TORSDOF 5
