REMARK  Name = ZINC39982981
REMARK  7 active torsions:
REMARK  status: ('A' for Active; 'I' for Inactive)
REMARK    1  A    between atoms: C_1  and  C_2
REMARK    2  A    between atoms: C_2  and  O_3
REMARK    3  A    between atoms: O_3  and  C_4
REMARK    4  A    between atoms: C_4  and  C_6
REMARK    5  A    between atoms: C_7  and  C_27
REMARK    6  A    between atoms: C_12  and  C_14
REMARK    7  A    between atoms: C_18  and  C_20
REMARK                            x       y       z     vdW  Elec       q    Type
REMARK                         _______ _______ _______ _____ _____    ______ ____
ROOT
ATOM      1  C   UNL     1       1.666  -2.383   2.321  0.00  0.00    +0.078 C 
ATOM      2  C   UNL     1       1.513  -3.685   2.645  0.00  0.00    +0.021 C 
ATOM      3  N   UNL     1       1.967  -4.172   3.837  0.00  0.00    -0.273 N 
ATOM      4  C   UNL     1       2.584  -3.422   4.759  0.00  0.00    +0.304 C 
ATOM      5  O   UNL     1       2.953  -3.946   5.792  0.00  0.00    -0.252 OA
ATOM      6  N   UNL     1       2.809  -2.106   4.579  0.00  0.00    -0.288 N 
ATOM      7  C   UNL     1       2.363  -1.484   3.321  0.00  0.00    +0.143 C 
ATOM      8  C   UNL     1       0.830  -4.615   1.676  0.00  0.00    +0.061 C 
ATOM      9  H   UNL     1       1.835  -5.114   4.027  0.00  0.00    +0.156 HD
ATOM     10  H   UNL     1       3.257  -1.581   5.261  0.00  0.00    +0.151 HD
ENDROOT
BRANCH   7  11
ATOM     11  C   UNL     1       1.420  -0.361   3.673  0.00  0.00    +0.003 C 
ATOM     12  C   UNL     1       1.562   0.942   3.419  0.00  0.00    +0.136 C 
ATOM     13  N   UNL     1       0.505   1.640   3.890  0.00  0.00    -0.186 NA
ATOM     14  N   UNL     1      -0.357   0.953   4.444  0.00  0.00    -0.297 N 
ATOM     15  C   UNL     1       0.085  -0.451   4.391  0.00  0.00    +0.158 C 
ATOM     16  H   UNL     1      -1.180   1.279   4.840  0.00  0.00    +0.183 HD
BRANCH  15  17
ATOM     17  C   UNL     1       0.264  -1.003   5.782  0.00  0.00    -0.019 A 
ATOM     18  C   UNL     1       0.696  -0.177   6.803  0.00  0.00    +0.007 A 
ATOM     19  C   UNL     1       0.860  -0.683   8.078  0.00  0.00    +0.020 A 
ATOM     20  C   UNL     1       0.593  -2.017   8.333  0.00  0.00    +0.041 A 
ATOM     21  C   UNL     1       0.161  -2.843   7.311  0.00  0.00    +0.020 A 
ATOM     22  C   UNL     1      -0.009  -2.334   6.037  0.00  0.00    +0.007 A 
ATOM     23 CL   UNL     1       0.799  -2.653   9.935  0.00  0.00    -0.084 Cl
ENDBRANCH  15  17
ENDBRANCH   7  11
BRANCH   1  24
ATOM     24  C   UNL     1       1.196  -1.877   1.086  0.00  0.00    +0.339 C 
ATOM     25  O   UNL     1       0.749  -2.637   0.248  0.00  0.00    -0.245 OA
BRANCH  24  26
ATOM     26  O   UNL     1       1.246  -0.551   0.837  0.00  0.00    -0.462 OA
BRANCH  26  28
ATOM     27  C   UNL     1       0.891   1.411  -0.529  0.00  0.00    +0.048 C 
ATOM     28  C   UNL     1       0.755  -0.110  -0.430  0.00  0.00    +0.229 C 
ENDBRANCH  26  28
ENDBRANCH  24  26
ENDBRANCH   1  24
TORSDOF 5
