REMARK  Name = ZINC66956654
REMARK  6 active torsions:
REMARK  status: ('A' for Active; 'I' for Inactive)
REMARK    1  A    between atoms: C_1  and  C_2
REMARK    2  A    between atoms: C_2  and  C_3
REMARK    3  A    between atoms: C_2  and  N_4
REMARK    4  A    between atoms: C_7  and  N_10
REMARK    5  A    between atoms: N_13  and  C_14
REMARK    6  A    between atoms: C_17  and  C_20
REMARK                            x       y       z     vdW  Elec       q    Type
REMARK                         _______ _______ _______ _____ _____    ______ ____
ROOT
ATOM      1  N   UNL     1      -3.924  -1.105  -2.483  0.00  0.00    -0.298 N 
ATOM      2  C   UNL     1      -4.354  -1.852  -3.519  0.00  0.00    +0.304 C 
ATOM      3  O   UNL     1      -3.648  -2.733  -3.969  0.00  0.00    -0.253 OA
ATOM      4  N   UNL     1      -5.569  -1.621  -4.056  0.00  0.00    -0.269 N 
ATOM      5  H   UNL     1      -4.487  -0.402  -2.124  0.00  0.00    +0.150 HD
ATOM      6  H   UNL     1      -6.159  -0.964  -3.657  0.00  0.00    +0.156 HD
ENDROOT
BRANCH   1  10
ATOM      7  N   UNL     1      -1.440  -0.628   0.107  0.00  0.00    +0.382 N 
ATOM      8  C   UNL     1      -1.475  -2.106   0.087  0.00  0.00    -0.077 C 
ATOM      9  C   UNL     1      -2.686  -2.461  -0.812  0.00  0.00    +0.002 C 
ATOM     10  C   UNL     1      -2.604  -1.356  -1.898  0.00  0.00    +0.056 C 
ATOM     11  C   UNL     1      -2.111  -0.126  -1.106  0.00  0.00    -0.056 C 
ATOM     12  H   UNL     1      -1.923  -0.290   0.926  0.00  0.00    -0.081 HD
BRANCH   7  14
ATOM     13  C   UNL     1      -0.014   1.363   0.126  0.00  0.00    -0.014 C 
ATOM     14  C   UNL     1      -0.046  -0.167   0.127  0.00  0.00    -0.075 C 
ATOM     15  C   UNL     1       0.646  -0.690   1.387  0.00  0.00    -0.014 C 
ENDBRANCH   7  14
ENDBRANCH   1  10
BRANCH   4  16
ATOM     16  C   UNL     1      -5.977  -2.329  -5.190  0.00  0.00    +0.035 A 
ATOM     17  C   UNL     1      -5.602  -3.659  -5.350  0.00  0.00    +0.024 A 
ATOM     18  C   UNL     1      -6.003  -4.359  -6.467  0.00  0.00    +0.013 A 
ATOM     19  C   UNL     1      -6.786  -3.734  -7.438  0.00  0.00    +0.019 A 
ATOM     20  C   UNL     1      -7.160  -2.399  -7.275  0.00  0.00    +0.013 A 
ATOM     21  C   UNL     1      -6.761  -1.705  -6.153  0.00  0.00    +0.024 A 
BRANCH  19  22
ATOM     22  C   UNL     1      -7.216  -4.483  -8.638  0.00  0.00    +0.164 A 
ATOM     23  N   UNL     1      -7.669  -3.970  -9.765  0.00  0.00    -0.129 NA
ATOM     24  N   UNL     1      -7.948  -4.917 -10.594  0.00  0.00    -0.134 NA
ATOM     25  C   UNL     1      -7.693  -6.069 -10.051  0.00  0.00    +0.134 A 
ATOM     26  N   UNL     1      -7.217  -5.834  -8.795  0.00  0.00    -0.311 N 
ATOM     27  C   UNL     1      -6.809  -6.871  -7.848  0.00  0.00    +0.125 C 
ATOM     28  C   UNL     1      -7.385  -8.214  -8.313  0.00  0.00    +0.022 C 
ATOM     29  C   UNL     1      -7.051  -8.433  -9.791  0.00  0.00    +0.009 C 
ATOM     30  C   UNL     1      -7.862  -7.446 -10.644  0.00  0.00    +0.076 C 
ENDBRANCH  19  22
ENDBRANCH   4  16
TORSDOF 4
