REMARK  Name = ZINC12762734
REMARK  7 active torsions:
REMARK  status: ('A' for Active; 'I' for Inactive)
REMARK    1  A    between atoms: C_1  and  C_2
REMARK    2  A    between atoms: C_5  and  C_7
REMARK    3  A    between atoms: C_7  and  C_9
REMARK    4  A    between atoms: C_9  and  C_10
REMARK    5  A    between atoms: C_10  and  C_11
REMARK    6  A    between atoms: N_13  and  C_14
REMARK    7  A    between atoms: C_23  and  C_26
REMARK                            x       y       z     vdW  Elec       q    Type
REMARK                         _______ _______ _______ _____ _____    ______ ____
ROOT
ATOM      1  C   UNL     1       3.854  -4.604  -0.674  0.00  0.00    +0.218 C 
ATOM      2  O   UNL     1       4.854  -3.989  -0.368  0.00  0.00    -0.275 OA
ATOM      3  N   UNL     1       2.647  -4.008  -0.601  0.00  0.00    -0.285 N 
ATOM      4  H   UNL     1       1.842  -4.522  -0.771  0.00  0.00    +0.155 HD
ENDROOT
BRANCH   3   5
ATOM      5  C   UNL     1       2.556  -2.648  -0.281  0.00  0.00    +0.035 A 
ATOM      6  C   UNL     1       1.472  -2.178   0.449  0.00  0.00    +0.027 A 
ATOM      7  C   UNL     1       1.377  -0.836   0.768  0.00  0.00    +0.049 A 
ATOM      8  C   UNL     1       2.365   0.043   0.360  0.00  0.00    +0.143 A 
ATOM      9  C   UNL     1       3.455  -0.426  -0.373  0.00  0.00    +0.077 A 
ATOM     10  C   UNL     1       3.550  -1.770  -0.692  0.00  0.00    +0.050 A 
ATOM     11  N   UNL     1       4.447   0.478  -0.780  0.00  0.00    -0.279 N 
ATOM     12  C   UNL     1       4.500   1.697  -0.201  0.00  0.00    +0.258 C 
ATOM     13  O   UNL     1       5.333   2.504  -0.554  0.00  0.00    -0.271 OA
ATOM     14  C   UNL     1       3.522   2.049   0.891  0.00  0.00    +0.256 C 
ATOM     15  O   UNL     1       2.286   1.366   0.668  0.00  0.00    -0.478 OA
ATOM     16  C   UNL     1       3.276   3.559   0.888  0.00  0.00    +0.062 C 
ATOM     17  H   UNL     1       5.086   0.231  -1.467  0.00  0.00    +0.155 HD
ENDBRANCH   3   5
BRANCH   1  18
ATOM     18  C   UNL     1       3.962  -6.035  -1.134  0.00  0.00    +0.104 C 
BRANCH  18  19
ATOM     19  C   UNL     1       5.430  -6.465  -1.125  0.00  0.00    +0.089 C 
BRANCH  19  20
ATOM     20  C   UNL     1       5.538  -7.896  -1.585  0.00  0.00    +0.170 C 
ATOM     21  O   UNL     1       4.537  -8.512  -1.891  0.00  0.00    -0.291 OA
BRANCH  20  26
ATOM     22  C   UNL     1      10.863  -9.415  -1.541  0.00  0.00    +0.051 C 
ATOM     23  C   UNL     1       9.368  -9.252  -1.640  0.00  0.00    -0.013 A 
ATOM     24  C   UNL     1       8.443 -10.167  -2.036  0.00  0.00    +0.011 A 
ATOM     25  C   UNL     1       7.118  -9.816  -2.056  0.00  0.00    +0.019 A 
ATOM     26  C   UNL     1       6.802  -8.520  -1.661  0.00  0.00    +0.055 A 
ATOM     27  S   UNL     1       8.412  -7.850  -1.284  0.00  0.00    -0.091 S 
ENDBRANCH  20  26
ENDBRANCH  19  20
ENDBRANCH  18  19
ENDBRANCH   1  18
TORSDOF 5
