REMARK  Name = ZINC14957606
REMARK  7 active torsions:
REMARK  status: ('A' for Active; 'I' for Inactive)
REMARK    1  A    between atoms: C_1  and  O_2
REMARK    2  A    between atoms: O_2  and  C_3
REMARK    3  A    between atoms: C_3  and  C_5
REMARK    4  A    between atoms: C_9  and  S_10
REMARK    5  A    between atoms: S_10  and  N_13
REMARK    6  A    between atoms: N_13  and  C_14
REMARK    7  A    between atoms: C_24  and  C_26
REMARK                            x       y       z     vdW  Elec       q    Type
REMARK                         _______ _______ _______ _____ _____    ______ ____
ROOT
ATOM      1  C   UNL     1       4.727  -4.035   2.626  0.00  0.00    +0.096 A 
ATOM      2  C   UNL     1       4.448  -2.936   1.719  0.00  0.00    -0.018 A 
ATOM      3  C   UNL     1       3.227  -2.970   1.140  0.00  0.00    +0.013 A 
ATOM      4  S   UNL     1       2.462  -4.429   1.786  0.00  0.00    -0.071 S 
ATOM      5  C   UNL     1       3.746  -4.985   2.808  0.00  0.00    +0.157 A 
ATOM      6  C   UNL     1       2.667  -1.981   0.169  0.00  0.00    +0.150 C 
ATOM      7  N   UNL     1       3.598  -0.836   0.123  0.00  0.00    -0.291 N 
ATOM      8  C   UNL     1       5.038  -1.131   0.111  0.00  0.00    +0.113 C 
ATOM      9  C   UNL     1       5.434  -1.813   1.422  0.00  0.00    +0.056 C 
ATOM     10  C   UNL     1       3.144   0.433   0.099  0.00  0.00    +0.268 C 
ATOM     11  O   UNL     1       3.929   1.358   0.017  0.00  0.00    -0.268 OA
ENDROOT
BRANCH  10  12
ATOM     12  C   UNL     1       1.696   0.700   0.173  0.00  0.00    +0.156 A 
ATOM     13  C   UNL     1       1.159   1.974   0.295  0.00  0.00    +0.101 A 
ATOM     14  S   UNL     1      -0.535   1.617   0.326  0.00  0.00    +0.029 S 
ATOM     15  N   UNL     1      -0.472   0.046   0.197  0.00  0.00    -0.110 NA
ATOM     16  N   UNL     1       0.774  -0.254   0.128  0.00  0.00    -0.136 NA
ENDBRANCH  10  12
BRANCH   5  17
ATOM     17  S   UNL     1       3.787  -6.419   3.832  0.00  0.00    +0.066 S 
ATOM     18  O   UNL     1       4.286  -7.478   3.027  0.00  0.00    -0.153 OA
ATOM     19  O   UNL     1       4.407  -6.030   5.050  0.00  0.00    -0.153 OA
BRANCH  17  20
ATOM     20  N   UNL     1       2.218  -6.803   4.200  0.00  0.00    -0.186 NA
ATOM     21  H   UNL     1       1.832  -7.630   3.873  0.00  0.00    +0.148 HD
BRANCH  20  22
ATOM     22  C   UNL     1       1.415  -5.892   5.020  0.00  0.00    +0.077 C 
ATOM     23  C   UNL     1       1.490  -6.325   6.485  0.00  0.00    +0.020 C 
ATOM     24  C   UNL     1       0.651  -5.374   7.341  0.00  0.00    +0.002 C 
ATOM     25  C   UNL     1      -0.805  -5.415   6.872  0.00  0.00    +0.000 C 
ATOM     26  C   UNL     1      -0.880  -4.983   5.406  0.00  0.00    +0.002 C 
ATOM     27  C   UNL     1      -0.041  -5.934   4.550  0.00  0.00    +0.020 C 
ENDBRANCH  20  22
ENDBRANCH  17  20
ENDBRANCH   5  17
BRANCH   1  28
ATOM     28  C   UNL     1       6.016  -4.131   3.328  0.00  0.00    +0.342 C 
ATOM     29  O   UNL     1       6.154  -3.611   4.418  0.00  0.00    -0.245 OA
BRANCH  28  31
ATOM     30  C   UNL     1       8.285  -4.850   3.513  0.00  0.00    +0.280 C 
ATOM     31  O   UNL     1       7.043  -4.796   2.763  0.00  0.00    -0.464 OA
ENDBRANCH  28  31
ENDBRANCH   1  28
TORSDOF 6
