REMARK  Name = ZINC39600552
REMARK  10 active torsions:
REMARK  status: ('A' for Active; 'I' for Inactive)
REMARK    1  A    between atoms: C_1  and  C_2
REMARK    2  A    between atoms: C_2  and  C_3
REMARK    3  A    between atoms: C_3  and  C_4
REMARK    4  A    between atoms: C_4  and  C_5
REMARK    5  A    between atoms: C_5  and  C_7
REMARK    6  A    between atoms: C_5  and  C_8
REMARK    7  A    between atoms: C_12  and  C_21
REMARK    8  A    between atoms: N_23  and  C_24
REMARK    9  A    between atoms: C_24  and  C_25
REMARK   10  A    between atoms: C_27  and  C_32
REMARK                            x       y       z     vdW  Elec       q    Type
REMARK                         _______ _______ _______ _____ _____    ______ ____
ROOT
ATOM      1  C   UNL     1       1.551  -4.182  -2.453  0.00  0.00    +0.218 C 
ATOM      2  O   UNL     1       1.171  -4.816  -1.491  0.00  0.00    -0.275 OA
ATOM      3  N   UNL     1       2.189  -4.806  -3.463  0.00  0.00    -0.300 N 
ATOM      4  C   UNL     1       2.728  -4.205  -4.705  0.00  0.00    +0.121 C 
ATOM      5  C   UNL     1       4.066  -4.939  -4.946  0.00  0.00    +0.100 C 
ATOM      6  C   UNL     1       3.916  -6.279  -4.207  0.00  0.00    -0.004 C 
ATOM      7  C   UNL     1       2.516  -6.247  -3.578  0.00  0.00    +0.115 C 
ATOM      8  C   UNL     1       4.975  -6.402  -3.115  0.00  0.00    -0.010 C 
ATOM      9  C   UNL     1       4.842  -7.767  -2.434  0.00  0.00    -0.082 C 
ATOM     10  N   UNL     1       5.011  -8.832  -3.429  0.00  0.00    +0.379 N 
ATOM     11  C   UNL     1       3.934  -8.763  -4.425  0.00  0.00    -0.082 C 
ATOM     12  C   UNL     1       4.028  -7.440  -5.190  0.00  0.00    -0.010 C 
ATOM     13  H   UNL     1       5.901  -8.721  -3.891  0.00  0.00    -0.086 HD
ATOM     14  H   UNL     1       4.984  -9.729  -2.968  0.00  0.00    -0.086 HD
ENDROOT
BRANCH   5  15
ATOM     15  C   UNL     1       4.281  -5.170  -6.419  0.00  0.00    +0.218 C 
ATOM     16  O   UNL     1       3.328  -5.327  -7.153  0.00  0.00    -0.275 OA
ATOM     17  N   UNL     1       5.531  -5.202  -6.921  0.00  0.00    -0.311 N 
ATOM     18  H   UNL     1       6.293  -5.077  -6.334  0.00  0.00    +0.149 HD
BRANCH  17  19
ATOM     19  C   UNL     1       5.740  -5.427  -8.354  0.00  0.00    +0.139 C 
BRANCH  19  20
ATOM     20  C   UNL     1       7.216  -5.417  -8.654  0.00  0.00    -0.027 A 
ATOM     21  C   UNL     1       7.848  -4.231  -8.978  0.00  0.00    +0.017 A 
ATOM     22  C   UNL     1       9.203  -4.221  -9.253  0.00  0.00    +0.058 A 
ATOM     23  C   UNL     1       9.927  -5.397  -9.205  0.00  0.00    +0.050 A 
ATOM     24  C   UNL     1       9.296  -6.585  -8.881  0.00  0.00    +0.124 A 
ATOM     25  C   UNL     1       7.940  -6.593  -8.599  0.00  0.00    +0.043 A 
ATOM     26  F   UNL     1      10.003  -7.736  -8.834  0.00  0.00    -0.205 F 
BRANCH  22  27
ATOM     27  C   UNL     1       9.890  -2.927  -9.606  0.00  0.00    +0.418 C 
ATOM     28  F   UNL     1      10.360  -2.315  -8.440  0.00  0.00    -0.166 F 
ATOM     29  F   UNL     1      10.965  -3.188 -10.462  0.00  0.00    -0.166 F 
ATOM     30  F   UNL     1       8.982  -2.076 -10.245  0.00  0.00    -0.166 F 
ENDBRANCH  22  27
ENDBRANCH  19  20
ENDBRANCH  17  19
ENDBRANCH   5  15
BRANCH   1  31
ATOM     31  C   UNL     1       1.309  -2.696  -2.518  0.00  0.00    +0.072 C 
ATOM     32  C   UNL     1       0.460  -2.371  -3.748  0.00  0.00    +0.017 C 
BRANCH  31  33
ATOM     33  C   UNL     1       0.572  -2.243  -1.256  0.00  0.00    +0.012 C 
BRANCH  33  34
ATOM     34  C   UNL     1       0.437  -0.719  -1.263  0.00  0.00    +0.000 C 
BRANCH  34  36
ATOM     35  C   UNL     1      -0.435   1.258  -0.008  0.00  0.00    +0.004 C 
ATOM     36  C   UNL     1      -0.300  -0.266  -0.001  0.00  0.00    -0.003 C 
ENDBRANCH  34  36
ENDBRANCH  33  34
ENDBRANCH  31  33
ENDBRANCH   1  31
TORSDOF 8
