REMARK  Name = ZINC67028328
REMARK  7 active torsions:
REMARK  status: ('A' for Active; 'I' for Inactive)
REMARK    1  A    between atoms: C_1  and  C_2
REMARK    2  A    between atoms: C_5  and  N_9
REMARK    3  A    between atoms: C_6  and  C_8
REMARK    4  A    between atoms: C_10  and  C_12
REMARK    5  A    between atoms: C_13  and  C_26
REMARK    6  A    between atoms: N_14  and  C_25
REMARK    7  A    between atoms: C_18  and  C_20
REMARK                            x       y       z     vdW  Elec       q    Type
REMARK                         _______ _______ _______ _____ _____    ______ ____
ROOT
ATOM      1  C   UNL     1      -0.078  -6.480  -1.497  0.00  0.00    +0.058 C 
ATOM      2  C   UNL     1      -0.023  -7.247  -2.606  0.00  0.00    +0.019 C 
ATOM      3  N   UNL     1       0.160  -8.598  -2.520  0.00  0.00    -0.289 N 
ATOM      4  C   UNL     1       0.298  -9.257  -1.362  0.00  0.00    +0.137 C 
ATOM      5  S   UNL     1       0.522 -10.954  -1.397  0.00  0.00    -0.018 S 
ATOM      6  N   UNL     1       0.266  -8.627  -0.171  0.00  0.00    -0.314 N 
ATOM      7  C   UNL     1       0.079  -7.167  -0.155  0.00  0.00    +0.160 C 
ATOM      8  C   UNL     1       0.209  -9.370  -3.764  0.00  0.00    +0.137 C 
ATOM      9  C   UNL     1      -0.168  -6.604  -3.961  0.00  0.00    +0.061 C 
ATOM     10  H   UNL     1       0.367  -9.124   0.656  0.00  0.00    +0.149 HD
ENDROOT
BRANCH   7  11
ATOM     11  C   UNL     1      -1.151  -6.870   0.664  0.00  0.00    +0.097 A 
ATOM     12  C   UNL     1      -1.992  -7.844   1.095  0.00  0.00    +0.094 A 
ATOM     13  S   UNL     1      -3.149  -6.961   1.933  0.00  0.00    +0.028 S 
ATOM     14  N   UNL     1      -2.554  -5.472   1.717  0.00  0.00    -0.110 NA
ATOM     15  N   UNL     1      -1.485  -5.647   1.020  0.00  0.00    -0.144 NA
ENDBRANCH   7  11
BRANCH   1  17
ATOM     16  N   UNL     1      -1.476  -4.583  -1.917  0.00  0.00    -0.281 N 
ATOM     17  C   UNL     1      -0.268  -5.079  -1.585  0.00  0.00    +0.248 C 
ATOM     18  O   UNL     1       0.660  -4.323  -1.360  0.00  0.00    -0.270 OA
ATOM     19  H   UNL     1      -2.237  -5.178  -2.006  0.00  0.00    +0.155 HD
BRANCH  16  24
ATOM     20  C   UNL     1      -2.112   0.985  -2.791  0.00  0.00    +0.044 C 
ATOM     21  C   UNL     1      -1.943  -0.494  -2.559  0.00  0.00    -0.050 A 
ATOM     22  C   UNL     1      -0.961  -0.950  -1.699  0.00  0.00    +0.005 A 
ATOM     23  C   UNL     1      -0.803  -2.304  -1.484  0.00  0.00    +0.024 A 
ATOM     24  C   UNL     1      -1.633  -3.210  -2.132  0.00  0.00    +0.037 A 
ATOM     25  C   UNL     1      -2.620  -2.749  -2.994  0.00  0.00    -0.029 A 
ATOM     26  C   UNL     1      -2.775  -1.393  -3.201  0.00  0.00    +0.008 A 
ATOM     27  C   UNL     1      -3.523  -3.728  -3.700  0.00  0.00    +0.045 C 
ENDBRANCH  16  24
ENDBRANCH   1  17
TORSDOF 3
