REMARK  Name = ZINC36494312
REMARK  12 active torsions:
REMARK  status: ('A' for Active; 'I' for Inactive)
REMARK    1  A    between atoms: C_1  and  N_2
REMARK    2  A    between atoms: N_2  and  C_3
REMARK    3  A    between atoms: N_2  and  C_4
REMARK    4  A    between atoms: C_7  and  C_10
REMARK    5  A    between atoms: C_10  and  C_12
REMARK    6  A    between atoms: C_10  and  N_21
REMARK    7  A    between atoms: N_14  and  C_15
REMARK    8  A    between atoms: N_21  and  C_22
REMARK    9  A    between atoms: C_22  and  C_23
REMARK   10  A    between atoms: C_28  and  C_30
REMARK   11  A    between atoms: C_35  and  O_36
REMARK   12  A    between atoms: O_36  and  C_37
REMARK                            x       y       z     vdW  Elec       q    Type
REMARK                         _______ _______ _______ _____ _____    ______ ____
ROOT
ATOM      1  C   UNL     1       1.044  -2.833  -4.859  0.00  0.00    +0.193 C 
ENDROOT
BRANCH   1   5
ATOM      2  C   UNL     1       1.317   1.391  -5.447  0.00  0.00    +0.029 A 
ATOM      3  C   UNL     1       2.463   0.608  -5.487  0.00  0.00    +0.023 A 
ATOM      4  C   UNL     1       2.371  -0.757  -5.296  0.00  0.00    +0.008 A 
ATOM      5  C   UNL     1       1.140  -1.344  -5.066  0.00  0.00    -0.018 A 
ATOM      6  C   UNL     1      -0.003  -0.567  -5.026  0.00  0.00    +0.008 A 
ATOM      7  C   UNL     1       0.082   0.800  -5.210  0.00  0.00    +0.023 A 
BRANCH   2   9
ATOM      8  C   UNL     1       0.197   3.598  -5.591  0.00  0.00    +0.129 C 
ATOM      9  N   UNL     1       1.406   2.772  -5.639  0.00  0.00    -0.336 N 
ATOM     10  C   UNL     1       2.708   3.394  -5.888  0.00  0.00    +0.129 C 
ENDBRANCH   2   9
ENDBRANCH   1   5
BRANCH   1  11
ATOM     11  C   UNL     1       2.319  -3.488  -5.324  0.00  0.00    +0.238 C 
ATOM     12  O   UNL     1       2.670  -3.382  -6.479  0.00  0.00    -0.273 OA
ATOM     13  N   UNL     1       3.070  -4.193  -4.454  0.00  0.00    -0.311 N 
ATOM     14  H   UNL     1       2.790  -4.278  -3.529  0.00  0.00    +0.149 HD
BRANCH  13  15
ATOM     15  C   UNL     1       4.310  -4.829  -4.905  0.00  0.00    +0.073 C 
ATOM     16  C   UNL     1       3.990  -6.198  -5.510  0.00  0.00    +0.022 C 
ATOM     17  C   UNL     1       5.285  -6.862  -5.981  0.00  0.00    +0.002 C 
ATOM     18  C   UNL     1       6.230  -7.040  -4.791  0.00  0.00    +0.000 C 
ATOM     19  C   UNL     1       6.550  -5.671  -4.186  0.00  0.00    +0.002 C 
ATOM     20  C   UNL     1       5.255  -5.007  -3.714  0.00  0.00    +0.022 C 
ENDBRANCH  13  15
ENDBRANCH   1  11
BRANCH   1  21
ATOM     21  N   UNL     1      -0.085  -3.361  -5.630  0.00  0.00    -0.275 N 
ATOM     22  C   UNL     1      -1.149  -3.888  -4.992  0.00  0.00    +0.251 C 
ATOM     23  O   UNL     1      -2.030  -4.433  -5.628  0.00  0.00    -0.270 OA
BRANCH  22  24
ATOM     24  C   UNL     1      -1.244  -3.803  -3.522  0.00  0.00    +0.078 A 
ATOM     25  C   UNL     1      -0.942  -2.607  -2.866  0.00  0.00    +0.017 A 
ATOM     26  C   UNL     1      -1.034  -2.534  -1.494  0.00  0.00    +0.001 A 
ATOM     27  C   UNL     1      -1.423  -3.643  -0.759  0.00  0.00    +0.004 A 
ATOM     28  C   UNL     1      -1.723  -4.831  -1.395  0.00  0.00    +0.046 A 
ATOM     29  C   UNL     1      -1.642  -4.921  -2.776  0.00  0.00    +0.132 A 
BRANCH  29  30
ATOM     30  O   UNL     1      -1.942  -6.086  -3.402  0.00  0.00    -0.494 OA
ATOM     31  C   UNL     1      -2.341  -7.182  -2.577  0.00  0.00    +0.277 C 
ENDBRANCH  29  30
ENDBRANCH  22  24
BRANCH  21  32
ATOM     32  C   UNL     1      -0.056  -3.317  -7.094  0.00  0.00    +0.183 C 
BRANCH  32  33
ATOM     33  C   UNL     1      -0.376  -4.683  -7.644  0.00  0.00    +0.122 A 
ATOM     34  C   UNL     1      -1.603  -5.141  -7.949  0.00  0.00    +0.046 A 
ATOM     35  C   UNL     1      -1.441  -6.461  -8.430  0.00  0.00    +0.041 A 
ATOM     36  C   UNL     1      -0.123  -6.730  -8.390  0.00  0.00    +0.195 A 
ATOM     37  O   UNL     1       0.517  -5.648  -7.919  0.00  0.00    -0.466 OA
ENDBRANCH  32  33
ENDBRANCH  21  32
ENDBRANCH   1  21
TORSDOF 9
