REMARK  Name = ZINC03173711
REMARK  4 active torsions:
REMARK  status: ('A' for Active; 'I' for Inactive)
REMARK    1  A    between atoms: C_3  and  N_18
REMARK    2  A    between atoms: C_6  and  C_7
REMARK    3  A    between atoms: N_8  and  N_9
REMARK    4  A    between atoms: C_10  and  C_12
REMARK                            x       y       z     vdW  Elec       q    Type
REMARK                         _______ _______ _______ _____ _____    ______ ____
ROOT
ATOM      1  C   UNL     1       6.015   4.592   0.731  0.00  0.00    +0.138 C 
ATOM      2  N   UNL     1       5.614   3.454   1.208  0.00  0.00    -0.188 NA
ENDROOT
BRANCH   1   8
ATOM      3  C   UNL     1       8.360   4.095   1.402  0.00  0.00    +0.012 A 
ATOM      4  C   UNL     1       9.692   4.447   1.468  0.00  0.00    +0.033 A 
ATOM      5  C   UNL     1      10.116   5.661   0.958  0.00  0.00    +0.126 A 
ATOM      6  C   UNL     1       9.210   6.529   0.374  0.00  0.00    +0.033 A 
ATOM      7  C   UNL     1       7.875   6.188   0.297  0.00  0.00    +0.012 A 
ATOM      8  C   UNL     1       7.440   4.963   0.809  0.00  0.00    -0.005 A 
BRANCH   5   9
ATOM      9  N   UNL     1      11.546   6.035   1.038  0.00  0.00    +0.056 N 
ATOM     10  O   UNL     1      11.923   7.103   0.590  0.00  0.00    -0.126 OA
ATOM     11  O   UNL     1      12.347   5.273   1.552  0.00  0.00    -0.126 OA
ENDBRANCH   5   9
ENDBRANCH   1   8
BRANCH   2  12
ATOM     12  N   UNL     1       4.260   3.101   1.133  0.00  0.00    -0.205 N 
ATOM     13  C   UNL     1       3.843   1.919   1.628  0.00  0.00    +0.255 C 
ATOM     14  O   UNL     1       4.641   1.160   2.139  0.00  0.00    -0.272 OA
ATOM     15  H   UNL     1       3.623   3.707   0.725  0.00  0.00    +0.177 HD
BRANCH  13  16
ATOM     16  C   UNL     1       2.387   1.539   1.548  0.00  0.00    +0.191 C 
ATOM     17  S   UNL     1       1.677   2.165  -0.002  0.00  0.00    -0.137 S 
ATOM     18  C   UNL     1      -0.019   1.520   0.010  0.00  0.00    +0.071 C 
ATOM     19  C   UNL     1       0.002  -0.004   0.002  0.00  0.00    +0.021 C 
ATOM     20  C   UNL     1       0.449  -0.548   1.354  0.00  0.00    +0.071 C 
ATOM     21  S   UNL     1       2.227  -0.270   1.579  0.00  0.00    -0.137 S 
ENDBRANCH  13  16
ENDBRANCH   2  12
TORSDOF 4
