REMARK  Name = ZINC11898708
REMARK  9 active torsions:
REMARK  status: ('A' for Active; 'I' for Inactive)
REMARK    1  A    between atoms: C_1  and  N_2
REMARK    2  A    between atoms: C_6  and  C_7
REMARK    3  A    between atoms: C_7  and  C_9
REMARK    4  A    between atoms: C_7  and  N_59
REMARK    5  A    between atoms: C_9  and  N_10
REMARK    6  A    between atoms: C_11  and  C_13
REMARK    7  A    between atoms: N_15  and  C_16
REMARK    8  A    between atoms: C_19  and  O_22
REMARK    9  A    between atoms: O_22  and  C_23
REMARK                            x       y       z     vdW  Elec       q    Type
REMARK                         _______ _______ _______ _____ _____    ______ ____
ROOT
ATOM      1  C   UNL     1       0.022  -2.606   0.675  0.00  0.00    +0.095 C 
ENDROOT
BRANCH   1   2
ATOM      2  N   UNL     1       0.219  -2.029  -0.657  0.00  0.00    -0.309 N 
ATOM      3  C   UNL     1       0.981  -2.671  -1.564  0.00  0.00    +0.299 C 
ATOM      4  O   UNL     1       1.505  -3.727  -1.278  0.00  0.00    -0.265 OA
ATOM      5  H   UNL     1      -0.200  -1.184  -0.886  0.00  0.00    +0.149 HD
BRANCH   3   6
ATOM      6  C   UNL     1       1.182  -2.082  -2.922  0.00  0.00    +0.303 C 
ATOM      7  O   UNL     1       0.658  -1.025  -3.208  0.00  0.00    -0.265 OA
ATOM      8  N   UNL     1       1.944  -2.724  -3.829  0.00  0.00    -0.278 N 
ATOM      9  H   UNL     1       2.301  -3.603  -3.627  0.00  0.00    +0.155 HD
BRANCH   8  10
ATOM     10  C   UNL     1       2.221  -2.122  -5.061  0.00  0.00    +0.034 A 
ATOM     11  C   UNL     1       2.356  -2.904  -6.202  0.00  0.00    +0.027 A 
ATOM     12  C   UNL     1       2.624  -2.309  -7.418  0.00  0.00    +0.047 A 
ATOM     13  C   UNL     1       2.769  -0.932  -7.500  0.00  0.00    +0.120 A 
ATOM     14  C   UNL     1       2.639  -0.151  -6.361  0.00  0.00    +0.047 A 
ATOM     15  C   UNL     1       2.366  -0.743  -5.145  0.00  0.00    +0.027 A 
BRANCH  13  16
ATOM     16  O   UNL     1       3.038  -0.347  -8.698  0.00  0.00    -0.495 OA
ATOM     17  C   UNL     1       3.158  -1.212  -9.829  0.00  0.00    +0.277 C 
ENDBRANCH  13  16
ENDBRANCH   8  10
ENDBRANCH   3   6
ENDBRANCH   1   2
BRANCH   1  18
ATOM     18  C   UNL     1      -0.750  -1.618   1.551  0.00  0.00    -0.003 C 
BRANCH  18  25
ATOM     19  C   UNL     1      -0.024   0.439   0.484  0.00  0.00    -0.078 C 
ATOM     20  C   UNL     1       0.116   1.885   0.889  0.00  0.00    -0.019 C 
ATOM     21  C   UNL     1       1.574   2.364   0.784  0.00  0.00    -0.002 C 
ATOM     22  C   UNL     1       2.568   1.301   1.292  0.00  0.00    -0.002 C 
ATOM     23  C   UNL     1       2.092   0.615   2.547  0.00  0.00    -0.019 C 
ATOM     24  C   UNL     1       1.327  -0.669   2.160  0.00  0.00    -0.078 C 
ATOM     25  N   UNL     1       0.003  -0.365   1.746  0.00  0.00    +0.386 N 
ATOM     26  H   UNL     1      -0.449   0.182   2.488  0.00  0.00    -0.081 HD
ENDBRANCH  18  25
BRANCH  18  32
ATOM     27  C   UNL     1      -2.107  -4.348   2.115  0.00  0.00    +0.148 C 
ATOM     28  N   UNL     1      -1.595  -3.434   3.139  0.00  0.00    -0.355 N 
ATOM     29  C   UNL     1      -1.634  -3.648   4.486  0.00  0.00    +0.085 A 
ATOM     30  C   UNL     1      -1.073  -2.585   5.098  0.00  0.00    +0.019 A 
ATOM     31  C   UNL     1      -0.668  -1.685   4.092  0.00  0.00    +0.021 A 
ATOM     32  C   UNL     1      -0.996  -2.232   2.904  0.00  0.00    +0.006 A 
ENDBRANCH  18  32
ENDBRANCH   1  18
TORSDOF 7
