REMARK  Name = ZINC22067440
REMARK  7 active torsions:
REMARK  status: ('A' for Active; 'I' for Inactive)
REMARK    1  A    between atoms: C_1  and  C_2
REMARK    2  A    between atoms: C_2  and  N_3
REMARK    3  A    between atoms: C_13  and  S_14
REMARK    4  A    between atoms: S_14  and  C_15
REMARK    5  A    between atoms: C_15  and  C_16
REMARK    6  A    between atoms: N_18  and  C_19
REMARK    7  A    between atoms: C_20  and  C_28
REMARK                            x       y       z     vdW  Elec       q    Type
REMARK                         _______ _______ _______ _____ _____    ______ ____
ROOT
ATOM      1  C   UNL     1      -5.219  -2.005   0.045  0.00  0.00    +0.228 C 
ATOM      2  O   UNL     1      -5.434  -3.199   0.041  0.00  0.00    -0.275 OA
ATOM      3  N   UNL     1      -6.248  -1.135   0.060  0.00  0.00    -0.279 N 
ATOM      4  H   UNL     1      -6.053  -0.053   0.063  0.00  0.00    +0.155 HD
ENDROOT
BRANCH   3   5
ATOM      5  C   UNL     1      -7.553  -1.604   0.070  0.00  0.00    +0.084 A 
ATOM      6  C   UNL     1      -8.732  -0.873   0.092  0.00  0.00    +0.068 A 
ATOM      7  C   UNL     1      -9.982  -1.614   0.096  0.00  0.00    -0.023 A 
ATOM      8  C   UNL     1      -9.853  -2.958   0.088  0.00  0.00    -0.004 A 
ATOM      9  S   UNL     1      -8.107  -3.246   0.068  0.00  0.00    -0.077 S 
ATOM     10  C   UNL     1     -10.957  -3.971   0.096  0.00  0.00    +0.043 C 
ATOM     11  C   UNL     1     -12.260  -3.263   0.492  0.00  0.00    +0.005 C 
ATOM     12  C   UNL     1     -12.398  -1.983  -0.338  0.00  0.00    +0.005 C 
ATOM     13  C   UNL     1     -11.356  -0.957   0.113  0.00  0.00    +0.037 C 
BRANCH   6  14
ATOM     14  C   UNL     1      -8.717   0.593   0.105  0.00  0.00    +0.244 C 
ATOM     15  O   UNL     1      -8.724   1.212  -0.943  0.00  0.00    -0.270 OA
ATOM     16  N   UNL     1      -8.695   1.256   1.279  0.00  0.00    -0.325 N 
ATOM     17  H   UNL     1      -8.684   2.356   1.289  0.00  0.00    +0.145 HD
ATOM     18  H   UNL     1      -8.689   0.697   2.226  0.00  0.00    +0.145 HD
ENDBRANCH   6  14
ENDBRANCH   3   5
BRANCH   1  19
ATOM     19  C   UNL     1      -3.801  -1.496   0.033  0.00  0.00    +0.173 C 
BRANCH  19  20
ATOM     20  S   UNL     1      -2.656  -2.897   0.014  0.00  0.00    -0.078 S 
BRANCH  20  31
ATOM     21  N   UNL     1       0.036  -2.766  -0.012  0.00  0.00    -0.288 N 
ATOM     22  C   UNL     1       1.239  -2.146  -0.021  0.00  0.00    +0.262 A 
ATOM     23  O   UNL     1       2.277  -2.782  -0.034  0.00  0.00    -0.267 OA
ATOM     24  C   UNL     1       1.245  -0.677  -0.013  0.00  0.00    +0.065 A 
ATOM     25  C   UNL     1       2.432   0.055  -0.021  0.00  0.00    +0.015 A 
ATOM     26  C   UNL     1       2.381   1.422  -0.013  0.00  0.00    +0.001 A 
ATOM     27  C   UNL     1       1.161   2.086   0.002  0.00  0.00    +0.002 A 
ATOM     28  C   UNL     1      -0.017   1.394   0.010  0.00  0.00    +0.028 A 
ATOM     29  C   UNL     1       0.002  -0.004   0.002  0.00  0.00    +0.079 A 
ATOM     30  N   UNL     1      -1.136  -0.726   0.009  0.00  0.00    -0.223 NA
ATOM     31  C   UNL     1      -1.119  -2.036   0.003  0.00  0.00    +0.173 A 
BRANCH  21  33
ATOM     32  C   UNL     1      -0.037  -4.746   1.421  0.00  0.00    +0.027 C 
ATOM     33  C   UNL     1      -0.028  -4.229  -0.019  0.00  0.00    +0.124 C 
ENDBRANCH  21  33
ENDBRANCH  20  31
ENDBRANCH  19  20
ENDBRANCH   1  19
TORSDOF 6
