REMARK  Name = ZINC16953105
REMARK  6 active torsions:
REMARK  status: ('A' for Active; 'I' for Inactive)
REMARK    1  A    between atoms: C_1  and  C_2
REMARK    2  A    between atoms: C_6  and  O_19
REMARK    3  A    between atoms: C_11  and  C_15
REMARK    4  A    between atoms: C_15  and  C_16
REMARK    5  A    between atoms: C_15  and  C_17
REMARK    6  A    between atoms: C_15  and  O_18
REMARK                            x       y       z     vdW  Elec       q    Type
REMARK                         _______ _______ _______ _____ _____    ______ ____
ROOT
ATOM      1  C   UNL     1      -0.773   3.123  -1.223  0.00  0.00    +0.011 C 
ATOM      2  C   UNL     1      -0.753   1.593  -1.232  0.00  0.00    -0.027 C 
ATOM      3  C   UNL     1      -0.013   1.086   0.008  0.00  0.00    +0.007 C 
ATOM      4  C   UNL     1      -0.729   1.579   1.267  0.00  0.00    +0.003 C 
ATOM      5  C   UNL     1      -2.164   1.050   1.278  0.00  0.00    +0.031 C 
ATOM      6  C   UNL     1      -2.904   1.556   0.038  0.00  0.00    +0.118 C 
ATOM      7  C   UNL     1      -2.188   1.063  -1.221  0.00  0.00    +0.024 C 
ATOM      8  C   UNL     1      -2.928   1.570  -2.460  0.00  0.00    +0.013 C 
ATOM      9  C   UNL     1      -2.212   1.077  -3.719  0.00  0.00    +0.021 C 
ATOM     10  C   UNL     1      -0.777   1.606  -3.730  0.00  0.00    +0.007 C 
ATOM     11  C   UNL     1      -0.037   1.099  -2.490  0.00  0.00    +0.007 C 
ENDROOT
BRANCH   9  12
ATOM     12  C   UNL     1      -2.952   1.583  -4.958  0.00  0.00    +0.063 C 
ATOM     13  C   UNL     1      -2.236   1.090  -6.217  0.00  0.00    +0.041 C 
ATOM     14  C   UNL     1      -4.387   1.054  -4.948  0.00  0.00    +0.041 C 
BRANCH  12  15
ATOM     15  O   UNL     1      -2.971   3.012  -4.951  0.00  0.00    -0.389 OA
ATOM     16  H   UNL     1      -3.411   3.395  -4.179  0.00  0.00    +0.210 HD
ENDBRANCH  12  15
ENDBRANCH   9  12
BRANCH   6  17
ATOM     17  O   UNL     1      -4.245   1.062   0.048  0.00  0.00    -0.391 OA
ATOM     18  H   UNL     1      -4.759   1.336   0.820  0.00  0.00    +0.210 HD
ENDBRANCH   6  17
TORSDOF 3
