REMARK  Name = ZINC36534354
REMARK  12 active torsions:
REMARK  status: ('A' for Active; 'I' for Inactive)
REMARK    1  A    between atoms: C_1  and  C_2
REMARK    2  A    between atoms: C_5  and  S_8
REMARK    3  A    between atoms: S_8  and  C_11
REMARK    4  A    between atoms: C_11  and  N_12
REMARK    5  A    between atoms: C_13  and  C_15
REMARK    6  A    between atoms: C_15  and  C_17
REMARK    7  A    between atoms: C_15  and  N_26
REMARK    8  A    between atoms: C_17  and  C_19
REMARK    9  A    between atoms: C_17  and  C_20
REMARK   10  A    between atoms: N_26  and  C_27
REMARK   11  A    between atoms: C_28  and  C_30
REMARK   12  A    between atoms: C_30  and  C_31
REMARK                            x       y       z     vdW  Elec       q    Type
REMARK                         _______ _______ _______ _____ _____    ______ ____
ROOT
ATOM      1  C   UNL     1       3.307  -4.928   3.494  0.00  0.00    +0.169 C 
ENDROOT
BRANCH   1   3
ATOM      2  N   UNL     1       2.030  -4.450   1.431  0.00  0.00    -0.295 N 
ATOM      3  C   UNL     1       2.546  -5.369   2.271  0.00  0.00    +0.235 C 
ATOM      4  O   UNL     1       2.398  -6.551   2.042  0.00  0.00    -0.274 OA
ATOM      5  H   UNL     1       2.080  -3.507   1.654  0.00  0.00    +0.150 HD
BRANCH   2   6
ATOM      6  C   UNL     1       1.396  -4.875   0.181  0.00  0.00    +0.278 C 
BRANCH   6   7
ATOM      7  S   UNL     1      -0.395  -5.019   0.430  0.00  0.00    +0.013 S 
ATOM      8  O   UNL     1      -0.666  -5.742   1.623  0.00  0.00    -0.168 OA
ATOM      9  O   UNL     1      -1.033  -5.369  -0.790  0.00  0.00    -0.168 OA
BRANCH   7  14
ATOM     10  C   UNL     1      -2.261   0.602   1.584  0.00  0.00    +0.044 C 
ATOM     11  C   UNL     1      -1.794  -0.801   1.296  0.00  0.00    -0.050 A 
ATOM     12  C   UNL     1      -1.758  -1.264  -0.006  0.00  0.00    +0.005 A 
ATOM     13  C   UNL     1      -1.330  -2.552  -0.271  0.00  0.00    +0.027 A 
ATOM     14  C   UNL     1      -0.939  -3.377   0.767  0.00  0.00    +0.090 A 
ATOM     15  C   UNL     1      -0.975  -2.914   2.069  0.00  0.00    +0.027 A 
ATOM     16  C   UNL     1      -1.399  -1.625   2.333  0.00  0.00    +0.005 A 
ENDBRANCH   7  14
ENDBRANCH   6   7
ENDBRANCH   2   6
ENDBRANCH   1   3
BRANCH   1  17
ATOM     17  N   UNL     1       3.420  -6.051   4.430  0.00  0.00    -0.292 N 
ATOM     18  C   UNL     1       4.097  -7.283   4.017  0.00  0.00    +0.133 C 
ATOM     19  C   UNL     1       2.902  -5.949   5.670  0.00  0.00    +0.220 C 
ATOM     20  O   UNL     1       2.342  -4.929   6.011  0.00  0.00    -0.275 OA
BRANCH  19  21
ATOM     21  C   UNL     1       3.018  -7.104   6.631  0.00  0.00    +0.131 C 
BRANCH  21  22
ATOM     22  C   UNL     1       2.363  -6.737   7.938  0.00  0.00    -0.035 A 
ATOM     23  C   UNL     1       3.103  -6.126   8.933  0.00  0.00    +0.008 A 
ATOM     24  C   UNL     1       2.506  -5.787  10.133  0.00  0.00    +0.050 A 
ATOM     25  C   UNL     1       1.163  -6.060  10.341  0.00  0.00    +0.166 A 
ATOM     26  C   UNL     1       0.418  -6.675   9.338  0.00  0.00    +0.166 A 
ATOM     27  C   UNL     1       1.021  -7.007   8.136  0.00  0.00    +0.053 A 
ATOM     28  O   UNL     1      -0.863  -6.834   9.782  0.00  0.00    -0.453 OA
ATOM     29  C   UNL     1      -0.796  -6.682  11.212  0.00  0.00    +0.466 C 
ATOM     30  O   UNL     1       0.349  -5.833  11.413  0.00  0.00    -0.453 OA
ENDBRANCH  21  22
ENDBRANCH  19  21
ENDBRANCH   1  17
BRANCH   1  31
ATOM     31  C   UNL     1       4.706  -4.463   3.085  0.00  0.00    +0.045 C 
ATOM     32  C   UNL     1       4.591  -3.219   2.201  0.00  0.00    +0.015 C 
BRANCH  31  33
ATOM     33  C   UNL     1       5.506  -4.130   4.319  0.00  0.00    -0.042 A 
ATOM     34  C   UNL     1       5.063  -3.149   5.186  0.00  0.00    +0.004 A 
ATOM     35  C   UNL     1       5.796  -2.844   6.317  0.00  0.00    +0.000 A 
ATOM     36  C   UNL     1       6.973  -3.520   6.581  0.00  0.00    +0.000 A 
ATOM     37  C   UNL     1       7.415  -4.502   5.714  0.00  0.00    +0.000 A 
ATOM     38  C   UNL     1       6.679  -4.810   4.585  0.00  0.00    +0.004 A 
ENDBRANCH  31  33
ENDBRANCH   1  31
TORSDOF 9
