REMARK  Name = ZINC66886358
REMARK  8 active torsions:
REMARK  status: ('A' for Active; 'I' for Inactive)
REMARK    1  A    between atoms: C_1  and  C_2
REMARK    2  A    between atoms: C_8  and  N_10
REMARK    3  A    between atoms: C_11  and  C_13
REMARK    4  A    between atoms: C_13  and  C_15
REMARK    5  A    between atoms: C_13  and  N_16
REMARK    6  A    between atoms: C_19  and  N_22
REMARK    7  A    between atoms: C_23  and  C_25
REMARK    8  A    between atoms: C_25  and  C_26
REMARK                            x       y       z     vdW  Elec       q    Type
REMARK                         _______ _______ _______ _____ _____    ______ ____
ROOT
ATOM      1  N   UNL     1       4.681   0.811   3.759  0.00  0.00    +0.387 N 
ATOM      2  C   UNL     1       4.748  -0.503   4.409  0.00  0.00    -0.076 C 
ATOM      3  C   UNL     1       5.162  -0.332   5.872  0.00  0.00    +0.004 C 
ATOM      4  C   UNL     1       6.537   0.340   5.933  0.00  0.00    +0.069 C 
ATOM      5  C   UNL     1       6.475   1.676   5.188  0.00  0.00    +0.004 C 
ATOM      6  C   UNL     1       6.012   1.431   3.750  0.00  0.00    -0.076 C 
ATOM      7  H   UNL     1       4.040   1.403   4.266  0.00  0.00    -0.081 HD
ENDROOT
BRANCH   4   8
ATOM      8  N   UNL     1       6.906   0.576   7.331  0.00  0.00    -0.313 N 
ATOM      9  C   UNL     1       8.204   0.673   7.678  0.00  0.00    +0.213 C 
ATOM     10  O   UNL     1       9.068   0.565   6.833  0.00  0.00    -0.276 OA
ATOM     11  H   UNL     1       6.215   0.661   8.007  0.00  0.00    +0.149 HD
BRANCH   9  12
ATOM     12  C   UNL     1       8.584   0.915   9.116  0.00  0.00    +0.099 C 
BRANCH  12  13
ATOM     13  C   UNL     1      10.107   0.984   9.238  0.00  0.00    -0.002 C 
ATOM     14  C   UNL     1      10.709  -0.378   8.884  0.00  0.00    +0.004 C 
ATOM     15  C   UNL     1      12.232  -0.310   9.005  0.00  0.00    +0.000 C 
ATOM     16  C   UNL     1      12.614   0.059  10.440  0.00  0.00    +0.000 C 
ATOM     17  C   UNL     1      12.013   1.421  10.793  0.00  0.00    +0.000 C 
ATOM     18  C   UNL     1      10.489   1.353  10.672  0.00  0.00    +0.004 C 
ENDBRANCH  12  13
ENDBRANCH   9  12
ENDBRANCH   4   8
BRANCH   1  19
ATOM     19  C   UNL     1       4.209   0.649   2.377  0.00  0.00    +0.016 C 
ATOM     20  C   UNL     1       4.186   2.013   1.683  0.00  0.00    -0.004 C 
BRANCH  19  22
ATOM     21  N   UNL     1       2.387  -0.665   1.341  0.00  0.00    -0.314 N 
ATOM     22  C   UNL     1       2.819   0.067   2.387  0.00  0.00    +0.199 C 
ATOM     23  O   UNL     1       2.088   0.258   3.336  0.00  0.00    -0.278 OA
ATOM     24  H   UNL     1       2.972  -0.817   0.582  0.00  0.00    +0.149 HD
BRANCH  21  31
ATOM     25  C   UNL     1       0.553  -0.113  -0.831  0.00  0.00    +0.009 C 
ATOM     26  C   UNL     1       0.565  -1.450  -0.089  0.00  0.00    +0.006 C 
ATOM     27  C   UNL     1      -0.846  -2.041  -0.079  0.00  0.00    +0.005 C 
ATOM     28  C   UNL     1      -0.834  -3.379   0.664  0.00  0.00    +0.000 C 
ATOM     29  C   UNL     1      -0.363  -3.159   2.103  0.00  0.00    +0.002 C 
ATOM     30  C   UNL     1       1.048  -2.568   2.093  0.00  0.00    +0.022 C 
ATOM     31  C   UNL     1       1.036  -1.230   1.350  0.00  0.00    +0.076 C 
ENDBRANCH  21  31
ENDBRANCH  19  22
ENDBRANCH   1  19
TORSDOF 6
