REMARK  Name = ZINC09088008
REMARK  8 active torsions:
REMARK  status: ('A' for Active; 'I' for Inactive)
REMARK    1  A    between atoms: C_1  and  O_2
REMARK    2  A    between atoms: O_2  and  C_3
REMARK    3  A    between atoms: C_6  and  C_11
REMARK    4  A    between atoms: C_7  and  O_9
REMARK    5  A    between atoms: O_9  and  C_10
REMARK    6  A    between atoms: C_23  and  S_25
REMARK    7  A    between atoms: S_25  and  C_26
REMARK    8  A    between atoms: C_26  and  C_27
REMARK                            x       y       z     vdW  Elec       q    Type
REMARK                         _______ _______ _______ _____ _____    ______ ____
ROOT
ATOM      1  C   UNL     1      -4.989  -2.621   0.037  0.00  0.00    +0.070 C 
ATOM      2  C   UNL     1      -5.766  -2.219   1.293  0.00  0.00    +0.109 C 
ATOM      3  C   UNL     1      -6.242  -0.797   1.164  0.00  0.00    +0.219 C 
ATOM      4  O   UNL     1      -6.289  -0.090   2.149  0.00  0.00    -0.275 OA
ATOM      5  N   UNL     1      -6.617  -0.299  -0.028  0.00  0.00    -0.270 N 
ATOM      6  C   UNL     1      -6.555  -1.081  -1.170  0.00  0.00    +0.137 A 
ATOM      7  C   UNL     1      -5.773  -2.224  -1.185  0.00  0.00    +0.065 A 
ATOM      8  C   UNL     1      -5.723  -3.000  -2.346  0.00  0.00    +0.258 A 
ATOM      9  O   UNL     1      -5.043  -4.013  -2.389  0.00  0.00    -0.267 OA
ATOM     10  N   UNL     1      -6.442  -2.606  -3.419  0.00  0.00    -0.302 N 
ATOM     11  H   UNL     1      -6.422  -3.129  -4.235  0.00  0.00    +0.171 HD
ATOM     12  C   UNL     1      -7.196  -1.473  -3.356  0.00  0.00    +0.172 A 
ATOM     13  N   UNL     1      -7.245  -0.738  -2.263  0.00  0.00    -0.208 NA
ATOM     14  H   UNL     1      -6.934   0.615  -0.089  0.00  0.00    +0.156 HD
ENDROOT
BRANCH   1  18
ATOM     15  C   UNL     1      -1.200  -0.637   0.010  0.00  0.00    +0.124 A 
ATOM     16  C   UNL     1      -2.375   0.102   0.019  0.00  0.00    +0.046 A 
ATOM     17  C   UNL     1      -3.597  -0.541   0.028  0.00  0.00    +0.011 A 
ATOM     18  C   UNL     1      -3.654  -1.922   0.027  0.00  0.00    +0.003 A 
ATOM     19  C   UNL     1      -2.483  -2.666   0.018  0.00  0.00    +0.127 A 
ATOM     20  C   UNL     1      -1.255  -2.022   0.003  0.00  0.00    +0.091 A 
BRANCH  15  22
ATOM     21  C   UNL     1      -0.017   1.425   0.010  0.00  0.00    +0.277 C 
ATOM     22  O   UNL     1       0.002  -0.004   0.002  0.00  0.00    -0.495 OA
ENDBRANCH  15  22
BRANCH  19  23
ATOM     23  O   UNL     1      -2.539  -4.024   0.017  0.00  0.00    -0.495 OA
ATOM     24  C   UNL     1      -1.294  -4.725   0.007  0.00  0.00    +0.277 C 
ENDBRANCH  19  23
ENDBRANCH   1  18
BRANCH  12  25
ATOM     25  S   UNL     1      -8.127  -0.978  -4.768  0.00  0.00    -0.075 S 
BRANCH  25  26
ATOM     26  C   UNL     1      -8.955   0.545  -4.236  0.00  0.00    +0.165 C 
BRANCH  26  27
ATOM     27  C   UNL     1      -9.776   1.069  -5.340  0.00  0.00    -0.094 C 
ATOM     28  C   UNL     1     -10.431   1.486  -6.221  0.00  0.00    +0.004 C 
ENDBRANCH  26  27
ENDBRANCH  25  26
ENDBRANCH  12  25
TORSDOF 6
