REMARK  Name = ZINC66926658
REMARK  10 active torsions:
REMARK  status: ('A' for Active; 'I' for Inactive)
REMARK    1  A    between atoms: C_1  and  C_2
REMARK    2  A    between atoms: C_2  and  C_4
REMARK    3  A    between atoms: C_2  and  N_13
REMARK    4  A    between atoms: C_6  and  C_9
REMARK    5  A    between atoms: C_9  and  C_10
REMARK    6  A    between atoms: C_9  and  C_11
REMARK    7  A    between atoms: C_9  and  C_12
REMARK    8  A    between atoms: N_16  and  C_17
REMARK    9  A    between atoms: C_17  and  C_18
REMARK   10  A    between atoms: C_18  and  O_28
REMARK                            x       y       z     vdW  Elec       q    Type
REMARK                         _______ _______ _______ _____ _____    ______ ____
ROOT
ATOM      1  N   UNL     1       0.822  -0.127   1.311  0.00  0.00    -0.291 N 
ATOM      2  C   UNL     1       0.118  -0.432   2.419  0.00  0.00    +0.300 C 
ATOM      3  O   UNL     1      -1.088  -0.281   2.434  0.00  0.00    -0.253 OA
ATOM      4  N   UNL     1       0.751  -0.905   3.511  0.00  0.00    -0.296 N 
ATOM      5  H   UNL     1       1.785  -0.247   1.300  0.00  0.00    +0.151 HD
ATOM      6  H   UNL     1       1.714  -1.025   3.499  0.00  0.00    +0.150 HD
ENDROOT
BRANCH   1   8
ATOM      7  C   UNL     1      -0.042   1.902   0.253  0.00  0.00    +0.035 C 
ATOM      8  C   UNL     1       0.134   0.387   0.124  0.00  0.00    +0.127 C 
BRANCH   8   9
ATOM      9  C   UNL     1       0.951   0.078  -1.103  0.00  0.00    +0.099 A 
ATOM     10  N   UNL     1       0.543  -0.394  -2.255  0.00  0.00    -0.247 NA
ATOM     11  C   UNL     1       1.387  -0.614  -3.244  0.00  0.00    +0.054 A 
ATOM     12  C   UNL     1       2.694  -0.329  -3.013  0.00  0.00    +0.070 A 
ATOM     13  S   UNL     1       2.609   0.263  -1.330  0.00  0.00    -0.078 S 
BRANCH  11  14
ATOM     14  C   UNL     1       0.921  -1.157  -4.570  0.00  0.00    +0.005 C 
ATOM     15  C   UNL     1       2.133  -1.422  -5.466  0.00  0.00    +0.017 C 
ATOM     16  C   UNL     1       0.157  -2.464  -4.346  0.00  0.00    +0.017 C 
ATOM     17  C   UNL     1       0.001  -0.138  -5.244  0.00  0.00    +0.017 C 
ENDBRANCH  11  14
ENDBRANCH   8   9
ENDBRANCH   1   8
BRANCH   4  18
ATOM     18  C   UNL     1      -0.014  -1.237   4.715  0.00  0.00    +0.145 C 
BRANCH  18  19
ATOM     19  C   UNL     1       0.916  -1.870   5.752  0.00  0.00    +0.107 C 
ATOM     20  C   UNL     1       1.588  -3.099   5.141  0.00  0.00    +0.041 C 
ATOM     21  C   UNL     1       2.341  -3.841   6.252  0.00  0.00    +0.008 C 
ATOM     22  C   UNL     1       1.314  -4.471   7.191  0.00  0.00    +0.035 C 
ATOM     23  C   UNL     1       0.301  -3.447   7.632  0.00  0.00    -0.041 A 
ATOM     24  C   UNL     1       0.115  -2.254   6.969  0.00  0.00    -0.011 A 
ATOM     25  C   UNL     1      -0.841  -1.356   7.423  0.00  0.00    +0.007 A 
ATOM     26  C   UNL     1      -1.604  -1.647   8.536  0.00  0.00    +0.000 A 
ATOM     27  C   UNL     1      -1.415  -2.842   9.204  0.00  0.00    +0.000 A 
ATOM     28  C   UNL     1      -0.467  -3.737   8.752  0.00  0.00    +0.004 A 
BRANCH  19  29
ATOM     29  O   UNL     1       1.918  -0.923   6.127  0.00  0.00    -0.382 OA
ATOM     30  H   UNL     1       1.566  -0.111   6.516  0.00  0.00    +0.211 HD
ENDBRANCH  19  29
ENDBRANCH  18  19
ENDBRANCH   4  18
TORSDOF 6
