REMARK  Name = ZINC65417033
REMARK  10 active torsions:
REMARK  status: ('A' for Active; 'I' for Inactive)
REMARK    1  A    between atoms: C_1  and  C_2
REMARK    2  A    between atoms: C_4  and  C_8
REMARK    3  A    between atoms: C_5  and  C_7
REMARK    4  A    between atoms: C_8  and  C_9
REMARK    5  A    between atoms: C_8  and  N_10
REMARK    6  A    between atoms: N_13  and  C_14
REMARK    7  A    between atoms: C_17  and  N_20
REMARK    8  A    between atoms: N_20  and  C_21
REMARK    9  A    between atoms: C_22  and  O_24
REMARK   10  A    between atoms: O_24  and  C_25
REMARK                            x       y       z     vdW  Elec       q    Type
REMARK                         _______ _______ _______ _____ _____    ______ ____
ROOT
ATOM      1  N   UNL     1      -2.761  -3.096  -0.576  0.00  0.00    -0.292 N 
ATOM      2  C   UNL     1      -3.476  -4.081  -1.155  0.00  0.00    +0.304 C 
ATOM      3  O   UNL     1      -3.035  -5.214  -1.188  0.00  0.00    -0.252 OA
ATOM      4  N   UNL     1      -4.680  -3.811  -1.698  0.00  0.00    -0.269 N 
ATOM      5  H   UNL     1      -3.113  -2.193  -0.550  0.00  0.00    +0.151 HD
ATOM      6  H   UNL     1      -5.059  -2.922  -1.618  0.00  0.00    +0.156 HD
ENDROOT
BRANCH   4   7
ATOM      7  C   UNL     1      -5.383  -4.814  -2.377  0.00  0.00    +0.035 A 
ATOM      8  C   UNL     1      -6.147  -4.494  -3.491  0.00  0.00    +0.025 A 
ATOM      9  C   UNL     1      -6.841  -5.482  -4.161  0.00  0.00    +0.025 A 
ATOM     10  C   UNL     1      -6.774  -6.797  -3.720  0.00  0.00    +0.039 A 
ATOM     11  C   UNL     1      -6.010  -7.118  -2.606  0.00  0.00    +0.025 A 
ATOM     12  C   UNL     1      -5.312  -6.130  -1.940  0.00  0.00    +0.025 A 
BRANCH  10  13
ATOM     13  N   UNL     1      -7.478  -7.801  -4.399  0.00  0.00    -0.240 N 
ATOM     14  C   UNL     1      -6.768  -8.975  -4.913  0.00  0.00    +0.142 C 
ATOM     15  C   UNL     1      -8.809  -7.686  -4.579  0.00  0.00    +0.407 C 
ATOM     16  O   UNL     1      -9.413  -6.761  -4.073  0.00  0.00    -0.226 OA
BRANCH  15  17
ATOM     17  O   UNL     1      -9.468  -8.596  -5.321  0.00  0.00    -0.453 OA
ATOM     18  C   UNL     1     -10.878  -8.412  -5.470  0.00  0.00    +0.282 C 
ENDBRANCH  15  17
ENDBRANCH  10  13
ENDBRANCH   4   7
BRANCH   1  19
ATOM     19  C   UNL     1      -1.453  -3.390   0.014  0.00  0.00    +0.105 C 
ATOM     20  C   UNL     1      -1.641  -3.895   1.446  0.00  0.00    +0.033 C 
BRANCH  19  24
ATOM     21  C   UNL     1      -0.029   1.501   0.061  0.00  0.00    +0.086 C 
ATOM     22  C   UNL     1      -0.010  -0.006   0.049  0.00  0.00    +0.103 A 
ATOM     23  C   UNL     1      -1.091  -0.806   0.036  0.00  0.00    +0.050 A 
ATOM     24  C   UNL     1      -0.616  -2.137   0.029  0.00  0.00    +0.013 A 
ATOM     25  C   UNL     1       0.728  -2.071   0.038  0.00  0.00    +0.107 A 
ATOM     26  O   UNL     1       1.089  -0.777   0.044  0.00  0.00    -0.465 OA
ATOM     27  C   UNL     1       1.669  -3.248   0.035  0.00  0.00    +0.086 C 
ENDBRANCH  19  24
ENDBRANCH   1  19
TORSDOF 5
