REMARK  Name = ZINC21132031
REMARK  5 active torsions:
REMARK  status: ('A' for Active; 'I' for Inactive)
REMARK    1  A    between atoms: C_3  and  N_10
REMARK    2  A    between atoms: C_5  and  N_7
REMARK    3  A    between atoms: C_11  and  C_13
REMARK    4  A    between atoms: C_13  and  C_14
REMARK    5  A    between atoms: N_20  and  C_21
REMARK                            x       y       z     vdW  Elec       q    Type
REMARK                         _______ _______ _______ _____ _____    ______ ____
ROOT
ATOM      1  C   UNL     1       1.280   1.980   0.007  0.00  0.00    +0.120 C 
ENDROOT
BRANCH   1   2
ATOM      2  C   UNL     1       2.457   1.002  -0.013  0.00  0.00    +0.149 C 
ATOM      3  C   UNL     1       3.783   1.734   0.110  0.00  0.00    +0.232 C 
ATOM      4  O   UNL     1       4.068   2.390   1.089  0.00  0.00    -0.274 OA
ATOM      5  N   UNL     1       4.607   1.611  -0.917  0.00  0.00    -0.264 N 
ATOM      6  C   UNL     1       4.286   0.865  -2.034  0.00  0.00    +0.157 C 
ATOM      7  N   UNL     1       5.005   0.667  -3.103  0.00  0.00    -0.260 NA
ATOM      8  S   UNL     1       2.655   0.235  -1.670  0.00  0.00    -0.077 S 
ATOM      9  H   UNL     1       5.586   2.112  -0.900  0.00  0.00    +0.157 HD
BRANCH   7  10
ATOM     10  C   UNL     1       4.485  -0.164  -4.192  0.00  0.00    +0.108 C 
ATOM     11  C   UNL     1       5.445  -1.340  -4.464  0.00  0.00    +0.027 C 
ATOM     12  C   UNL     1       5.407  -1.512  -6.004  0.00  0.00    +0.002 C 
ATOM     13  C   UNL     1       5.332  -0.050  -6.510  0.00  0.00    +0.002 C 
ATOM     14  C   UNL     1       4.412   0.656  -5.492  0.00  0.00    +0.027 C 
ENDBRANCH   7  10
ENDBRANCH   1   2
BRANCH   1  16
ATOM     15  N   UNL     1      -1.191   1.867   0.018  0.00  0.00    -0.285 N 
ATOM     16  C   UNL     1      -0.014   1.209   0.007  0.00  0.00    +0.219 C 
ATOM     17  O   UNL     1       0.002  -0.004  -0.008  0.00  0.00    -0.275 OA
ATOM     18  H   UNL     1      -1.207   2.963   0.108  0.00  0.00    +0.155 HD
BRANCH  15  21
ATOM     19  C   UNL     1      -3.696  -0.798   0.395  0.00  0.00    +0.004 A 
ATOM     20  C   UNL     1      -2.510  -0.099   0.499  0.00  0.00    +0.023 A 
ATOM     21  C   UNL     1      -2.391   1.155  -0.086  0.00  0.00    +0.036 A 
ATOM     22  C   UNL     1      -3.468   1.704  -0.769  0.00  0.00    +0.056 A 
ATOM     23  C   UNL     1      -4.650   0.997  -0.874  0.00  0.00    +0.128 A 
ATOM     24  C   UNL     1      -4.765  -0.251  -0.290  0.00  0.00    +0.033 A 
BRANCH  23  25
ATOM     25  N   UNL     1      -5.797   1.579  -1.607  0.00  0.00    +0.056 N 
ATOM     26  O   UNL     1      -6.841   0.958  -1.696  0.00  0.00    -0.126 OA
ATOM     27  O   UNL     1      -5.697   2.679  -2.122  0.00  0.00    -0.126 OA
ENDBRANCH  23  25
ENDBRANCH  15  21
ENDBRANCH   1  16
TORSDOF 5
