REMARK  Name = ZINC13417332
REMARK  9 active torsions:
REMARK  status: ('A' for Active; 'I' for Inactive)
REMARK    1  A    between atoms: C_1  and  C_2
REMARK    2  A    between atoms: C_2  and  C_3
REMARK    3  A    between atoms: C_3  and  C_5
REMARK    4  A    between atoms: C_3  and  C_6
REMARK    5  A    between atoms: C_9  and  N_12
REMARK    6  A    between atoms: C_13  and  C_15
REMARK    7  A    between atoms: C_15  and  N_16
REMARK    8  A    between atoms: C_23  and  C_28
REMARK    9  A    between atoms: C_24  and  C_26
REMARK                            x       y       z     vdW  Elec       q    Type
REMARK                         _______ _______ _______ _____ _____    ______ ____
ROOT
ATOM      1  C   UNL     1      -1.262  -0.745   0.011  0.00  0.00    +0.222 C 
ENDROOT
BRANCH   1   2
ATOM      2  N   UNL     1       0.003  -0.007   0.002  0.00  0.00    -0.290 N 
ATOM      3  C   UNL     1       1.172  -0.694  -0.021  0.00  0.00    +0.203 A 
ATOM      4  N   UNL     1       2.328  -0.088  -0.029  0.00  0.00    -0.230 NA
ATOM      5  C   UNL     1       2.421   1.236  -0.015  0.00  0.00    +0.116 A 
ATOM      6  C   UNL     1       1.274   2.063   0.010  0.00  0.00    +0.076 A 
ATOM      7  C   UNL     1      -0.018   1.340   0.018  0.00  0.00    +0.263 A 
ATOM      8  O   UNL     1      -1.074   1.948   0.034  0.00  0.00    -0.267 OA
ATOM      9  C   UNL     1       1.517   3.438   0.022  0.00  0.00    -0.015 A 
ATOM     10  C   UNL     1       2.800   3.901   0.010  0.00  0.00    +0.106 A 
ATOM     11  S   UNL     1       3.762   2.398  -0.019  0.00  0.00    -0.062 S 
ATOM     12  C   UNL     1       0.364   4.408   0.047  0.00  0.00    +0.046 C 
BRANCH  10  13
ATOM     13  C   UNL     1       3.272   5.288   0.019  0.00  0.00    +0.393 C 
ATOM     14  O   UNL     1       2.470   6.202   0.039  0.00  0.00    -0.240 OA
ATOM     15  O   UNL     1       4.595   5.551   0.004  0.00  0.00    -0.240 OA
ENDBRANCH  10  13
ENDBRANCH   1   2
BRANCH   1  17
ATOM     16  N   UNL     1      -2.863  -1.646  -1.645  0.00  0.00    -0.284 N 
ATOM     17  C   UNL     1      -1.715  -0.981  -1.407  0.00  0.00    +0.237 C 
ATOM     18  O   UNL     1      -1.046  -0.574  -2.333  0.00  0.00    -0.274 OA
ATOM     19  H   UNL     1      -3.363  -2.030  -0.908  0.00  0.00    +0.155 HD
BRANCH  16  23
ATOM     20  C   UNL     1      -4.263  -2.052  -5.548  0.00  0.00    -0.044 A 
ATOM     21  C   UNL     1      -2.903  -2.068  -5.298  0.00  0.00    +0.006 A 
ATOM     22  C   UNL     1      -2.436  -1.934  -4.005  0.00  0.00    +0.023 A 
ATOM     23  C   UNL     1      -3.333  -1.782  -2.956  0.00  0.00    +0.033 A 
ATOM     24  C   UNL     1      -4.699  -1.771  -3.211  0.00  0.00    +0.023 A 
ATOM     25  C   UNL     1      -5.159  -1.901  -4.506  0.00  0.00    +0.006 A 
BRANCH  20  26
ATOM     26  C   UNL     1      -4.770  -2.199  -6.960  0.00  0.00    +0.016 C 
ATOM     27  C   UNL     1      -5.661  -3.439  -7.056  0.00  0.00    +0.012 C 
BRANCH  26  29
ATOM     28  C   UNL     1      -5.988  -1.050  -8.815  0.00  0.00    +0.004 C 
ATOM     29  C   UNL     1      -5.579  -0.958  -7.343  0.00  0.00    +0.004 C 
ENDBRANCH  26  29
ENDBRANCH  20  26
ENDBRANCH  16  23
ENDBRANCH   1  17
TORSDOF 6
