REMARK  Name = ZINC23344446
REMARK  8 active torsions:
REMARK  status: ('A' for Active; 'I' for Inactive)
REMARK    1  A    between atoms: C_4  and  N_7
REMARK    2  A    between atoms: C_9  and  C_12
REMARK    3  A    between atoms: C_12  and  C_13
REMARK    4  A    between atoms: C_13  and  O_15
REMARK    5  A    between atoms: O_15  and  C_16
REMARK    6  A    between atoms: C_16  and  C_17
REMARK    7  A    between atoms: N_19  and  C_20
REMARK    8  A    between atoms: C_21  and  C_28
REMARK                            x       y       z     vdW  Elec       q    Type
REMARK                         _______ _______ _______ _____ _____    ______ ____
ROOT
ATOM      1  C   UNL     1       0.081  -3.759   3.119  0.00  0.00    +0.255 C 
ATOM      2  O   UNL     1       0.081  -4.414   2.098  0.00  0.00    -0.272 OA
ATOM      3  N   UNL     1       0.101  -4.377   4.316  0.00  0.00    -0.277 N 
ATOM      4  H   UNL     1       0.101  -3.783   5.242  0.00  0.00    +0.155 HD
ENDROOT
BRANCH   3   5
ATOM      5  C   UNL     1       0.120  -5.762   4.381  0.00  0.00    +0.084 A 
ATOM      6  C   UNL     1       0.147  -6.571   5.505  0.00  0.00    +0.068 A 
ATOM      7  C   UNL     1       0.159  -8.018   5.297  0.00  0.00    -0.023 A 
ATOM      8  C   UNL     1       0.153  -8.411   4.011  0.00  0.00    -0.004 A 
ATOM      9  S   UNL     1       0.124  -6.900   3.077  0.00  0.00    -0.077 S 
ATOM     10  C   UNL     1       0.169  -9.910   3.878  0.00  0.00    +0.043 C 
ATOM     11  C   UNL     1      -0.249 -10.428   5.272  0.00  0.00    +0.010 C 
ATOM     12  C   UNL     1       0.186  -9.264   6.184  0.00  0.00    +0.037 C 
BRANCH   6  13
ATOM     13  C   UNL     1       0.158  -5.996   6.854  0.00  0.00    +0.244 C 
ATOM     14  O   UNL     1      -0.891  -5.772   7.429  0.00  0.00    -0.270 OA
ATOM     15  N   UNL     1       1.331  -5.716   7.457  0.00  0.00    -0.325 N 
ATOM     16  H   UNL     1       1.339  -5.285   8.469  0.00  0.00    +0.145 HD
ATOM     17  H   UNL     1       2.279  -5.918   6.937  0.00  0.00    +0.145 HD
ENDBRANCH   6  13
ENDBRANCH   3   5
BRANCH   1  18
ATOM     18  C   UNL     1       0.060  -2.254   3.048  0.00  0.00    +0.328 C 
BRANCH  18  19
ATOM     19  O   UNL     1       0.042  -1.835   1.658  0.00  0.00    -0.455 OA
BRANCH  19  20
ATOM     20  C   UNL     1       0.022  -0.514   1.420  0.00  0.00    +0.312 C 
ATOM     21  O   UNL     1       0.020   0.266   2.343  0.00  0.00    -0.250 OA
BRANCH  20  22
ATOM     22  C   UNL     1       0.002  -0.004   0.002  0.00  0.00    +0.158 C 
BRANCH  22  25
ATOM     23  N   UNL     1      -0.716   3.573   0.027  0.00  0.00    -0.240 N 
ATOM     24  C   UNL     1      -1.123   2.284   0.019  0.00  0.00    +0.118 A 
ATOM     25  C   UNL     1      -0.018   1.503   0.010  0.00  0.00    +0.001 A 
ATOM     26  C   UNL     1       1.102   2.341   0.004  0.00  0.00    +0.139 A 
ATOM     27  N   UNL     1       0.685   3.582   0.014  0.00  0.00    -0.175 NA
BRANCH  23  31
ATOM     28  C   UNL     1      -3.189   6.928   0.066  0.00  0.00    +0.000 A 
ATOM     29  C   UNL     1      -1.816   7.084   0.054  0.00  0.00    +0.002 A 
ATOM     30  C   UNL     1      -0.993   5.974   0.041  0.00  0.00    +0.028 A 
ATOM     31  C   UNL     1      -1.548   4.701   0.040  0.00  0.00    +0.065 A 
ATOM     32  C   UNL     1      -2.928   4.548   0.045  0.00  0.00    +0.028 A 
ATOM     33  C   UNL     1      -3.744   5.662   0.065  0.00  0.00    +0.002 A 
ENDBRANCH  23  31
ENDBRANCH  22  25
ENDBRANCH  20  22
ENDBRANCH  19  20
ENDBRANCH  18  19
ENDBRANCH   1  18
TORSDOF 8
