REMARK  Name = ZINC09423575
REMARK  10 active torsions:
REMARK  status: ('A' for Active; 'I' for Inactive)
REMARK    1  A    between atoms: C_1  and  C_2
REMARK    2  A    between atoms: C_2  and  C_3
REMARK    3  A    between atoms: C_3  and  C_4
REMARK    4  A    between atoms: C_4  and  N_55
REMARK    5  A    between atoms: C_5  and  N_55
REMARK    6  A    between atoms: C_6  and  C_7
REMARK    7  A    between atoms: C_6  and  N_55
REMARK    8  A    between atoms: C_8  and  O_28
REMARK    9  A    between atoms: C_15  and  C_16
REMARK   10  A    between atoms: N_18  and  C_25
REMARK                            x       y       z     vdW  Elec       q    Type
REMARK                         _______ _______ _______ _____ _____    ______ ____
ROOT
ATOM      1  C   UNL     1       3.260  -3.589  -0.463  0.00  0.00    +0.020 A 
ATOM      2  C   UNL     1       4.642  -3.655  -0.543  0.00  0.00    +0.122 A 
ATOM      3  C   UNL     1       5.410  -2.496  -0.490  0.00  0.00    +0.046 A 
ATOM      4  C   UNL     1       4.807  -1.276  -0.359  0.00  0.00    +0.019 A 
ATOM      5  C   UNL     1       3.418  -1.194  -0.278  0.00  0.00    +0.068 A 
ATOM      6  C   UNL     1       2.633  -2.358  -0.329  0.00  0.00    +0.144 A 
ATOM      7  O   UNL     1       1.332  -2.010  -0.225  0.00  0.00    -0.451 OA
ATOM      8  C   UNL     1       1.186  -0.669  -0.115  0.00  0.00    +0.176 C 
ATOM      9  C   UNL     1       0.002  -0.004   0.002  0.00  0.00    +0.060 C 
ATOM     10  C   UNL     1       2.474  -0.071  -0.136  0.00  0.00    +0.231 C 
ATOM     11  O   UNL     1       2.742   1.116  -0.055  0.00  0.00    -0.283 OA
ENDROOT
BRANCH   9  12
ATOM     12  C   UNL     1      -0.006   1.431   0.278  0.00  0.00    +0.004 A 
ATOM     13  C   UNL     1       0.825   2.112   1.141  0.00  0.00    +0.094 A 
ATOM     14  N   UNL     1       0.511   3.431   1.125  0.00  0.00    -0.349 N 
ATOM     15  C   UNL     1      -0.534   3.670   0.256  0.00  0.00    +0.049 A 
ATOM     16  C   UNL     1      -0.901   2.442  -0.317  0.00  0.00    +0.007 A 
ATOM     17  C   UNL     1      -1.936   2.387  -1.247  0.00  0.00    +0.010 A 
ATOM     18  C   UNL     1      -2.595   3.543  -1.604  0.00  0.00    +0.001 A 
ATOM     19  C   UNL     1      -2.231   4.758  -1.042  0.00  0.00    +0.002 A 
ATOM     20  C   UNL     1      -1.214   4.825  -0.114  0.00  0.00    +0.026 A 
ATOM     21  C   UNL     1       1.187   4.459   1.920  0.00  0.00    +0.149 C 
ENDBRANCH   9  12
BRANCH   2  22
ATOM     22  O   UNL     1       5.251  -4.862  -0.672  0.00  0.00    -0.506 OA
ATOM     23  H   UNL     1       5.380  -5.140  -1.589  0.00  0.00    +0.292 HD
ENDBRANCH   2  22
BRANCH   1  24
ATOM     24  C   UNL     1       2.439  -4.852  -0.521  0.00  0.00    -0.036 C 
BRANCH  24  26
ATOM     25  C   UNL     1       3.301  -5.479  -2.695  0.00  0.00    -0.096 C 
ATOM     26  N   UNL     1       2.087  -5.127  -1.930  0.00  0.00    +0.381 N 
ATOM     27  H   UNL     1       1.668  -4.284  -2.339  0.00  0.00    -0.082 HD
BRANCH  26  28
ATOM     28  C   UNL     1       1.108  -6.232  -1.999  0.00  0.00    -0.079 C 
BRANCH  28  29
ATOM     29  C   UNL     1       0.594  -6.346  -3.435  0.00  0.00    -0.019 C 
BRANCH  29  31
ATOM     30  C   UNL     1      -0.952  -7.588  -4.956  0.00  0.00    +0.004 C 
ATOM     31  C   UNL     1      -0.438  -7.473  -3.519  0.00  0.00    -0.005 C 
ENDBRANCH  29  31
ENDBRANCH  28  29
ENDBRANCH  26  28
ENDBRANCH  24  26
ENDBRANCH   1  24
TORSDOF 7
