REMARK  Name = ZINC36864858
REMARK  5 active torsions:
REMARK  status: ('A' for Active; 'I' for Inactive)
REMARK    1  A    between atoms: C_1  and  C_2
REMARK    2  A    between atoms: C_3  and  C_9
REMARK    3  A    between atoms: C_4  and  C_8
REMARK    4  A    between atoms: C_9  and  N_10
REMARK    5  A    between atoms: N_10  and  C_11
REMARK                            x       y       z     vdW  Elec       q    Type
REMARK                         _______ _______ _______ _____ _____    ______ ____
ROOT
ATOM      1  C   UNL     1      -0.006  -0.327  -2.527  0.00  0.00    +0.140 C 
ENDROOT
BRANCH   1   4
ATOM      2  C   UNL     1      -0.018   1.503   0.010  0.00  0.00    +0.065 C 
ATOM      3  C   UNL     1       0.002  -0.004   0.002  0.00  0.00    +0.038 A 
ATOM      4  C   UNL     1       0.008  -0.796  -1.095  0.00  0.00    +0.013 A 
ATOM      5  C   UNL     1       0.028  -2.127  -0.666  0.00  0.00    +0.065 A 
ATOM      6  N   UNL     1       0.035  -2.134   0.643  0.00  0.00    -0.179 NA
ATOM      7  N   UNL     1       0.024  -0.805   1.088  0.00  0.00    -0.281 N 
ATOM      8  H   UNL     1       0.029  -0.513   2.013  0.00  0.00    +0.189 HD
ATOM      9  C   UNL     1       0.040  -3.343  -1.556  0.00  0.00    +0.068 C 
ENDBRANCH   1   4
BRANCH   1  10
ATOM     10  N   UNL     1       1.371  -0.155  -2.998  0.00  0.00    -0.337 N 
ATOM     11  H   UNL     1       2.114  -0.341  -2.403  0.00  0.00    +0.146 HD
BRANCH  10  12
ATOM     12  C   UNL     1       1.615   0.280  -4.315  0.00  0.00    +0.065 A 
ATOM     13  C   UNL     1       2.835   0.474  -4.878  0.00  0.00    +0.127 A 
ATOM     14  N   UNL     1       2.633   0.892  -6.157  0.00  0.00    -0.283 N 
ATOM     15  H   UNL     1       3.324   1.109  -6.802  0.00  0.00    +0.188 HD
ATOM     16  N   UNL     1       1.251   0.953  -6.376  0.00  0.00    -0.180 NA
ATOM     17  C   UNL     1       0.643   0.583  -5.278  0.00  0.00    +0.157 A 
ENDBRANCH  10  12
ENDBRANCH   1  10
TORSDOF 3
