REMARK  Name = ZINC12950171
REMARK  7 active torsions:
REMARK  status: ('A' for Active; 'I' for Inactive)
REMARK    1  A    between atoms: C_1  and  C_2
REMARK    2  A    between atoms: C_2  and  C_4
REMARK    3  A    between atoms: C_2  and  N_14
REMARK    4  A    between atoms: C_15  and  C_17
REMARK    5  A    between atoms: C_17  and  C_18
REMARK    6  A    between atoms: C_18  and  C_20
REMARK    7  A    between atoms: C_18  and  N_27
REMARK                            x       y       z     vdW  Elec       q    Type
REMARK                         _______ _______ _______ _____ _____    ______ ____
ROOT
ATOM      1  N   UNL     1      -4.390  -0.312  -1.248  0.00  0.00    -0.309 N 
ATOM      2  C   UNL     1      -5.496  -0.957  -1.671  0.00  0.00    +0.216 C 
ATOM      3  O   UNL     1      -5.640  -2.136  -1.428  0.00  0.00    -0.276 OA
ATOM      4  H   UNL     1      -4.275   0.631  -1.442  0.00  0.00    +0.149 HD
ENDROOT
BRANCH   1   6
ATOM      5  C   UNL     1      -3.737  -1.059   0.987  0.00  0.00    +0.033 C 
ATOM      6  C   UNL     1      -3.362  -1.036  -0.496  0.00  0.00    +0.100 C 
BRANCH   6   7
ATOM      7  C   UNL     1      -2.034  -0.345  -0.667  0.00  0.00    -0.024 A 
ATOM      8  C   UNL     1      -1.969   1.036  -0.665  0.00  0.00    +0.009 A 
ATOM      9  C   UNL     1      -0.754   1.674  -0.826  0.00  0.00    +0.050 A 
ATOM     10  C   UNL     1       0.406   0.929  -0.985  0.00  0.00    +0.162 A 
ATOM     11  C   UNL     1       0.341  -0.459  -0.986  0.00  0.00    +0.162 A 
ATOM     12  C   UNL     1      -0.883  -1.093  -0.828  0.00  0.00    +0.055 A 
ATOM     13  O   UNL     1       1.466  -1.209  -1.140  0.00  0.00    -0.485 OA
ATOM     14  C   UNL     1       2.616  -0.542  -1.670  0.00  0.00    +0.270 C 
ATOM     15  C   UNL     1       2.779   0.794  -0.932  0.00  0.00    +0.270 C 
ATOM     16  O   UNL     1       1.595   1.571  -1.144  0.00  0.00    -0.485 OA
ENDBRANCH   6   7
ENDBRANCH   1   6
BRANCH   2  17
ATOM     17  C   UNL     1      -6.553  -0.212  -2.445  0.00  0.00    +0.123 C 
BRANCH  17  18
ATOM     18  C   UNL     1      -7.693  -1.169  -2.801  0.00  0.00    +0.115 C 
BRANCH  18  19
ATOM     19  C   UNL     1      -8.690  -0.457  -3.678  0.00  0.00    -0.008 A 
ATOM     20  C   UNL     1      -8.660   0.921  -3.782  0.00  0.00    +0.007 A 
ATOM     21  C   UNL     1      -9.572   1.574  -4.590  0.00  0.00    +0.000 A 
ATOM     22  C   UNL     1     -10.521   0.850  -5.287  0.00  0.00    +0.001 A 
ATOM     23  C   UNL     1     -10.556  -0.528  -5.180  0.00  0.00    +0.020 A 
ATOM     24  C   UNL     1      -9.640  -1.182  -4.375  0.00  0.00    +0.046 A 
ATOM     25 CL   UNL     1      -9.683  -2.912  -4.240  0.00  0.00    -0.083 Cl
ENDBRANCH  18  19
BRANCH  18  26
ATOM     26  N   UNL     1      -8.355  -1.618  -1.574  0.00  0.00    -0.292 N 
ATOM     27  C   UNL     1      -8.867  -0.714  -0.715  0.00  0.00    +0.298 C 
ATOM     28  O   UNL     1      -8.860   0.468  -1.000  0.00  0.00    -0.253 OA
ATOM     29  N   UNL     1      -9.386  -1.121   0.461  0.00  0.00    -0.313 N 
ATOM     30  H   UNL     1      -8.425  -2.566  -1.380  0.00  0.00    +0.151 HD
ATOM     31  H   UNL     1      -9.392  -2.064   0.688  0.00  0.00    +0.146 HD
ATOM     32  H   UNL     1      -9.755  -0.471   1.079  0.00  0.00    +0.146 HD
ENDBRANCH  18  26
ENDBRANCH  17  18
ENDBRANCH   2  17
TORSDOF 6
