REMARK  Name = ZINC08636258
REMARK  9 active torsions:
REMARK  status: ('A' for Active; 'I' for Inactive)
REMARK    1  A    between atoms: C_1  and  N_2
REMARK    2  A    between atoms: C_3  and  C_13
REMARK    3  A    between atoms: C_5  and  C_7
REMARK    4  A    between atoms: C_22  and  C_24
REMARK    5  A    between atoms: C_24  and  N_25
REMARK    6  A    between atoms: N_25  and  C_26
REMARK    7  A    between atoms: C_26  and  N_28
REMARK    8  A    between atoms: N_28  and  C_29
REMARK    9  A    between atoms: C_33  and  C_35
REMARK                            x       y       z     vdW  Elec       q    Type
REMARK                         _______ _______ _______ _____ _____    ______ ____
ROOT
ATOM      1  C   UNL     1       1.528  -0.965  -1.622  0.00  0.00    +0.024 C 
ATOM      2  C   UNL     1       2.574   0.068  -1.193  0.00  0.00    -0.068 C 
ATOM      3  N   UNL     1       2.158   0.686   0.073  0.00  0.00    +0.383 N 
ATOM      4  C   UNL     1       2.075  -0.315   1.145  0.00  0.00    -0.078 C 
ATOM      5  C   UNL     1       1.015  -1.359   0.784  0.00  0.00    -0.015 C 
ATOM      6  C   UNL     1       0.406  -0.997  -0.576  0.00  0.00    -0.007 C 
ATOM      7  C   UNL     1      -0.211   0.404  -0.479  0.00  0.00    -0.010 C 
ATOM      8  C   UNL     1       0.883   1.400  -0.083  0.00  0.00    -0.051 C 
ATOM      9  H   UNL     1       2.923   1.424   0.357  0.00  0.00    -0.081 HD
ENDROOT
BRANCH   1  12
ATOM     10  C   UNL     1      -0.684  -2.463  -3.195  0.00  0.00    +0.172 C 
ATOM     11  N   UNL     1      -0.006  -1.242  -3.637  0.00  0.00    -0.271 N 
ATOM     12  C   UNL     1       0.958  -0.581  -2.963  0.00  0.00    +0.041 A 
ATOM     13  C   UNL     1       1.318   0.493  -3.704  0.00  0.00    +0.048 A 
ATOM     14  C   UNL     1       0.553   0.483  -4.875  0.00  0.00    +0.066 A 
ATOM     15  N   UNL     1      -0.243  -0.555  -4.834  0.00  0.00    -0.176 NA
BRANCH  14  16
ATOM     16  C   UNL     1       0.628   1.496  -5.988  0.00  0.00    +0.040 C 
ATOM     17  C   UNL     1       2.075   1.964  -6.154  0.00  0.00    +0.010 C 
ATOM     18  C   UNL     1       2.151   2.993  -7.285  0.00  0.00    +0.001 C 
ATOM     19  C   UNL     1       1.264   4.191  -6.945  0.00  0.00    +0.000 C 
ATOM     20  C   UNL     1      -0.183   3.723  -6.778  0.00  0.00    +0.001 C 
ATOM     21  C   UNL     1      -0.260   2.695  -5.648  0.00  0.00    +0.010 C 
ENDBRANCH  14  16
ENDBRANCH   1  12
BRANCH   8  22
ATOM     22  C   UNL     1       1.023   2.464  -1.173  0.00  0.00    +0.088 C 
BRANCH  22  23
ATOM     23  N   UNL     1       2.080   3.408  -0.800  0.00  0.00    -0.328 N 
ATOM     24  H   UNL     1       2.627   3.276   0.145  0.00  0.00    +0.148 HD
BRANCH  23  25
ATOM     25  C   UNL     1       2.382   4.437  -1.616  0.00  0.00    +0.134 C 
ATOM     26  S   UNL     1       1.531   4.643  -3.087  0.00  0.00    -0.019 S 
BRANCH  25  27
ATOM     27  N   UNL     1       3.355   5.306  -1.273  0.00  0.00    -0.297 N 
ATOM     28  H   UNL     1       3.949   5.135  -0.364  0.00  0.00    +0.154 HD
BRANCH  27  29
ATOM     29  C   UNL     1       3.608   6.424  -2.075  0.00  0.00    +0.034 A 
ATOM     30  C   UNL     1       3.693   6.285  -3.455  0.00  0.00    +0.023 A 
ATOM     31  C   UNL     1       3.938   7.388  -4.252  0.00  0.00    +0.003 A 
ATOM     32  C   UNL     1       4.110   8.633  -3.682  0.00  0.00    +0.019 A 
ATOM     33  C   UNL     1       4.032   8.782  -2.296  0.00  0.00    +0.054 A 
ATOM     34  C   UNL     1       3.780   7.670  -1.492  0.00  0.00    +0.042 A 
BRANCH  33  35
ATOM     35  C   UNL     1       4.211  10.072  -1.701  0.00  0.00    +0.099 C 
ATOM     36  N   UNL     1       4.353  11.096  -1.229  0.00  0.00    -0.191 NA
ENDBRANCH  33  35
ENDBRANCH  27  29
ENDBRANCH  25  27
ENDBRANCH  23  25
ENDBRANCH  22  23
ENDBRANCH   8  22
TORSDOF 8
