REMARK  Name = ZINC05989264
REMARK  8 active torsions:
REMARK  status: ('A' for Active; 'I' for Inactive)
REMARK    1  A    between atoms: C_1  and  C_2
REMARK    2  A    between atoms: C_2  and  C_4
REMARK    3  A    between atoms: C_2  and  O_10
REMARK    4  A    between atoms: O_10  and  C_11
REMARK    5  A    between atoms: C_11  and  C_13
REMARK    6  A    between atoms: C_14  and  C_15
REMARK    7  A    between atoms: N_17  and  C_25
REMARK    8  A    between atoms: C_19  and  C_20
REMARK                            x       y       z     vdW  Elec       q    Type
REMARK                         _______ _______ _______ _____ _____    ______ ____
ROOT
ATOM      1  C   UNL     1      -1.060   3.674   0.027  0.00  0.00    +0.092 C 
ATOM      2  C   UNL     1      -1.203   2.328   0.021  0.00  0.00    +0.018 C 
ENDROOT
BRANCH   2   3
ATOM      3  C   UNL     1      -0.018   1.465   0.010  0.00  0.00    +0.021 A 
ATOM      4  C   UNL     1       1.304   1.872  -0.000  0.00  0.00    +0.123 A 
ATOM      5  N   UNL     1       2.074   0.769  -0.014  0.00  0.00    -0.239 N 
ATOM      6  N   UNL     1       1.266  -0.371  -0.012  0.00  0.00    -0.165 NA
ATOM      7  C   UNL     1       0.002  -0.004   0.002  0.00  0.00    +0.107 A 
BRANCH   5   8
ATOM      8  C   UNL     1       3.474   0.765  -0.027  0.00  0.00    +0.065 A 
ATOM      9  C   UNL     1       4.174   1.964  -0.033  0.00  0.00    +0.028 A 
ATOM     10  C   UNL     1       5.555   1.956  -0.040  0.00  0.00    +0.002 A 
ATOM     11  C   UNL     1       6.241   0.755  -0.053  0.00  0.00    +0.000 A 
ATOM     12  C   UNL     1       5.547  -0.441  -0.051  0.00  0.00    +0.002 A 
ATOM     13  C   UNL     1       4.166  -0.440  -0.039  0.00  0.00    +0.028 A 
ENDBRANCH   5   8
BRANCH   7  14
ATOM     14  C   UNL     1      -1.172  -0.898   0.009  0.00  0.00    +0.040 A 
ATOM     15  C   UNL     1      -1.337  -2.112  -0.606  0.00  0.00    +0.018 A 
ATOM     16  C   UNL     1      -2.536  -2.772  -0.456  0.00  0.00    +0.008 A 
ATOM     17  C   UNL     1      -3.515  -2.204   0.295  0.00  0.00    +0.046 A 
ATOM     18  S   UNL     1      -2.744  -0.685   0.828  0.00  0.00    -0.095 S 
ENDBRANCH   7  14
ENDBRANCH   2   3
BRANCH   1  19
ATOM     19  C   UNL     1      -2.204   4.507   0.037  0.00  0.00    +0.333 C 
ATOM     20  O   UNL     1      -3.316   4.013   0.040  0.00  0.00    -0.246 OA
BRANCH  19  21
ATOM     21  O   UNL     1      -2.061   5.849   0.044  0.00  0.00    -0.449 OA
BRANCH  21  23
ATOM     22  C   UNL     1      -3.693   6.915  -1.385  0.00  0.00    +0.062 C 
ATOM     23  C   UNL     1      -3.259   6.628   0.054  0.00  0.00    +0.259 C 
BRANCH  23  24
ATOM     24  C   UNL     1      -3.005   7.930   0.770  0.00  0.00    +0.261 C 
ATOM     25  O   UNL     1      -1.886   8.206   1.147  0.00  0.00    -0.271 OA
ATOM     26  N   UNL     1      -4.021   8.786   0.992  0.00  0.00    -0.237 N 
ATOM     27  C   UNL     1      -3.794   9.950   1.633  0.00  0.00    +0.303 C 
ATOM     28  O   UNL     1      -2.673  10.227   2.010  0.00  0.00    -0.253 OA
ATOM     29  N   UNL     1      -4.811  10.807   1.855  0.00  0.00    -0.313 N 
ATOM     30  H   UNL     1      -4.917   8.565   0.691  0.00  0.00    +0.159 HD
ATOM     31  H   UNL     1      -5.706  10.586   1.553  0.00  0.00    +0.146 HD
ATOM     32  H   UNL     1      -4.648  11.645   2.316  0.00  0.00    +0.146 HD
ENDBRANCH  23  24
ENDBRANCH  21  23
ENDBRANCH  19  21
ENDBRANCH   1  19
TORSDOF 7
