REMARK  Name = ZINC21295696
REMARK  5 active torsions:
REMARK  status: ('A' for Active; 'I' for Inactive)
REMARK    1  A    between atoms: C_1  and  C_2
REMARK    2  A    between atoms: C_2  and  N_3
REMARK    3  A    between atoms: N_11  and  C_12
REMARK    4  A    between atoms: C_12  and  C_14
REMARK    5  A    between atoms: C_14  and  N_15
REMARK                            x       y       z     vdW  Elec       q    Type
REMARK                         _______ _______ _______ _____ _____    ______ ____
ROOT
ATOM      1  N   UNL     1      -6.427  -1.571  -0.332  0.00  0.00    -0.297 NA
ATOM      2  C   UNL     1      -5.513  -2.404   0.463  0.00  0.00    +0.091 C 
ATOM      3  C   UNL     1      -4.066  -2.188   0.010  0.00  0.00    +0.069 C 
ATOM      4  C   UNL     1      -3.785  -0.689   0.016  0.00  0.00    +0.030 A 
ATOM      5  C   UNL     1      -4.828   0.185   0.025  0.00  0.00    +0.026 A 
ATOM      6  S   UNL     1      -4.016   1.758   0.031  0.00  0.00    -0.056 S 
ATOM      7  C   UNL     1      -2.385   1.155   0.020  0.00  0.00    +0.163 A 
ATOM      8  N   UNL     1      -2.572  -0.149   0.008  0.00  0.00    -0.339 N 
ATOM      9  N   UNL     1      -1.191   1.867   0.018  0.00  0.00    -0.155 NA
ATOM     10  C   UNL     1      -6.281  -0.147   0.028  0.00  0.00    +0.128 C 
ATOM     11  H   UNL     1      -1.682  -0.796  -0.010  0.00  0.00    +0.167 HD
ENDROOT
BRANCH   1  13
ATOM     12  C   UNL     1      -8.198  -1.973   1.310  0.00  0.00    +0.020 C 
ATOM     13  C   UNL     1      -7.818  -2.015  -0.171  0.00  0.00    +0.081 C 
ENDBRANCH   1  13
BRANCH   9  14
ATOM     14  C   UNL     1      -0.014   1.209   0.009  0.00  0.00    +0.256 C 
ATOM     15  O   UNL     1       0.002  -0.004   0.002  0.00  0.00    -0.272 OA
BRANCH  14  16
ATOM     16  C   UNL     1       1.280   1.980   0.001  0.00  0.00    +0.206 C 
BRANCH  16  17
ATOM     17  N   UNL     1       2.407   1.043  -0.015  0.00  0.00    -0.283 N 
ATOM     18  C   UNL     1       2.970   0.585   1.233  0.00  0.00    +0.120 C 
ATOM     19  C   UNL     1       4.144  -0.398   1.047  0.00  0.00    +0.098 C 
ATOM     20  S   UNL     1       4.238  -0.481  -0.781  0.00  0.00    -0.066 S 
ATOM     21  C   UNL     1       2.904   0.627  -1.188  0.00  0.00    +0.275 C 
ATOM     22  O   UNL     1       2.524   0.941  -2.300  0.00  0.00    -0.263 OA
ENDBRANCH  16  17
ENDBRANCH  14  16
ENDBRANCH   9  14
TORSDOF 4
