REMARK  Name = ZINC20571919
REMARK  6 active torsions:
REMARK  status: ('A' for Active; 'I' for Inactive)
REMARK    1  A    between atoms: C_1  and  C_2
REMARK    2  A    between atoms: C_4  and  C_35
REMARK    3  A    between atoms: C_17  and  C_19
REMARK    4  A    between atoms: C_24  and  N_25
REMARK    5  A    between atoms: N_25  and  S_26
REMARK    6  A    between atoms: S_26  and  C_29
REMARK                            x       y       z     vdW  Elec       q    Type
REMARK                         _______ _______ _______ _____ _____    ______ ____
ROOT
ATOM      1  C   UNL     1       6.340  -3.838 -15.136  0.00  0.00    +0.044 C 
ATOM      2  C   UNL     1       5.710  -3.154 -13.951  0.00  0.00    -0.049 A 
ATOM      3  C   UNL     1       5.361  -1.812 -14.020  0.00  0.00    +0.009 A 
ATOM      4  C   UNL     1       4.787  -1.166 -12.957  0.00  0.00    -0.024 A 
ATOM      5  C   UNL     1       4.529  -1.853 -11.748  0.00  0.00    +0.083 A 
ATOM      6  C   UNL     1       4.897  -3.217 -11.714  0.00  0.00    +0.041 A 
ATOM      7  C   UNL     1       5.472  -3.856 -12.784  0.00  0.00    +0.020 A 
ATOM      8  S   UNL     1       4.421  -3.697 -10.071  0.00  0.00    -0.052 S 
ATOM      9  C   UNL     1       3.784  -2.111  -9.549  0.00  0.00    +0.162 A 
ATOM     10  N   UNL     1       3.969  -1.369 -10.617  0.00  0.00    -0.224 NA
ATOM     11  N   UNL     1       3.234  -1.756  -8.334  0.00  0.00    -0.307 N 
ATOM     12  C   UNL     1       3.210  -2.900  -7.413  0.00  0.00    +0.126 C 
ATOM     13  C   UNL     1       2.432  -2.518  -6.149  0.00  0.00    +0.127 C 
ATOM     14  N   UNL     1       3.015  -1.286  -5.596  0.00  0.00    -0.294 N 
ATOM     15  C   UNL     1       3.192  -0.136  -6.495  0.00  0.00    +0.127 C 
ATOM     16  C   UNL     1       3.946  -0.614  -7.746  0.00  0.00    +0.126 C 
ATOM     17  C   UNL     1       3.373  -1.212  -4.298  0.00  0.00    +0.249 C 
ATOM     18  O   UNL     1       3.123  -2.134  -3.545  0.00  0.00    -0.270 OA
ATOM     19  C   UNL     1       4.425   0.292 -13.078  0.00  0.00    +0.046 C 
ENDROOT
BRANCH  17  20
ATOM     20  C   UNL     1       4.065  -0.013  -3.792  0.00  0.00    +0.059 A 
ATOM     21  C   UNL     1       3.739   1.251  -4.291  0.00  0.00    +0.015 A 
ATOM     22  C   UNL     1       4.389   2.367  -3.813  0.00  0.00    +0.001 A 
ATOM     23  C   UNL     1       5.367   2.244  -2.839  0.00  0.00    +0.002 A 
ATOM     24  C   UNL     1       5.697   1.004  -2.332  0.00  0.00    +0.025 A 
ATOM     25  C   UNL     1       5.056  -0.134  -2.806  0.00  0.00    +0.060 A 
BRANCH  25  26
ATOM     26  N   UNL     1       5.390  -1.384  -2.301  0.00  0.00    -0.216 N 
ATOM     27  H   UNL     1       5.335  -2.271  -2.949  0.00  0.00    +0.174 HD
BRANCH  26  28
ATOM     28  S   UNL     1       5.873  -1.539  -0.725  0.00  0.00    +0.072 S 
ATOM     29  O   UNL     1       6.945  -0.625  -0.537  0.00  0.00    -0.150 OA
ATOM     30  O   UNL     1       6.007  -2.931  -0.476  0.00  0.00    -0.150 OA
BRANCH  28  31
ATOM     31  C   UNL     1       4.545  -0.972   0.285  0.00  0.00    +0.108 A 
ATOM     32  C   UNL     1       3.573  -1.859   0.710  0.00  0.00    +0.029 A 
ATOM     33  C   UNL     1       2.530  -1.414   1.502  0.00  0.00    +0.002 A 
ATOM     34  C   UNL     1       2.460  -0.083   1.868  0.00  0.00    +0.000 A 
ATOM     35  C   UNL     1       3.432   0.803   1.443  0.00  0.00    +0.002 A 
ATOM     36  C   UNL     1       4.474   0.359   0.651  0.00  0.00    +0.029 A 
ENDBRANCH  28  31
ENDBRANCH  26  28
ENDBRANCH  25  26
ENDBRANCH  17  20
TORSDOF 4
