REMARK  Name = ZINC36160078
REMARK  9 active torsions:
REMARK  status: ('A' for Active; 'I' for Inactive)
REMARK    1  A    between atoms: C_1  and  O_2
REMARK    2  A    between atoms: O_2  and  C_3
REMARK    3  A    between atoms: C_5  and  C_13
REMARK    4  A    between atoms: C_7  and  N_10
REMARK    5  A    between atoms: C_8  and  O_9
REMARK    6  A    between atoms: N_17  and  C_21
REMARK    7  A    between atoms: C_24  and  C_27
REMARK    8  A    between atoms: C_27  and  O_29
REMARK    9  A    between atoms: O_29  and  C_30
REMARK                            x       y       z     vdW  Elec       q    Type
REMARK                         _______ _______ _______ _____ _____    ______ ____
ROOT
ATOM      1  C   UNL     1       1.899   0.255  -4.598  0.00  0.00    +0.028 C 
ATOM      2  C   UNL     1       2.826  -0.308  -5.415  0.00  0.00    +0.078 C 
ATOM      3  C   UNL     1       3.580   0.290  -6.535  0.00  0.00    +0.263 C 
ATOM      4  O   UNL     1       3.427   1.452  -6.861  0.00  0.00    -0.269 OA
ATOM      5  N   UNL     1       4.431  -0.502  -7.165  0.00  0.00    -0.224 N 
ATOM      6  C   UNL     1       4.599  -1.789  -6.801  0.00  0.00    +0.125 C 
ATOM      7  S   UNL     1       5.642  -2.961  -7.486  0.00  0.00    -0.027 S 
ATOM      8  S   UNL     1       3.475  -1.973  -5.426  0.00  0.00    -0.061 S 
ENDROOT
BRANCH   1  11
ATOM      9  C   UNL     1      -0.130  -0.762  -1.613  0.00  0.00    +0.164 A 
ATOM     10  C   UNL     1       0.544   0.023  -2.527  0.00  0.00    +0.057 A 
ATOM     11  C   UNL     1       1.181  -0.574  -3.622  0.00  0.00    -0.018 A 
ATOM     12  C   UNL     1       1.131  -1.964  -3.783  0.00  0.00    +0.044 A 
ATOM     13  C   UNL     1       0.456  -2.739  -2.866  0.00  0.00    +0.172 A 
ATOM     14  C   UNL     1      -0.171  -2.146  -1.778  0.00  0.00    +0.189 A 
BRANCH  13  15
ATOM     15  N   UNL     1       0.403  -4.208  -3.038  0.00  0.00    +0.060 N 
ATOM     16  O   UNL     1       0.952  -4.727  -3.982  0.00  0.00    -0.126 OA
ATOM     17  O   UNL     1      -0.189  -4.890  -2.234  0.00  0.00    -0.126 OA
ENDBRANCH  13  15
BRANCH   9  19
ATOM     18  C   UNL     1      -0.669   1.236  -0.443  0.00  0.00    +0.277 C 
ATOM     19  O   UNL     1      -0.750  -0.186  -0.549  0.00  0.00    -0.491 OA
ENDBRANCH   9  19
BRANCH  14  20
ATOM     20  O   UNL     1      -0.830  -2.917  -0.874  0.00  0.00    -0.502 OA
ATOM     21  H   UNL     1      -1.762  -3.062  -1.086  0.00  0.00    +0.292 HD
ENDBRANCH  14  20
ENDBRANCH   1  11
BRANCH   5  22
ATOM     22  C   UNL     1       5.173   0.007  -8.234  0.00  0.00    +0.043 A 
ATOM     23  C   UNL     1       6.340   0.725  -7.989  0.00  0.00    +0.025 A 
ATOM     24  C   UNL     1       7.073   1.229  -9.039  0.00  0.00    +0.017 A 
ATOM     25  C   UNL     1       6.645   1.017 -10.353  0.00  0.00    +0.059 A 
ATOM     26  C   UNL     1       5.473   0.295 -10.595  0.00  0.00    +0.017 A 
ATOM     27  C   UNL     1       4.748  -0.210  -9.540  0.00  0.00    +0.025 A 
BRANCH  25  28
ATOM     28  C   UNL     1       7.428   1.555 -11.481  0.00  0.00    +0.339 C 
ATOM     29  O   UNL     1       8.447   2.183 -11.269  0.00  0.00    -0.245 OA
BRANCH  28  30
ATOM     30  O   UNL     1       7.015   1.350 -12.747  0.00  0.00    -0.464 OA
ATOM     31  C   UNL     1       7.822   1.900 -13.791  0.00  0.00    +0.280 C 
ENDBRANCH  28  30
ENDBRANCH  25  28
ENDBRANCH   5  22
TORSDOF 7
