REMARK  Name = ZINC18013641
REMARK  10 active torsions:
REMARK  status: ('A' for Active; 'I' for Inactive)
REMARK    1  A    between atoms: C_1  and  C_2
REMARK    2  A    between atoms: C_3  and  C_32
REMARK    3  A    between atoms: C_4  and  C_31
REMARK    4  A    between atoms: C_5  and  S_10
REMARK    5  A    between atoms: C_6  and  C_9
REMARK    6  A    between atoms: C_7  and  C_8
REMARK    7  A    between atoms: S_10  and  N_13
REMARK    8  A    between atoms: C_19  and  C_21
REMARK    9  A    between atoms: C_24  and  N_28
REMARK   10  A    between atoms: C_25  and  O_27
REMARK                            x       y       z     vdW  Elec       q    Type
REMARK                         _______ _______ _______ _____ _____    ______ ____
ROOT
ATOM      1  N   UNL     1      -0.029  -5.544   0.299  0.00  0.00    -0.174 NA
ATOM      2  C   UNL     1       0.586  -6.230  -0.846  0.00  0.00    +0.128 C 
ATOM      3  C   UNL     1       2.029  -5.733  -0.998  0.00  0.00    +0.125 C 
ATOM      4  N   UNL     1       2.691  -5.808   0.312  0.00  0.00    -0.295 N 
ATOM      5  C   UNL     1       2.077  -5.122   1.457  0.00  0.00    +0.125 C 
ATOM      6  C   UNL     1       0.636  -5.614   1.607  0.00  0.00    +0.128 C 
ATOM      7  C   UNL     1       3.842  -6.494   0.460  0.00  0.00    +0.247 C 
ATOM      8  O   UNL     1       4.329  -6.632   1.565  0.00  0.00    -0.270 OA
ENDROOT
BRANCH   7   9
ATOM      9  C   UNL     1       4.512  -7.079  -0.722  0.00  0.00    +0.040 A 
ATOM     10  C   UNL     1       4.636  -6.334  -1.896  0.00  0.00    +0.015 A 
ATOM     11  C   UNL     1       5.262  -6.883  -2.997  0.00  0.00    +0.037 A 
ATOM     12  C   UNL     1       5.767  -8.169  -2.941  0.00  0.00    +0.167 A 
ATOM     13  C   UNL     1       5.648  -8.917  -1.778  0.00  0.00    +0.148 A 
ATOM     14  C   UNL     1       5.026  -8.374  -0.665  0.00  0.00    +0.060 A 
BRANCH  12  15
ATOM     15  N   UNL     1       6.436  -8.750  -4.126  0.00  0.00    +0.060 N 
ATOM     16  O   UNL     1       6.540  -8.101  -5.141  0.00  0.00    -0.126 OA
ATOM     17  O   UNL     1       6.878  -9.875  -4.080  0.00  0.00    -0.126 OA
ENDBRANCH  12  15
BRANCH  13  18
ATOM     18  O   UNL     1       6.146 -10.180  -1.728  0.00  0.00    -0.504 OA
ATOM     19  H   UNL     1       7.065 -10.230  -1.432  0.00  0.00    +0.292 HD
ENDBRANCH  13  18
ENDBRANCH   7   9
BRANCH   1  20
ATOM     20  S   UNL     1      -1.443  -4.701   0.117  0.00  0.00    +0.061 S 
ATOM     21  O   UNL     1      -2.084  -4.705   1.385  0.00  0.00    -0.153 OA
ATOM     22  O   UNL     1      -2.068  -5.205  -1.055  0.00  0.00    -0.153 OA
BRANCH  20  27
ATOM     23  C   UNL     1       0.038   1.031  -1.048  0.00  0.00    +0.044 C 
ATOM     24  C   UNL     1      -0.332  -0.401  -0.757  0.00  0.00    -0.044 A 
ATOM     25  C   UNL     1      -0.519  -0.814   0.548  0.00  0.00    -0.043 A 
ATOM     26  C   UNL     1      -0.859  -2.127   0.815  0.00  0.00    -0.021 A 
ATOM     27  C   UNL     1      -1.011  -3.027  -0.223  0.00  0.00    +0.112 A 
ATOM     28  C   UNL     1      -0.824  -2.613  -1.529  0.00  0.00    -0.021 A 
ATOM     29  C   UNL     1      -0.489  -1.299  -1.796  0.00  0.00    -0.043 A 
ATOM     30  C   UNL     1      -0.290  -0.847  -3.220  0.00  0.00    +0.044 C 
ATOM     31  C   UNL     1      -0.990  -3.594  -2.661  0.00  0.00    +0.046 C 
ATOM     32  C   UNL     1      -1.063  -2.579   2.239  0.00  0.00    +0.046 C 
ATOM     33  C   UNL     1      -0.354   0.166   1.681  0.00  0.00    +0.044 C 
ENDBRANCH  20  27
ENDBRANCH   1  20
TORSDOF 5
