REMARK  Name = ZINC66673990
REMARK  9 active torsions:
REMARK  status: ('A' for Active; 'I' for Inactive)
REMARK    1  A    between atoms: C_1  and  C_2
REMARK    2  A    between atoms: C_2  and  C_4
REMARK    3  A    between atoms: C_2  and  N_15
REMARK    4  A    between atoms: C_7  and  S_10
REMARK    5  A    between atoms: S_10  and  N_13
REMARK    6  A    between atoms: N_13  and  C_14
REMARK    7  A    between atoms: C_16  and  C_18
REMARK    8  A    between atoms: C_18  and  C_19
REMARK    9  A    between atoms: C_19  and  C_20
REMARK                            x       y       z     vdW  Elec       q    Type
REMARK                         _______ _______ _______ _____ _____    ______ ____
ROOT
ATOM      1  N   UNL     1       0.711  -0.489   1.189  0.00  0.00    -0.309 N 
ATOM      2  C   UNL     1       2.054  -0.600   1.174  0.00  0.00    +0.214 C 
ATOM      3  O   UNL     1       2.676  -0.297   0.177  0.00  0.00    -0.276 OA
ATOM      4  H   UNL     1       0.213  -0.731   1.986  0.00  0.00    +0.149 HD
ENDROOT
BRANCH   1   6
ATOM      5  C   UNL     1      -0.019   1.526   0.010  0.00  0.00    +0.033 C 
ATOM      6  C   UNL     1       0.002  -0.004   0.002  0.00  0.00    +0.100 C 
BRANCH   6   7
ATOM      7  C   UNL     1      -1.412  -0.526   0.013  0.00  0.00    -0.027 A 
ATOM      8  C   UNL     1      -2.123  -0.571   1.197  0.00  0.00    +0.007 A 
ATOM      9  C   UNL     1      -3.420  -1.049   1.207  0.00  0.00    +0.029 A 
ATOM     10  C   UNL     1      -4.006  -1.482   0.032  0.00  0.00    +0.105 A 
ATOM     11  C   UNL     1      -3.295  -1.436  -1.153  0.00  0.00    +0.029 A 
ATOM     12  C   UNL     1      -2.000  -0.954  -1.163  0.00  0.00    +0.007 A 
BRANCH  10  13
ATOM     13  S   UNL     1      -5.658  -2.093   0.045  0.00  0.00    +0.058 S 
ATOM     14  O   UNL     1      -5.785  -2.944  -1.086  0.00  0.00    -0.153 OA
ATOM     15  O   UNL     1      -5.915  -2.542   1.369  0.00  0.00    -0.153 OA
BRANCH  13  16
ATOM     16  N   UNL     1      -6.660  -0.801  -0.219  0.00  0.00    -0.193 NA
ATOM     17  C   UNL     1      -6.617  -0.091  -1.500  0.00  0.00    +0.127 C 
ATOM     18  H   UNL     1      -7.275  -0.515   0.474  0.00  0.00    +0.148 HD
ENDBRANCH  13  16
ENDBRANCH  10  13
ENDBRANCH   6   7
ENDBRANCH   1   6
BRANCH   2  19
ATOM     19  C   UNL     1       2.783  -1.099   2.395  0.00  0.00    +0.105 C 
BRANCH  19  20
ATOM     20  C   UNL     1       4.287  -1.129   2.114  0.00  0.00    +0.105 C 
BRANCH  20  21
ATOM     21  C   UNL     1       5.015  -1.628   3.335  0.00  0.00    +0.219 C 
ATOM     22  O   UNL     1       4.393  -1.930   4.331  0.00  0.00    -0.275 OA
ATOM     23  N   UNL     1       6.359  -1.738   3.320  0.00  0.00    -0.265 N 
ATOM     24  C   UNL     1       7.031  -2.199   4.446  0.00  0.00    +0.164 A 
ATOM     25  N   UNL     1       6.527  -2.575   5.602  0.00  0.00    -0.233 NA
ATOM     26  C   UNL     1       7.307  -2.991   6.582  0.00  0.00    +0.120 A 
ATOM     27  C   UNL     1       8.641  -3.013   6.342  0.00  0.00    +0.068 A 
ATOM     28  S   UNL     1       8.686  -2.418   4.659  0.00  0.00    -0.061 S 
ATOM     29  H   UNL     1       6.856  -1.496   2.523  0.00  0.00    +0.157 HD
ENDBRANCH  20  21
ENDBRANCH  19  20
ENDBRANCH   2  19
TORSDOF 7
