REMARK  Name = ZINC57857866
REMARK  10 active torsions:
REMARK  status: ('A' for Active; 'I' for Inactive)
REMARK    1  A    between atoms: C_1  and  C_2
REMARK    2  A    between atoms: C_2  and  N_3
REMARK    3  A    between atoms: N_3  and  C_4
REMARK    4  A    between atoms: C_4  and  C_5
REMARK    5  A    between atoms: N_19  and  C_20
REMARK    6  A    between atoms: C_20  and  C_21
REMARK    7  A    between atoms: C_21  and  N_29
REMARK    8  A    between atoms: C_25  and  C_28
REMARK    9  A    between atoms: N_29  and  C_30
REMARK   10  A    between atoms: N_29  and  C_31
REMARK                            x       y       z     vdW  Elec       q    Type
REMARK                         _______ _______ _______ _____ _____    ______ ____
ROOT
ATOM      1  N   UNL     1      -1.119  -0.200   0.057  0.00  0.00    -0.279 N 
ATOM      2  C   UNL     1      -1.756  -0.586   1.181  0.00  0.00    +0.303 C 
ATOM      3  O   UNL     1      -2.830  -1.151   1.107  0.00  0.00    -0.253 OA
ATOM      4  N   UNL     1      -1.201  -0.347   2.386  0.00  0.00    -0.301 N 
ATOM      5  H   UNL     1      -0.344   0.104   2.444  0.00  0.00    +0.150 HD
ENDROOT
BRANCH   1   7
ATOM      6  C   UNL     1      -0.048   1.992   0.234  0.00  0.00    +0.024 C 
ATOM      7  C   UNL     1       0.175   0.481   0.146  0.00  0.00    +0.106 C 
ENDBRANCH   1   7
BRANCH   1   8
ATOM      8  C   UNL     1      -1.722  -0.460  -1.252  0.00  0.00    +0.183 C 
BRANCH   8   9
ATOM      9  C   UNL     1      -1.265  -1.804  -1.758  0.00  0.00    +0.128 A 
ATOM     10  N   UNL     1      -1.715  -2.224  -2.969  0.00  0.00    -0.309 N 
ATOM     11  H   UNL     1      -2.315  -1.660  -3.481  0.00  0.00    +0.170 HD
ATOM     12  C   UNL     1      -1.334  -3.423  -3.467  0.00  0.00    +0.259 A 
ATOM     13  O   UNL     1      -1.729  -3.812  -4.551  0.00  0.00    -0.267 OA
ATOM     14  C   UNL     1      -0.423  -4.238  -2.649  0.00  0.00    +0.065 A 
ATOM     15  C   UNL     1       0.028  -5.487  -3.070  0.00  0.00    +0.015 A 
ATOM     16  C   UNL     1       0.880  -6.208  -2.263  0.00  0.00    +0.001 A 
ATOM     17  C   UNL     1       1.290  -5.701  -1.037  0.00  0.00    +0.002 A 
ATOM     18  C   UNL     1       0.855  -4.469  -0.602  0.00  0.00    +0.028 A 
ATOM     19  C   UNL     1      -0.008  -3.719  -1.402  0.00  0.00    +0.078 A 
ATOM     20  N   UNL     1      -0.457  -2.498  -1.016  0.00  0.00    -0.232 NA
ENDBRANCH   8   9
ENDBRANCH   1   8
BRANCH   4  21
ATOM     21  C   UNL     1      -1.893  -0.767   3.607  0.00  0.00    +0.094 C 
BRANCH  21  22
ATOM     22  C   UNL     1      -0.998  -0.500   4.818  0.00  0.00    -0.050 C 
ATOM     23  C   UNL     1      -0.701   0.998   4.912  0.00  0.00    -0.010 C 
ATOM     24  C   UNL     1       0.194   1.266   6.124  0.00  0.00    -0.001 C 
ATOM     25  C   UNL     1       1.507   0.495   5.968  0.00  0.00    +0.003 C 
ATOM     26  C   UNL     1       1.210  -1.003   5.873  0.00  0.00    -0.015 C 
ATOM     27  C   UNL     1       0.315  -1.270   4.662  0.00  0.00    -0.007 C 
ATOM     28  C   UNL     1       2.523  -1.773   5.717  0.00  0.00    +0.007 C 
BRANCH  22  29
ATOM     29  N   UNL     1      -1.682  -0.942   6.040  0.00  0.00    +0.381 N 
ATOM     30  C   UNL     1      -2.939  -0.197   6.194  0.00  0.00    -0.096 C 
ATOM     31  C   UNL     1      -1.973  -2.378   5.947  0.00  0.00    -0.096 C 
ATOM     32  H   UNL     1      -1.090  -0.769   6.839  0.00  0.00    -0.082 HD
ENDBRANCH  22  29
ENDBRANCH  21  22
ENDBRANCH   4  21
TORSDOF 6
