REMARK  Name = ZINC60556424
REMARK  8 active torsions:
REMARK  status: ('A' for Active; 'I' for Inactive)
REMARK    1  A    between atoms: C_1  and  C_2
REMARK    2  A    between atoms: N_6  and  C_8
REMARK    3  A    between atoms: C_8  and  C_9
REMARK    4  A    between atoms: C_9  and  C_10
REMARK    5  A    between atoms: C_10  and  N_11
REMARK    6  A    between atoms: C_12  and  C_14
REMARK    7  A    between atoms: C_14  and  N_15
REMARK    8  A    between atoms: C_23  and  C_24
REMARK                            x       y       z     vdW  Elec       q    Type
REMARK                         _______ _______ _______ _____ _____    ______ ____
ROOT
ATOM      1  N   UNL     1       2.612  -5.942   3.434  0.00  0.00    -0.314 N 
ATOM      2  C   UNL     1       3.290  -6.608   4.390  0.00  0.00    +0.231 C 
ATOM      3  O   UNL     1       3.794  -6.000   5.310  0.00  0.00    -0.274 OA
ATOM      4  H   UNL     1       2.209  -6.428   2.698  0.00  0.00    +0.149 HD
ENDROOT
BRANCH   1   5
ATOM      5  C   UNL     1       2.483  -4.484   3.507  0.00  0.00    +0.102 C 
BRANCH   5   6
ATOM      6  C   UNL     1       1.673  -3.983   2.310  0.00  0.00    +0.000 C 
BRANCH   6   7
ATOM      7  C   UNL     1       1.539  -2.461   2.387  0.00  0.00    -0.077 C 
BRANCH   7  13
ATOM      8  C   UNL     1      -0.019   1.526   0.010  0.00  0.00    +0.005 C 
ATOM      9  C   UNL     1       0.002  -0.004   0.002  0.00  0.00    -0.031 C 
ATOM     10  C   UNL     1      -1.434  -0.535   0.018  0.00  0.00    -0.001 C 
ATOM     11  C   UNL     1      -1.402  -2.064   0.089  0.00  0.00    -0.018 C 
ATOM     12  C   UNL     1      -0.610  -2.496   1.325  0.00  0.00    -0.079 C 
ATOM     13  N   UNL     1       0.761  -1.980   1.237  0.00  0.00    +0.380 N 
ATOM     14  C   UNL     1       0.742  -0.512   1.241  0.00  0.00    -0.076 C 
ATOM     15  H   UNL     1       1.189  -2.307   0.384  0.00  0.00    -0.082 HD
ENDBRANCH   7  13
ENDBRANCH   6   7
ENDBRANCH   5   6
ENDBRANCH   1   5
BRANCH   2  16
ATOM     16  C   UNL     1       3.423  -8.107   4.314  0.00  0.00    +0.213 C 
BRANCH  16  17
ATOM     17  N   UNL     1       4.198  -8.587   5.460  0.00  0.00    -0.215 N 
ATOM     18  C   UNL     1       5.541  -8.718   5.466  0.00  0.00    +0.247 C 
ATOM     19  O   UNL     1       6.306  -8.470   4.559  0.00  0.00    -0.273 OA
ATOM     20  C   UNL     1       5.890  -9.238   6.842  0.00  0.00    +0.115 C 
ATOM     21  C   UNL     1       6.563 -10.602   6.739  0.00  0.00    +0.035 C 
ATOM     22  C   UNL     1       7.893 -10.461   5.994  0.00  0.00    +0.003 C 
ATOM     23  C   UNL     1       8.797  -9.483   6.747  0.00  0.00    +0.000 C 
ATOM     24  C   UNL     1       8.118  -8.114   6.824  0.00  0.00    +0.006 C 
ATOM     25  C   UNL     1       6.789  -8.246   7.572  0.00  0.00    +0.018 C 
ATOM     26  C   UNL     1       6.100  -6.881   7.632  0.00  0.00    +0.010 C 
ATOM     27  N   UNL     1       4.592  -9.353   7.520  0.00  0.00    -0.285 N 
ATOM     28  C   UNL     1       3.663  -8.945   6.634  0.00  0.00    +0.310 C 
ATOM     29  O   UNL     1       2.472  -8.909   6.873  0.00  0.00    -0.252 OA
ATOM     30  H   UNL     1       4.436  -9.658   8.427  0.00  0.00    +0.151 HD
ENDBRANCH  16  17
ENDBRANCH   2  16
TORSDOF 6
