REMARK  Name = ZINC58130286
REMARK  10 active torsions:
REMARK  status: ('A' for Active; 'I' for Inactive)
REMARK    1  A    between atoms: C_1  and  C_2
REMARK    2  A    between atoms: C_4  and  C_14
REMARK    3  A    between atoms: N_10  and  C_13
REMARK    4  A    between atoms: N_16  and  C_17
REMARK    5  A    between atoms: C_17  and  C_18
REMARK    6  A    between atoms: C_18  and  C_19
REMARK    7  A    between atoms: C_18  and  N_22
REMARK    8  A    between atoms: C_19  and  C_20
REMARK    9  A    between atoms: C_19  and  C_21
REMARK   10  A    between atoms: C_25  and  C_28
REMARK                            x       y       z     vdW  Elec       q    Type
REMARK                         _______ _______ _______ _____ _____    ______ ____
ROOT
ATOM      1  C   UNL     1       0.143  -2.737  -2.468  0.00  0.00    +0.245 C 
ATOM      2  O   UNL     1      -0.263  -3.879  -2.377  0.00  0.00    -0.270 OA
ATOM      3  N   UNL     1       0.246  -2.153  -3.678  0.00  0.00    -0.313 N 
ATOM      4  H   UNL     1       0.570  -1.242  -3.751  0.00  0.00    +0.149 HD
ENDROOT
BRANCH   1   8
ATOM      5  C   UNL     1       1.844   1.407  -0.245  0.00  0.00    +0.065 C 
ATOM      6  C   UNL     1       1.337  -0.009  -0.161  0.00  0.00    +0.041 A 
ATOM      7  C   UNL     1       0.993  -0.674  -1.326  0.00  0.00    +0.037 A 
ATOM      8  C   UNL     1       0.524  -1.986  -1.248  0.00  0.00    +0.054 A 
ATOM      9  C   UNL     1       0.425  -2.573   0.024  0.00  0.00    +0.096 A 
ATOM     10  C   UNL     1      -0.011  -3.894   0.508  0.00  0.00    +0.275 A 
ATOM     11  O   UNL     1      -0.407  -4.819  -0.174  0.00  0.00    -0.266 OA
ATOM     12  N   UNL     1       0.113  -3.882   1.851  0.00  0.00    -0.262 N 
ATOM     13  H   UNL     1      -0.103  -4.621   2.441  0.00  0.00    +0.190 HD
ATOM     14  N   UNL     1       0.600  -2.637   2.260  0.00  0.00    -0.269 N 
ATOM     15  C   UNL     1       0.795  -1.829   1.157  0.00  0.00    +0.161 A 
ATOM     16  N   UNL     1       1.238  -0.588   1.018  0.00  0.00    -0.233 NA
ATOM     17  C   UNL     1       0.865  -2.249   3.648  0.00  0.00    +0.172 C 
ENDBRANCH   1   8
BRANCH   3  18
ATOM     18  C   UNL     1      -0.130  -2.895  -4.884  0.00  0.00    +0.089 C 
BRANCH  18  19
ATOM     19  C   UNL     1      -0.112  -1.952  -6.089  0.00  0.00    -0.049 C 
BRANCH  19  20
ATOM     20  N   UNL     1      -1.247  -1.024  -6.002  0.00  0.00    +0.383 N 
ATOM     21  C   UNL     1      -1.117  -0.206  -4.790  0.00  0.00    -0.078 C 
ATOM     22  C   UNL     1      -2.252   0.818  -4.736  0.00  0.00    -0.016 C 
ATOM     23  C   UNL     1      -3.595   0.082  -4.714  0.00  0.00    -0.018 C 
ATOM     24  C   UNL     1      -3.689  -0.825  -5.945  0.00  0.00    -0.016 C 
ATOM     25  C   UNL     1      -2.500  -1.788  -5.954  0.00  0.00    -0.078 C 
ATOM     26  C   UNL     1      -4.737   1.099  -4.740  0.00  0.00    +0.007 C 
ATOM     27  H   UNL     1      -1.252  -0.422  -6.812  0.00  0.00    -0.081 HD
ENDBRANCH  19  20
BRANCH  19  28
ATOM     28  C   UNL     1      -0.220  -2.770  -7.378  0.00  0.00    -0.029 C 
ATOM     29  C   UNL     1      -0.193  -1.828  -8.583  0.00  0.00    +0.005 C 
ATOM     30  C   UNL     1       0.958  -3.743  -7.464  0.00  0.00    +0.005 C 
ENDBRANCH  19  28
ENDBRANCH  18  19
ENDBRANCH   3  18
TORSDOF 5
