REMARK  Name = ZINC22242673
REMARK  7 active torsions:
REMARK  status: ('A' for Active; 'I' for Inactive)
REMARK    1  A    between atoms: C_1  and  C_2
REMARK    2  A    between atoms: C_2  and  C_4
REMARK    3  A    between atoms: C_2  and  N_9
REMARK    4  A    between atoms: N_9  and  C_10
REMARK    5  A    between atoms: N_9  and  C_11
REMARK    6  A    between atoms: C_11  and  C_12
REMARK    7  A    between atoms: C_25  and  C_27
REMARK                            x       y       z     vdW  Elec       q    Type
REMARK                         _______ _______ _______ _____ _____    ______ ____
ROOT
ATOM      1  C   UNL     1       0.805   4.215  -1.008  0.00  0.00    +0.204 C 
ATOM      2  O   UNL     1       0.810   5.427  -0.946  0.00  0.00    -0.277 OA
ATOM      3  N   UNL     1       1.177   3.484   0.061  0.00  0.00    -0.259 N 
ATOM      4  C   UNL     1       1.175   2.084   0.002  0.00  0.00    +0.058 A 
ATOM      5  C   UNL     1      -0.017   1.379   0.010  0.00  0.00    +0.025 A 
ATOM      6  C   UNL     1       0.002  -0.004   0.002  0.00  0.00    +0.002 A 
ATOM      7  C   UNL     1       1.206  -0.685  -0.015  0.00  0.00    +0.002 A 
ATOM      8  C   UNL     1       2.400   0.012  -0.036  0.00  0.00    +0.025 A 
ATOM      9  C   UNL     1       2.390   1.397  -0.034  0.00  0.00    +0.055 A 
ATOM     10  N   UNL     1       3.585   2.124  -0.086  0.00  0.00    -0.284 N 
ATOM     11  C   UNL     1       3.808   3.138   0.779  0.00  0.00    +0.219 C 
ATOM     12  O   UNL     1       4.808   3.814   0.669  0.00  0.00    -0.275 OA
ATOM     13  C   UNL     1       2.821   3.433   1.877  0.00  0.00    +0.128 C 
ATOM     14  C   UNL     1       1.591   4.138   1.304  0.00  0.00    +0.194 C 
ATOM     15  H   UNL     1       4.350   1.872  -0.834  0.00  0.00    +0.155 HD
ENDROOT
BRANCH  14  16
ATOM     16  C   UNL     1       0.447   4.069   2.317  0.00  0.00    +0.409 C 
ATOM     17  F   UNL     1       0.836   4.700   3.504  0.00  0.00    -0.169 F 
ATOM     18  F   UNL     1      -0.679   4.713   1.794  0.00  0.00    -0.169 F 
ATOM     19  F   UNL     1       0.138   2.730   2.581  0.00  0.00    -0.169 F 
ENDBRANCH  14  16
BRANCH   1  20
ATOM     20  C   UNL     1       0.382   3.528  -2.281  0.00  0.00    +0.020 C 
BRANCH  20  21
ATOM     21  N   UNL     1       0.027   4.538  -3.288  0.00  0.00    +0.388 N 
ATOM     22  C   UNL     1      -1.169   5.288  -2.881  0.00  0.00    -0.095 C 
ATOM     23  H   UNL     1       0.863   5.249  -3.363  0.00  0.00    -0.081 HD
BRANCH  21  25
ATOM     24  C   UNL     1       1.135   3.233  -5.039  0.00  0.00    -0.008 C 
ATOM     25  C   UNL     1      -0.161   3.921  -4.608  0.00  0.00    -0.034 C 
BRANCH  25  26
ATOM     26  C   UNL     1      -0.524   4.985  -5.612  0.00  0.00    -0.024 A 
ATOM     27  C   UNL     1      -1.426   4.934  -6.622  0.00  0.00    +0.009 A 
ATOM     28  C   UNL     1      -1.594   6.044  -7.427  0.00  0.00    +0.008 A 
ATOM     29  C   UNL     1      -0.852   7.152  -7.184  0.00  0.00    +0.045 A 
ATOM     30  S   UNL     1       0.119   6.643  -5.774  0.00  0.00    -0.103 S 
ENDBRANCH  25  26
ENDBRANCH  21  25
ENDBRANCH  20  21
ENDBRANCH   1  20
TORSDOF 5
