REMARK  Name = ZINC03586684
REMARK  7 active torsions:
REMARK  status: ('A' for Active; 'I' for Inactive)
REMARK    1  A    between atoms: C_1  and  N_41
REMARK    2  A    between atoms: C_2  and  C_3
REMARK    3  A    between atoms: C_2  and  N_41
REMARK    4  A    between atoms: C_11  and  C_12
REMARK    5  A    between atoms: C_11  and  N_41
REMARK    6  A    between atoms: N_17  and  C_18
REMARK    7  A    between atoms: C_18  and  C_19
REMARK                            x       y       z     vdW  Elec       q    Type
REMARK                         _______ _______ _______ _____ _____    ______ ____
ROOT
ATOM      1  C   UNL     1      -3.393   3.181   2.944  0.00  0.00    +0.204 C 
ATOM      2  O   UNL     1      -2.552   3.019   3.802  0.00  0.00    -0.277 OA
ATOM      3  N   UNL     1      -4.641   3.560   3.286  0.00  0.00    -0.242 N 
ATOM      4  C   UNL     1      -4.953   3.759   4.582  0.00  0.00    +0.306 C 
ATOM      5  O   UNL     1      -4.110   3.597   5.442  0.00  0.00    -0.252 OA
ATOM      6  N   UNL     1      -6.201   4.138   4.924  0.00  0.00    -0.292 N 
ATOM      7  H   UNL     1      -5.314   3.690   2.600  0.00  0.00    +0.159 HD
ATOM      8  H   UNL     1      -6.873   4.268   4.237  0.00  0.00    +0.151 HD
ENDROOT
BRANCH   1   9
ATOM      9  C   UNL     1      -3.044   2.959   1.495  0.00  0.00    +0.019 C 
BRANCH   9  11
ATOM     10  C   UNL     1      -0.742   3.646   1.799  0.00  0.00    -0.095 C 
ATOM     11  N   UNL     1      -1.631   2.533   1.405  0.00  0.00    +0.386 N 
ATOM     12  H   UNL     1      -1.480   1.743   2.044  0.00  0.00    -0.081 HD
BRANCH  11  13
ATOM     13  C   UNL     1      -1.320   2.102   0.026  0.00  0.00    -0.041 C 
BRANCH  13  14
ATOM     14  C   UNL     1      -0.069   1.263   0.053  0.00  0.00    -0.046 A 
ATOM     15  C   UNL     1       1.122   1.783  -0.419  0.00  0.00    +0.004 A 
ATOM     16  C   UNL     1       2.272   1.017  -0.390  0.00  0.00    +0.020 A 
ATOM     17  C   UNL     1       2.232  -0.272   0.113  0.00  0.00    +0.042 A 
ATOM     18  C   UNL     1       1.041  -0.793   0.586  0.00  0.00    +0.040 A 
ATOM     19  C   UNL     1      -0.110  -0.025   0.556  0.00  0.00    +0.044 A 
ATOM     20 CL   UNL     1      -1.605  -0.678   1.149  0.00  0.00    -0.083 Cl
ATOM     21 CL   UNL     1       3.676  -1.234   0.150  0.00  0.00    -0.083 Cl
ENDBRANCH  13  14
ENDBRANCH  11  13
ENDBRANCH   9  11
ENDBRANCH   1   9
BRANCH   6  22
ATOM     22  C   UNL     1      -6.540   4.354   6.332  0.00  0.00    +0.180 C 
BRANCH  22  23
ATOM     23  C   UNL     1      -7.985   4.769   6.443  0.00  0.00    +0.122 A 
ATOM     24  C   UNL     1      -9.033   3.938   6.590  0.00  0.00    +0.046 A 
ATOM     25  C   UNL     1     -10.191   4.746   6.651  0.00  0.00    +0.041 A 
ATOM     26  C   UNL     1      -9.782   6.022   6.536  0.00  0.00    +0.195 A 
ATOM     27  O   UNL     1      -8.444   6.030   6.417  0.00  0.00    -0.466 OA
ENDBRANCH  22  23
ENDBRANCH   6  22
TORSDOF 6
