REMARK  Name = ZINC03670277
REMARK  7 active torsions:
REMARK  status: ('A' for Active; 'I' for Inactive)
REMARK    1  A    between atoms: C_1  and  C_2
REMARK    2  A    between atoms: C_2  and  C_3
REMARK    3  A    between atoms: C_3  and  C_5
REMARK    4  A    between atoms: C_3  and  N_6
REMARK    5  A    between atoms: C_7  and  C_9
REMARK    6  A    between atoms: C_9  and  O_26
REMARK    7  A    between atoms: N_19  and  C_20
REMARK                            x       y       z     vdW  Elec       q    Type
REMARK                         _______ _______ _______ _____ _____    ______ ____
ROOT
ATOM      1  C   UNL     1       1.099   3.590   0.296  0.00  0.00    +0.247 C 
ATOM      2  C   UNL     1       1.158   2.080   0.267  0.00  0.00    +0.033 A 
ATOM      3  C   UNL     1       2.333   1.405   0.506  0.00  0.00    +0.010 A 
ATOM      4  C   UNL     1       2.349   0.021   0.470  0.00  0.00    +0.001 A 
ATOM      5  C   UNL     1       1.188  -0.678   0.196  0.00  0.00    +0.002 A 
ATOM      6  C   UNL     1       0.007  -0.003  -0.044  0.00  0.00    +0.024 A 
ATOM      7  C   UNL     1      -0.015   1.385  -0.010  0.00  0.00    +0.043 A 
ATOM      8  N   UNL     1      -1.198   2.085  -0.244  0.00  0.00    -0.269 N 
ATOM      9  C   UNL     1      -1.269   3.422  -0.228  0.00  0.00    +0.314 C 
ATOM     10  O   UNL     1      -2.343   3.948  -0.449  0.00  0.00    -0.252 OA
ATOM     11  N   UNL     1      -0.209   4.210   0.027  0.00  0.00    -0.214 N 
ATOM     12  H   UNL     1      -2.005   1.581  -0.432  0.00  0.00    +0.156 HD
ENDROOT
BRANCH  11  13
ATOM     13  C   UNL     1      -0.347   5.603   0.035  0.00  0.00    +0.041 A 
ATOM     14  C   UNL     1      -1.097   6.222   1.027  0.00  0.00    +0.024 A 
ATOM     15  C   UNL     1      -1.227   7.597   1.036  0.00  0.00    +0.002 A 
ATOM     16  C   UNL     1      -0.621   8.356   0.052  0.00  0.00    +0.000 A 
ATOM     17  C   UNL     1       0.122   7.743  -0.941  0.00  0.00    +0.002 A 
ATOM     18  C   UNL     1       0.260   6.369  -0.952  0.00  0.00    +0.024 A 
ENDBRANCH  11  13
BRANCH   1  20
ATOM     19  N   UNL     1       0.894   3.651   2.761  0.00  0.00    -0.309 N 
ATOM     20  C   UNL     1       1.559   4.046   1.657  0.00  0.00    +0.269 C 
ATOM     21  O   UNL     1       2.527   4.769   1.759  0.00  0.00    -0.270 OA
ATOM     22  H   UNL     1       0.119   3.073   2.679  0.00  0.00    +0.149 HD
BRANCH  19  23
ATOM     23  C   UNL     1       1.341   4.095   4.083  0.00  0.00    +0.070 C 
ATOM     24  C   UNL     1       2.441   3.160   4.590  0.00  0.00    +0.028 C 
BRANCH  23  26
ATOM     25  C   UNL     1      -0.886   5.093   4.617  0.00  0.00    +0.005 C 
ATOM     26  C   UNL     1       0.160   4.067   5.056  0.00  0.00    +0.018 C 
ENDBRANCH  23  26
ENDBRANCH  19  23
ENDBRANCH   1  20
BRANCH   1  27
ATOM     27  O   UNL     1       2.029   4.086  -0.668  0.00  0.00    -0.360 OA
ATOM     28  H   UNL     1       2.944   3.819  -0.506  0.00  0.00    +0.213 HD
ENDBRANCH   1  27
TORSDOF 5
