REMARK  Name = ZINC32815565
REMARK  6 active torsions:
REMARK  status: ('A' for Active; 'I' for Inactive)
REMARK    1  A    between atoms: C_1  and  C_2
REMARK    2  A    between atoms: C_5  and  C_7
REMARK    3  A    between atoms: C_9  and  C_12
REMARK    4  A    between atoms: C_12  and  C_13
REMARK    5  A    between atoms: N_15  and  C_16
REMARK    6  A    between atoms: C_16  and  C_17
REMARK                            x       y       z     vdW  Elec       q    Type
REMARK                         _______ _______ _______ _____ _____    ______ ____
ROOT
ATOM      1  C   UNL     1       7.355  -1.236   1.526  0.00  0.00    +0.219 C 
ATOM      2  O   UNL     1       7.746  -1.037   2.657  0.00  0.00    -0.275 OA
ATOM      3  N   UNL     1       6.051  -1.073   1.226  0.00  0.00    -0.311 N 
ATOM      4  H   UNL     1       5.696  -1.253   0.201  0.00  0.00    +0.149 HD
ENDROOT
BRANCH   1   5
ATOM      5  C   UNL     1       8.326  -1.665   0.457  0.00  0.00    +0.151 C 
BRANCH   5   8
ATOM      6  C   UNL     1      11.453  -0.817   2.204  0.00  0.00    +0.144 A 
ATOM      7  N   UNL     1      10.239  -0.745   1.670  0.00  0.00    -0.240 NA
ATOM      8  C   UNL     1       9.708  -1.772   1.048  0.00  0.00    +0.058 A 
ATOM      9  C   UNL     1      10.409  -2.932   0.934  0.00  0.00    +0.071 A 
ATOM     10  S   UNL     1      11.918  -2.492   1.787  0.00  0.00    -0.072 S 
BRANCH   6  15
ATOM     11  C   UNL     1      12.661   3.533   4.385  0.00  0.00    +0.086 C 
ATOM     12  C   UNL     1      12.749   2.111   3.892  0.00  0.00    +0.103 A 
ATOM     13  C   UNL     1      13.799   1.284   4.063  0.00  0.00    +0.045 A 
ATOM     14  C   UNL     1      13.465   0.060   3.451  0.00  0.00    +0.052 A 
ATOM     15  C   UNL     1      12.213   0.209   2.935  0.00  0.00    +0.160 A 
ATOM     16  O   UNL     1      11.795   1.461   3.206  0.00  0.00    -0.458 OA
ENDBRANCH   6  15
ENDBRANCH   5   8
ENDBRANCH   1   5
BRANCH   3  17
ATOM     17  C   UNL     1       5.107  -0.655   2.265  0.00  0.00    +0.139 C 
BRANCH  17  18
ATOM     18  C   UNL     1       3.725  -0.548   1.674  0.00  0.00    -0.027 A 
ATOM     19  C   UNL     1       2.885  -1.646   1.677  0.00  0.00    +0.009 A 
ATOM     20  C   UNL     1       1.617  -1.553   1.135  0.00  0.00    +0.050 A 
ATOM     21  C   UNL     1       1.183  -0.356   0.589  0.00  0.00    +0.166 A 
ATOM     22  C   UNL     1       2.028   0.751   0.586  0.00  0.00    +0.167 A 
ATOM     23  C   UNL     1       3.298   0.650   1.131  0.00  0.00    +0.054 A 
ATOM     24  O   UNL     1       1.376   1.797  -0.001  0.00  0.00    -0.453 OA
ATOM     25  C   UNL     1      -0.018   1.436   0.010  0.00  0.00    +0.466 C 
ATOM     26  O   UNL     1       0.002  -0.004   0.002  0.00  0.00    -0.453 OA
ENDBRANCH  17  18
ENDBRANCH   3  17
TORSDOF 5
