REMARK  Name = ZINC44932872
REMARK  4 active torsions:
REMARK  status: ('A' for Active; 'I' for Inactive)
REMARK    1  A    between atoms: C_1  and  C_2
REMARK    2  A    between atoms: C_2  and  N_9
REMARK    3  A    between atoms: C_10  and  C_12
REMARK    4  A    between atoms: C_12  and  C_19
REMARK                            x       y       z     vdW  Elec       q    Type
REMARK                         _______ _______ _______ _____ _____    ______ ____
ROOT
ATOM      1  N   UNL     1      -1.378  -0.491   0.059  0.00  0.00    -0.307 N 
ATOM      2  C   UNL     1      -2.254  -0.148  -0.907  0.00  0.00    +0.234 C 
ATOM      3  O   UNL     1      -1.899   0.564  -1.822  0.00  0.00    -0.274 OA
ATOM      4  H   UNL     1      -1.662  -1.060   0.791  0.00  0.00    +0.149 HD
ENDROOT
BRANCH   1   6
ATOM      5  C   UNL     1      -0.019   1.526   0.010  0.00  0.00    +0.033 C 
ATOM      6  C   UNL     1       0.002  -0.004   0.002  0.00  0.00    +0.053 C 
ATOM      7  C   UNL     1       0.632  -0.478  -1.307  0.00  0.00    +0.049 C 
ATOM      8  C   UNL     1       2.169  -0.637  -1.140  0.00  0.00    +0.168 C 
ATOM      9  S   UNL     1       2.220  -1.358   0.560  0.00  0.00    -0.029 S 
ATOM     10  O   UNL     1       3.389  -0.902   1.226  0.00  0.00    -0.174 OA
ATOM     11  O   UNL     1       1.952  -2.752   0.484  0.00  0.00    -0.174 OA
ATOM     12  C   UNL     1       0.751  -0.495   1.257  0.00  0.00    +0.191 C 
ENDBRANCH   1   6
BRANCH   2  13
ATOM     13  C   UNL     1      -3.674  -0.649  -0.849  0.00  0.00    +0.133 C 
ATOM     14  C   UNL     1      -3.658  -2.191  -0.801  0.00  0.00    +0.031 C 
ATOM     15  C   UNL     1      -4.972  -2.665  -0.241  0.00  0.00    +0.002 C 
ATOM     16  C   UNL     1      -5.998  -2.995  -1.342  0.00  0.00    +0.000 C 
ATOM     17  C   UNL     1      -5.998  -1.963  -2.486  0.00  0.00    +0.000 C 
ATOM     18  C   UNL     1      -5.889  -0.548  -1.986  0.00  0.00    +0.002 C 
ATOM     19  C   UNL     1      -4.402  -0.137  -2.000  0.00  0.00    +0.031 C 
BRANCH  13  20
ATOM     20  C   UNL     1      -4.308  -0.143   0.380  0.00  0.00    +0.079 C 
ATOM     21  N   UNL     1      -4.797   0.248   1.328  0.00  0.00    -0.195 NA
ENDBRANCH  13  20
ENDBRANCH   2  13
TORSDOF 3
