REMARK  Name = ZINC21374449
REMARK  8 active torsions:
REMARK  status: ('A' for Active; 'I' for Inactive)
REMARK    1  A    between atoms: C_1  and  C_2
REMARK    2  A    between atoms: C_2  and  C_4
REMARK    3  A    between atoms: C_2  and  O_16
REMARK    4  A    between atoms: C_4  and  C_6
REMARK    5  A    between atoms: O_16  and  C_17
REMARK    6  A    between atoms: C_17  and  C_19
REMARK    7  A    between atoms: C_21  and  S_26
REMARK    8  A    between atoms: S_26  and  N_29
REMARK                            x       y       z     vdW  Elec       q    Type
REMARK                         _______ _______ _______ _____ _____    ______ ____
ROOT
ATOM      1  O   UNL     1      -0.749   3.031   1.275  0.00  0.00    -0.450 OA
ENDROOT
BRANCH   1   3
ATOM      2  C   UNL     1      -0.013   1.086   0.008  0.00  0.00    +0.061 C 
ATOM      3  C   UNL     1      -0.729   1.579   1.267  0.00  0.00    +0.244 C 
BRANCH   3   4
ATOM      4  C   UNL     1      -2.143   1.058   1.278  0.00  0.00    +0.205 C 
ATOM      5  O   UNL     1      -3.058   1.776   0.930  0.00  0.00    -0.288 OA
BRANCH   4   6
ATOM      6  C   UNL     1      -2.404  -0.272   1.693  0.00  0.00    +0.046 A 
ATOM      7  C   UNL     1      -1.481  -1.205   2.113  0.00  0.00    +0.095 A 
ATOM      8  N   UNL     1      -2.109  -2.355   2.425  0.00  0.00    -0.360 N 
ATOM      9  H   UNL     1      -1.529  -3.219   2.782  0.00  0.00    +0.165 HD
ATOM     10  C   UNL     1      -3.470  -2.237   2.227  0.00  0.00    +0.047 A 
ATOM     11  C   UNL     1      -3.721  -0.934   1.768  0.00  0.00    +0.010 A 
ATOM     12  C   UNL     1      -5.024  -0.531   1.489  0.00  0.00    +0.011 A 
ATOM     13  C   UNL     1      -6.065  -1.415   1.669  0.00  0.00    +0.001 A 
ATOM     14  C   UNL     1      -5.819  -2.701   2.126  0.00  0.00    +0.002 A 
ATOM     15  C   UNL     1      -4.534  -3.116   2.398  0.00  0.00    +0.026 A 
ENDBRANCH   4   6
ENDBRANCH   3   4
ENDBRANCH   1   3
BRANCH   1  16
ATOM     16  C   UNL     1       0.288   3.654   1.869  0.00  0.00    +0.341 C 
ATOM     17  O   UNL     1       1.184   3.001   2.366  0.00  0.00    -0.245 OA
BRANCH  16  18
ATOM     18  C   UNL     1       0.336   5.129   1.915  0.00  0.00    +0.075 A 
ATOM     19  C   UNL     1      -0.693   5.882   1.344  0.00  0.00    +0.044 A 
ATOM     20  C   UNL     1      -0.643   7.259   1.391  0.00  0.00    +0.106 A 
ATOM     21  C   UNL     1       0.424   7.896   2.002  0.00  0.00    +0.029 A 
ATOM     22  C   UNL     1       1.446   7.158   2.569  0.00  0.00    +0.018 A 
ATOM     23  C   UNL     1       1.406   5.778   2.534  0.00  0.00    +0.032 A 
ATOM     24 BR   UNL     1       2.801   4.769   3.318  0.00  0.00    -0.049 Br
BRANCH  20  25
ATOM     25  S   UNL     1      -1.940   8.211   0.672  0.00  0.00    +0.056 S 
ATOM     26  O   UNL     1      -1.388   9.485   0.368  0.00  0.00    -0.153 OA
ATOM     27  O   UNL     1      -2.547   7.388  -0.315  0.00  0.00    -0.153 OA
BRANCH  25  28
ATOM     28  N   UNL     1      -3.078   8.456   1.849  0.00  0.00    -0.204 NA
ATOM     29  H   UNL     1      -3.908   9.050   1.439  0.00  0.00    +0.144 HD
ATOM     30  H   UNL     1      -2.622   8.997   2.692  0.00  0.00    +0.144 HD
ENDBRANCH  25  28
ENDBRANCH  20  25
ENDBRANCH  16  18
ENDBRANCH   1  16
TORSDOF 7
