REMARK  Name = ZINC08830336
REMARK  5 active torsions:
REMARK  status: ('A' for Active; 'I' for Inactive)
REMARK    1  A    between atoms: N_10  and  S_11
REMARK    2  A    between atoms: S_11  and  C_14
REMARK    3  A    between atoms: C_17  and  C_20
REMARK    4  A    between atoms: N_22  and  C_23
REMARK    5  A    between atoms: C_24  and  C_28
REMARK                            x       y       z     vdW  Elec       q    Type
REMARK                         _______ _______ _______ _____ _____    ______ ____
ROOT
ATOM      1  C   UNL     1       5.592   0.908   1.108  0.00  0.00    +0.109 A 
ATOM      2  C   UNL     1       5.168   2.174   1.470  0.00  0.00    +0.029 A 
ATOM      3  C   UNL     1       5.612   2.744   2.646  0.00  0.00    +0.015 A 
ATOM      4  C   UNL     1       6.490   2.039   3.471  0.00  0.00    +0.037 A 
ATOM      5  C   UNL     1       6.913   0.761   3.100  0.00  0.00    +0.015 A 
ATOM      6  C   UNL     1       6.458   0.202   1.924  0.00  0.00    +0.029 A 
ENDROOT
BRANCH   4   7
ATOM      7  C   UNL     1       6.969   2.643   4.732  0.00  0.00    +0.249 C 
ATOM      8  O   UNL     1       6.599   3.756   5.052  0.00  0.00    -0.270 OA
ATOM      9  N   UNL     1       7.817   1.960   5.527  0.00  0.00    -0.275 N 
ATOM     10  H   UNL     1       8.112   1.072   5.271  0.00  0.00    +0.156 HD
BRANCH   9  11
ATOM     11  C   UNL     1       8.266   2.526   6.708  0.00  0.00    +0.084 A 
ATOM     12  C   UNL     1       9.137   1.978   7.639  0.00  0.00    +0.065 A 
ATOM     13  C   UNL     1       9.442   2.791   8.795  0.00  0.00    +0.022 A 
ATOM     14  C   UNL     1       8.844   3.995   8.839  0.00  0.00    +0.048 A 
ATOM     15  S   UNL     1       7.889   4.034   7.339  0.00  0.00    -0.081 S 
BRANCH  12  16
ATOM     16  C   UNL     1       9.718   0.644   7.460  0.00  0.00    +0.244 C 
ATOM     17  O   UNL     1       9.439  -0.014   6.475  0.00  0.00    -0.270 OA
ATOM     18  N   UNL     1      10.560   0.145   8.387  0.00  0.00    -0.325 N 
ATOM     19  H   UNL     1      10.782   0.670   9.172  0.00  0.00    +0.145 HD
ATOM     20  H   UNL     1      10.944  -0.738   8.269  0.00  0.00    +0.145 HD
ENDBRANCH  12  16
ENDBRANCH   9  11
ENDBRANCH   4   7
BRANCH   1  21
ATOM     21  S   UNL     1       5.021   0.188  -0.396  0.00  0.00    +0.075 S 
ATOM     22  O   UNL     1       5.986  -0.785  -0.772  0.00  0.00    -0.150 OA
ATOM     23  O   UNL     1       4.652   1.265  -1.247  0.00  0.00    -0.150 OA
BRANCH  21  33
ATOM     24  C   UNL     1      -0.019   1.372  -0.013  0.00  0.00    +0.000 A 
ATOM     25  C   UNL     1       1.166   2.085  -0.021  0.00  0.00    +0.002 A 
ATOM     26  C   UNL     1       2.372   1.414  -0.030  0.00  0.00    +0.025 A 
ATOM     27  C   UNL     1       2.395   0.024  -0.031  0.00  0.00    +0.054 A 
ATOM     28  C   UNL     1       1.207  -0.690  -0.020  0.00  0.00    -0.025 A 
ATOM     29  C   UNL     1       0.001  -0.009  -0.013  0.00  0.00    +0.005 A 
ATOM     30  C   UNL     1       1.194  -2.196  -0.011  0.00  0.00    +0.038 C 
ATOM     31  C   UNL     1       2.526  -2.746  -0.520  0.00  0.00    +0.025 C 
ATOM     32  C   UNL     1       3.668  -2.075   0.254  0.00  0.00    +0.132 C 
ATOM     33  N   UNL     1       3.629  -0.637  -0.046  0.00  0.00    -0.203 N 
ENDBRANCH  21  33
ENDBRANCH   1  21
TORSDOF 5
