REMARK  Name = ZINC39699323
REMARK  10 active torsions:
REMARK  status: ('A' for Active; 'I' for Inactive)
REMARK    1  A    between atoms: C_1  and  C_2
REMARK    2  A    between atoms: C_4  and  C_42
REMARK    3  A    between atoms: C_7  and  C_14
REMARK    4  A    between atoms: C_14  and  C_16
REMARK    5  A    between atoms: C_14  and  N_28
REMARK    6  A    between atoms: N_21  and  C_22
REMARK    7  A    between atoms: N_28  and  C_29
REMARK    8  A    between atoms: N_28  and  C_35
REMARK    9  A    between atoms: C_29  and  C_30
REMARK   10  A    between atoms: C_35  and  C_36
REMARK                            x       y       z     vdW  Elec       q    Type
REMARK                         _______ _______ _______ _____ _____    ______ ____
ROOT
ATOM      1  C   UNL     1      -1.564  -6.247   1.859  0.00  0.00    -0.010 C 
ENDROOT
BRANCH   1   8
ATOM      2  C   UNL     1       4.416  -9.885  -0.828  0.00  0.00    +0.044 C 
ATOM      3  C   UNL     1       3.297  -9.338   0.020  0.00  0.00    -0.048 A 
ATOM      4  C   UNL     1       2.597 -10.213   0.852  0.00  0.00    +0.007 A 
ATOM      5  C   UNL     1       1.579  -9.779   1.639  0.00  0.00    -0.042 A 
ATOM      6  C   UNL     1       1.218  -8.361   1.607  0.00  0.00    -0.004 A 
ATOM      7  C   UNL     1       0.203  -7.880   2.380  0.00  0.00    -0.006 C 
ATOM      8  C   UNL     1      -0.102  -6.398   2.284  0.00  0.00    +0.088 C 
ATOM      9  C   UNL     1       0.743  -5.575   1.338  0.00  0.00    +0.223 C 
ATOM     10  O   UNL     1       0.541  -4.381   1.221  0.00  0.00    -0.275 OA
ATOM     11  N   UNL     1       1.702  -6.158   0.638  0.00  0.00    -0.285 N 
ATOM     12  C   UNL     1       1.974  -7.460   0.720  0.00  0.00    +0.041 A 
ATOM     13  C   UNL     1       3.014  -8.011  -0.051  0.00  0.00    +0.027 A 
ATOM     14  C   UNL     1       0.835 -10.740   2.529  0.00  0.00    +0.044 C 
ATOM     15  H   UNL     1       2.232  -5.612   0.037  0.00  0.00    +0.155 HD
ENDBRANCH   1   8
BRANCH   1  16
ATOM     16  C   UNL     1      -1.761  -6.873   0.476  0.00  0.00    +0.183 C 
ATOM     17  N   UNL     1      -0.830  -8.000   0.276  0.00  0.00    -0.229 N 
ATOM     18  N   UNL     1      -0.025  -7.643  -0.812  0.00  0.00    -0.064 NA
ATOM     19  N   UNL     1      -0.311  -6.540  -1.271  0.00  0.00    -0.061 NA
ATOM     20  N   UNL     1      -1.372  -5.926  -0.586  0.00  0.00    -0.213 N 
ATOM     21  H   UNL     1      -0.784  -8.819   0.793  0.00  0.00    +0.172 HD
BRANCH  20  22
ATOM     22  C   UNL     1      -1.970  -4.619  -0.865  0.00  0.00    +0.096 C 
ATOM     23  C   UNL     1      -2.751  -4.685  -2.178  0.00  0.00    +0.024 C 
ATOM     24  C   UNL     1      -3.376  -3.319  -2.470  0.00  0.00    +0.002 C 
ATOM     25  C   UNL     1      -2.270  -2.267  -2.587  0.00  0.00    +0.000 C 
ATOM     26  C   UNL     1      -1.489  -2.201  -1.274  0.00  0.00    +0.002 C 
ATOM     27  C   UNL     1      -0.864  -3.567  -0.982  0.00  0.00    +0.024 C 
ENDBRANCH  20  22
ENDBRANCH   1  16
BRANCH   1  28
ATOM     28  N   UNL     1      -2.430  -6.927   2.832  0.00  0.00    +0.389 N 
ATOM     29  H   UNL     1      -1.999  -7.794   3.117  0.00  0.00    -0.081 HD
BRANCH  28  30
ATOM     30  C   UNL     1      -2.618  -6.064   4.006  0.00  0.00    -0.035 C 
BRANCH  30  31
ATOM     31  C   UNL     1      -1.324  -5.969   4.772  0.00  0.00    -0.027 A 
ATOM     32  C   UNL     1      -0.541  -4.885   4.995  0.00  0.00    +0.009 A 
ATOM     33  C   UNL     1       0.616  -5.034   5.736  0.00  0.00    +0.008 A 
ATOM     34  C   UNL     1       0.934  -6.260   6.217  0.00  0.00    +0.045 A 
ATOM     35  S   UNL     1      -0.427  -7.254   5.628  0.00  0.00    -0.103 S 
ENDBRANCH  30  31
ENDBRANCH  28  30
BRANCH  28  36
ATOM     36  C   UNL     1      -3.733  -7.207   2.216  0.00  0.00    -0.046 C 
BRANCH  36  37
ATOM     37  C   UNL     1      -3.727  -8.619   1.628  0.00  0.00    +0.102 C 
ATOM     38  C   UNL     1      -5.057  -8.886   0.891  0.00  0.00    +0.032 C 
ATOM     39  C   UNL     1      -5.351 -10.364   1.266  0.00  0.00    +0.030 C 
ATOM     40  C   UNL     1      -4.781 -10.421   2.706  0.00  0.00    +0.160 C 
ATOM     41  O   UNL     1      -3.612  -9.583   2.681  0.00  0.00    -0.378 OA
ENDBRANCH  36  37
ENDBRANCH  28  36
ENDBRANCH   1  28
TORSDOF 8
