REMARK  Name = ZINC36939240
REMARK  5 active torsions:
REMARK  status: ('A' for Active; 'I' for Inactive)
REMARK    1  A    between atoms: C_1  and  C_2
REMARK    2  A    between atoms: C_2  and  C_3
REMARK    3  A    between atoms: C_3  and  C_4
REMARK    4  A    between atoms: C_5  and  C_13
REMARK    5  A    between atoms: C_13  and  C_14
REMARK                            x       y       z     vdW  Elec       q    Type
REMARK                         _______ _______ _______ _____ _____    ______ ____
ROOT
ATOM      1  C   UNL     1       0.739  -2.004  -1.265  0.00  0.00    +0.065 A 
ATOM      2  C   UNL     1       1.696  -2.781  -0.729  0.00  0.00    +0.067 A 
ATOM      3  N   UNL     1       1.339  -4.106  -0.949  0.00  0.00    -0.209 N 
ATOM      4  C   UNL     1       0.150  -4.041  -1.627  0.00  0.00    +0.197 A 
ATOM      5  N   UNL     1      -0.198  -2.799  -1.804  0.00  0.00    -0.225 NA
ATOM      6  S   UNL     1      -0.242  -5.757  -1.872  0.00  0.00    -0.021 S 
ATOM      7  C   UNL     1       1.193  -6.446  -1.062  0.00  0.00    +0.168 A 
ATOM      8  N   UNL     1       1.832  -5.379  -0.684  0.00  0.00    -0.150 NA
ATOM      9 BR   UNL     1       1.662  -8.261  -0.817  0.00  0.00    -0.019 Br
ENDROOT
BRANCH   2  10
ATOM     10  C   UNL     1       2.934  -2.302  -0.016  0.00  0.00    +0.054 C 
ATOM     11  C   UNL     1       4.068  -2.123  -1.027  0.00  0.00    +0.010 C 
ENDBRANCH   2  10
BRANCH   1  12
ATOM     12  C   UNL     1       0.718  -0.497  -1.257  0.00  0.00    +0.057 C 
BRANCH  12  14
ATOM     13  C   UNL     1      -0.019   1.526   0.010  0.00  0.00    +0.004 C 
ATOM     14  C   UNL     1       0.002  -0.004   0.002  0.00  0.00    +0.003 C 
ENDBRANCH  12  14
ENDBRANCH   1  12
TORSDOF 3
