REMARK  Name = ZINC13991264
REMARK  9 active torsions:
REMARK  status: ('A' for Active; 'I' for Inactive)
REMARK    1  A    between atoms: C_2  and  C_3
REMARK    2  A    between atoms: C_3  and  N_4
REMARK    3  A    between atoms: N_4  and  S_5
REMARK    4  A    between atoms: S_5  and  C_8
REMARK    5  A    between atoms: C_11  and  N_14
REMARK    6  A    between atoms: N_14  and  C_15
REMARK    7  A    between atoms: C_15  and  N_17
REMARK    8  A    between atoms: C_18  and  C_20
REMARK    9  A    between atoms: C_23  and  N_26
REMARK                            x       y       z     vdW  Elec       q    Type
REMARK                         _______ _______ _______ _____ _____    ______ ____
ROOT
ATOM      1  N   UNL     1      -3.076   3.043   4.820  0.00  0.00    -0.297 N 
ATOM      2  H   UNL     1      -3.587   3.868   4.814  0.00  0.00    +0.154 HD
ENDROOT
BRANCH   1   6
ATOM      3  C   UNL     1      -0.954   1.883   1.428  0.00  0.00    +0.105 A 
ATOM      4  C   UNL     1      -0.940   3.205   1.832  0.00  0.00    +0.030 A 
ATOM      5  C   UNL     1      -1.646   3.594   2.953  0.00  0.00    +0.025 A 
ATOM      6  C   UNL     1      -2.363   2.653   3.681  0.00  0.00    +0.033 A 
ATOM      7  C   UNL     1      -2.371   1.325   3.276  0.00  0.00    +0.025 A 
ATOM      8  C   UNL     1      -1.667   0.944   2.151  0.00  0.00    +0.030 A 
BRANCH   3   9
ATOM      9  S   UNL     1      -0.056   1.393  -0.006  0.00  0.00    +0.059 S 
ATOM     10  O   UNL     1       0.220   0.006   0.141  0.00  0.00    -0.153 OA
ATOM     11  O   UNL     1       0.971   2.357  -0.193  0.00  0.00    -0.153 OA
BRANCH   9  12
ATOM     12  N   UNL     1      -1.081   1.536  -1.299  0.00  0.00    -0.186 NA
ATOM     13  H   UNL     1      -1.353   0.747  -1.792  0.00  0.00    +0.148 HD
BRANCH  12  14
ATOM     14  C   UNL     1      -1.577   2.856  -1.697  0.00  0.00    +0.132 C 
BRANCH  14  16
ATOM     15  C   UNL     1      -3.401   3.171  -3.289  0.00  0.00    +0.005 C 
ATOM     16  C   UNL     1      -2.171   2.773  -3.080  0.00  0.00    -0.018 C 
ENDBRANCH  14  16
ENDBRANCH  12  14
ENDBRANCH   9  12
ENDBRANCH   3   9
ENDBRANCH   1   6
BRANCH   1  17
ATOM     17  C   UNL     1      -3.054   2.272   5.925  0.00  0.00    +0.141 C 
ATOM     18  S   UNL     1      -2.043   0.892   5.986  0.00  0.00    -0.018 S 
BRANCH  17  19
ATOM     19  N   UNL     1      -3.828   2.588   6.982  0.00  0.00    -0.264 N 
ATOM     20  C   UNL     1      -3.806   1.817   8.088  0.00  0.00    +0.250 C 
ATOM     21  O   UNL     1      -3.088   0.837   8.131  0.00  0.00    -0.270 OA
ATOM     22  H   UNL     1      -4.401   3.369   6.948  0.00  0.00    +0.157 HD
BRANCH  20  23
ATOM     23  C   UNL     1      -4.655   2.163   9.247  0.00  0.00    +0.037 A 
ATOM     24  C   UNL     1      -5.476   3.291   9.203  0.00  0.00    +0.015 A 
ATOM     25  C   UNL     1      -6.269   3.605  10.287  0.00  0.00    +0.033 A 
ATOM     26  C   UNL     1      -6.244   2.812  11.420  0.00  0.00    +0.126 A 
ATOM     27  C   UNL     1      -5.428   1.696  11.472  0.00  0.00    +0.033 A 
ATOM     28  C   UNL     1      -4.634   1.367  10.393  0.00  0.00    +0.015 A 
BRANCH  26  29
ATOM     29  N   UNL     1      -7.093   3.159  12.581  0.00  0.00    +0.056 N 
ATOM     30  O   UNL     1      -7.073   2.463  13.580  0.00  0.00    -0.126 OA
ATOM     31  O   UNL     1      -7.812   4.142  12.538  0.00  0.00    -0.126 OA
ENDBRANCH  26  29
ENDBRANCH  20  23
ENDBRANCH  17  19
ENDBRANCH   1  17
TORSDOF 9
