REMARK  Name = ZINC09299700
REMARK  5 active torsions:
REMARK  status: ('A' for Active; 'I' for Inactive)
REMARK    1  A    between atoms: C_4  and  N_7
REMARK    2  A    between atoms: N_7  and  N_8
REMARK    3  A    between atoms: C_10  and  C_20
REMARK    4  A    between atoms: C_15  and  O_16
REMARK    5  A    between atoms: N_22  and  C_23
REMARK                            x       y       z     vdW  Elec       q    Type
REMARK                         _______ _______ _______ _____ _____    ______ ____
ROOT
ATOM      1  N   UNL     1      -2.499  -3.119  -0.127  0.00  0.00    -0.276 N 
ATOM      2  C   UNL     1      -3.679  -2.451  -0.215  0.00  0.00    +0.224 A 
ATOM      3  C   UNL     1      -3.681  -1.046  -0.197  0.00  0.00    +0.099 A 
ATOM      4  C   UNL     1      -4.894  -0.358  -0.293  0.00  0.00    +0.030 A 
ATOM      5  C   UNL     1      -6.080  -1.103  -0.400  0.00  0.00    +0.018 A 
ATOM      6  C   UNL     1      -7.327  -0.454  -0.499  0.00  0.00    +0.015 A 
ATOM      7  C   UNL     1      -8.465  -1.186  -0.602  0.00  0.00    +0.046 A 
ATOM      8  C   UNL     1      -8.408  -2.594  -0.610  0.00  0.00    +0.120 A 
ATOM      9  C   UNL     1      -7.177  -3.251  -0.511  0.00  0.00    +0.092 A 
ATOM     10  C   UNL     1      -6.013  -2.517  -0.407  0.00  0.00    +0.141 A 
ATOM     11  O   UNL     1      -4.820  -3.141  -0.312  0.00  0.00    -0.437 OA
ATOM     12  H   UNL     1      -1.550  -2.562  -0.128  0.00  0.00    +0.187 HD
ENDROOT
BRANCH   3  13
ATOM     13  C   UNL     1      -2.415  -0.303  -0.084  0.00  0.00    +0.253 C 
ATOM     14  O   UNL     1      -1.356  -0.902  -0.097  0.00  0.00    -0.270 OA
ATOM     15  N   UNL     1      -2.429   1.039   0.034  0.00  0.00    -0.280 N 
ATOM     16  H   UNL     1      -3.385   1.572   0.138  0.00  0.00    +0.155 HD
BRANCH  15  17
ATOM     17  C   UNL     1      -1.226   1.755   0.023  0.00  0.00    +0.052 A 
ATOM     18  C   UNL     1      -0.105   1.222  -0.599  0.00  0.00    +0.026 A 
ATOM     19  C   UNL     1       1.079   1.933  -0.613  0.00  0.00    +0.022 A 
ATOM     20  C   UNL     1       1.150   3.174  -0.004  0.00  0.00    +0.042 A 
ATOM     21  C   UNL     1       0.036   3.706   0.622  0.00  0.00    +0.041 A 
ATOM     22  C   UNL     1      -1.151   2.998   0.639  0.00  0.00    +0.064 A 
ATOM     23 CL   UNL     1      -2.549   3.666   1.423  0.00  0.00    -0.082 Cl
ATOM     24 CL   UNL     1       2.640   4.065  -0.025  0.00  0.00    -0.083 Cl
ENDBRANCH  15  17
ENDBRANCH   3  13
BRANCH   1  25
ATOM     25  N   UNL     1      -2.490  -4.516  -0.035  0.00  0.00    -0.258 N 
ATOM     26  H   UNL     1      -3.438  -5.073  -0.034  0.00  0.00    +0.172 HD
BRANCH  25  30
ATOM     27  C   UNL     1       1.126  -6.563   0.234  0.00  0.00    +0.000 A 
ATOM     28  C   UNL     1      -0.065  -7.265   0.235  0.00  0.00    +0.002 A 
ATOM     29  C   UNL     1      -1.267  -6.589   0.147  0.00  0.00    +0.024 A 
ATOM     30  C   UNL     1      -1.277  -5.203   0.055  0.00  0.00    +0.046 A 
ATOM     31  C   UNL     1      -0.078  -4.501   0.049  0.00  0.00    +0.024 A 
ATOM     32  C   UNL     1       1.119  -5.183   0.143  0.00  0.00    +0.002 A 
ENDBRANCH  25  30
ENDBRANCH   1  25
BRANCH   8  33
ATOM     33  O   UNL     1      -9.442  -3.245  -0.703  0.00  0.00    -0.507 OA
ATOM     34  H   UNL     1      -9.401  -4.345  -0.709  0.00  0.00    +0.292 HD
ENDBRANCH   8  33
TORSDOF 5
