REMARK  Name = ZINC37976465
REMARK  6 active torsions:
REMARK  status: ('A' for Active; 'I' for Inactive)
REMARK    1  A    between atoms: C_1  and  C_2
REMARK    2  A    between atoms: C_5  and  C_7
REMARK    3  A    between atoms: C_7  and  C_9
REMARK    4  A    between atoms: C_7  and  N_10
REMARK    5  A    between atoms: C_11  and  C_13
REMARK    6  A    between atoms: C_18  and  N_19
REMARK                            x       y       z     vdW  Elec       q    Type
REMARK                         _______ _______ _______ _____ _____    ______ ____
ROOT
ATOM      1  N   UNL     1       2.468  -3.604  -1.377  0.00  0.00    -0.302 N 
ATOM      2  C   UNL     1       3.478  -4.428  -1.722  0.00  0.00    +0.247 C 
ATOM      3  O   UNL     1       3.446  -5.598  -1.395  0.00  0.00    -0.270 OA
ATOM      4  H   UNL     1       2.493  -2.670  -1.638  0.00  0.00    +0.150 HD
ENDROOT
BRANCH   2   5
ATOM      5  C   UNL     1       4.623  -3.908  -2.498  0.00  0.00    +0.068 A 
ATOM      6  C   UNL     1       4.408  -3.250  -3.710  0.00  0.00    +0.035 A 
ATOM      7  C   UNL     1       5.482  -2.767  -4.430  0.00  0.00    +0.042 A 
ATOM      8  C   UNL     1       6.771  -2.934  -3.951  0.00  0.00    +0.022 A 
ATOM      9  C   UNL     1       6.990  -3.585  -2.751  0.00  0.00    +0.035 A 
ATOM     10  C   UNL     1       5.924  -4.067  -2.019  0.00  0.00    +0.138 A 
ATOM     11 CL   UNL     1       5.218  -1.949  -5.938  0.00  0.00    -0.084 Cl
BRANCH  10  12
ATOM     12  N   UNL     1       6.161  -4.758  -0.732  0.00  0.00    +0.057 N 
ATOM     13  O   UNL     1       7.290  -5.005  -0.377  0.00  0.00    -0.126 OA
ATOM     14  O   UNL     1       5.225  -5.075  -0.035  0.00  0.00    -0.126 OA
ENDBRANCH  10  12
ENDBRANCH   2   5
BRANCH   1  15
ATOM     15  C   UNL     1       1.333  -4.119  -0.608  0.00  0.00    +0.136 C 
ATOM     16  C   UNL     1       1.672  -4.090   0.884  0.00  0.00    +0.036 C 
BRANCH  15  21
ATOM     17  C   UNL     1      -1.562  -0.062  -1.385  0.00  0.00    +0.086 C 
ATOM     18  C   UNL     1      -1.138  -1.497  -1.202  0.00  0.00    +0.102 A 
ATOM     19  C   UNL     1      -1.950  -2.568  -1.239  0.00  0.00    +0.045 A 
ATOM     20  C   UNL     1      -1.139  -3.705  -1.022  0.00  0.00    +0.047 A 
ATOM     21  C   UNL     1       0.121  -3.261  -0.865  0.00  0.00    +0.125 A 
ATOM     22  O   UNL     1       0.116  -1.923  -0.981  0.00  0.00    -0.463 OA
ENDBRANCH  15  21
ENDBRANCH   1  15
TORSDOF 4
