REMARK  Name = ZINC14472376
REMARK  7 active torsions:
REMARK  status: ('A' for Active; 'I' for Inactive)
REMARK    1  A    between atoms: C_1  and  C_2
REMARK    2  A    between atoms: C_2  and  C_3
REMARK    3  A    between atoms: C_2  and  C_4
REMARK    4  A    between atoms: C_2  and  N_5
REMARK    5  A    between atoms: C_6  and  C_8
REMARK    6  A    between atoms: C_21  and  C_24
REMARK    7  A    between atoms: C_28  and  N_30
REMARK                            x       y       z     vdW  Elec       q    Type
REMARK                         _______ _______ _______ _____ _____    ______ ____
ROOT
ATOM      1  C   UNL     1      -8.374   4.835   1.063  0.00  0.00    +0.037 A 
ATOM      2  C   UNL     1      -8.523   4.529  -0.293  0.00  0.00    +0.015 A 
ATOM      3  C   UNL     1      -7.742   3.555  -0.868  0.00  0.00    +0.024 A 
ATOM      4  C   UNL     1      -6.797   2.867  -0.110  0.00  0.00    +0.031 A 
ATOM      5  C   UNL     1      -6.638   3.185   1.247  0.00  0.00    -0.019 A 
ATOM      6  C   UNL     1      -7.423   4.152   1.826  0.00  0.00    +0.019 A 
ATOM      7  C   UNL     1      -5.591   2.460   2.000  0.00  0.00    +0.049 C 
ATOM      8  C   UNL     1      -5.685   2.243   3.466  0.00  0.00    -0.023 C 
ATOM      9  C   UNL     1      -5.082   1.098   3.764  0.00  0.00    -0.030 C 
ATOM     10  C   UNL     1      -4.561   0.434   2.488  0.00  0.00    +0.033 C 
ATOM     11  C   UNL     1      -5.526   1.001   1.448  0.00  0.00    +0.029 C 
ATOM     12  C   UNL     1      -4.995   1.133   0.031  0.00  0.00    +0.105 C 
ATOM     13  N   UNL     1      -6.032   1.873  -0.719  0.00  0.00    -0.336 N 
ATOM     14  H   UNL     1      -6.182   1.664  -1.654  0.00  0.00    +0.147 HD
ENDROOT
BRANCH  12  15
ATOM     15  C   UNL     1      -3.700   1.904   0.030  0.00  0.00    -0.025 A 
ATOM     16  C   UNL     1      -3.715   3.279  -0.111  0.00  0.00    +0.005 A 
ATOM     17  C   UNL     1      -2.527   3.986  -0.112  0.00  0.00    +0.003 A 
ATOM     18  C   UNL     1      -1.325   3.319   0.032  0.00  0.00    +0.033 A 
ATOM     19  C   UNL     1      -1.310   1.944   0.168  0.00  0.00    +0.127 A 
ATOM     20  C   UNL     1      -2.498   1.236   0.170  0.00  0.00    +0.038 A 
BRANCH  19  21
ATOM     21  N   UNL     1      -0.023   1.228   0.317  0.00  0.00    +0.056 N 
ATOM     22  O   UNL     1      -0.010   0.017   0.442  0.00  0.00    -0.126 OA
ATOM     23  O   UNL     1       1.024   1.851   0.311  0.00  0.00    -0.126 OA
ENDBRANCH  19  21
ENDBRANCH  12  15
BRANCH   1  25
ATOM     24  N   UNL     1     -10.132   6.532   0.946  0.00  0.00    -0.307 N 
ATOM     25  C   UNL     1      -9.216   5.874   1.685  0.00  0.00    +0.244 C 
ATOM     26  O   UNL     1      -9.084   6.138   2.865  0.00  0.00    -0.270 OA
ATOM     27  H   UNL     1     -10.237   6.321   0.005  0.00  0.00    +0.150 HD
BRANCH  24  29
ATOM     28  C   UNL     1     -10.077   8.675   2.123  0.00  0.00    +0.031 C 
ATOM     29  C   UNL     1     -10.968   7.564   1.564  0.00  0.00    +0.026 C 
ATOM     30  C   UNL     1     -11.916   8.148   0.515  0.00  0.00    +0.031 C 
ATOM     31  C   UNL     1     -11.785   6.945   2.701  0.00  0.00    +0.031 C 
ENDBRANCH  24  29
ENDBRANCH   1  25
TORSDOF 4
