REMARK  Name = ZINC09486889
REMARK  4 active torsions:
REMARK  status: ('A' for Active; 'I' for Inactive)
REMARK    1  A    between atoms: C_4  and  O_29
REMARK    2  A    between atoms: C_5  and  C_7
REMARK    3  A    between atoms: CA_13  and  C_15
REMARK    4  A    between atoms: N_19  and  C_22
REMARK                            x       y       z     vdW  Elec       q    Type
REMARK                         _______ _______ _______ _____ _____    ______ ____
ROOT
ATOM      1  C   UNL     1      -1.333   2.112   0.019  0.00  0.00    -0.024 C 
ATOM      2  C   UNL     1      -1.735   2.473   1.429  0.00  0.00    +0.077 C 
ATOM      3  C   UNL     1      -3.258   2.787   1.146  0.00  0.00    +0.083 C 
ATOM      4  CA  UNL     1      -3.664   1.575   0.390  0.00  0.00    +0.057 C 
ATOM      5  C   UNL     1      -3.636   3.342   2.442  0.00  0.00    +0.229 C 
ATOM      6  O   UNL     1      -4.694   3.217   3.020  0.00  0.00    -0.275 OA
ATOM      7  N   UNL     1      -2.530   4.040   2.862  0.00  0.00    -0.210 N 
ATOM      8  C   UNL     1      -1.407   3.729   2.141  0.00  0.00    +0.229 C 
ATOM      9  O   UNL     1      -0.367   4.350   2.096  0.00  0.00    -0.275 OA
ATOM     10  N   UNL     1      -2.453   1.219  -0.405  0.00  0.00    +0.394 N 
ATOM     11  H1  UNL     1      -2.200   0.239  -0.232  0.00  0.00    -0.084 HD
ATOM     12  H2  UNL     1      -2.643   1.352  -1.405  0.00  0.00    -0.084 HD
ENDROOT
BRANCH   7  13
ATOM     13  C   UNL     1      -2.548   4.967   3.914  0.00  0.00    +0.045 A 
ATOM     14  C   UNL     1      -1.382   5.625   4.280  0.00  0.00    +0.024 A 
ATOM     15  C   UNL     1      -1.403   6.542   5.313  0.00  0.00    +0.003 A 
ATOM     16  C   UNL     1      -2.582   6.797   5.989  0.00  0.00    +0.015 A 
ATOM     17  C   UNL     1      -3.745   6.138   5.630  0.00  0.00    +0.020 A 
ATOM     18  C   UNL     1      -3.731   5.224   4.594  0.00  0.00    +0.039 A 
ATOM     19 BR   UNL     1      -5.354   6.489   6.558  0.00  0.00    -0.050 Br
ENDBRANCH   7  13
BRANCH   1  24
ATOM     20  C   UNL     1       1.687   0.159   1.170  0.00  0.00    +0.000 A 
ATOM     21  C   UNL     1       2.394   0.016  -0.010  0.00  0.00    +0.004 A 
ATOM     22  C   UNL     1       1.897   0.551  -1.183  0.00  0.00    +0.045 A 
ATOM     23  C   UNL     1       0.690   1.234  -1.176  0.00  0.00    +0.118 A 
ATOM     24  C   UNL     1      -0.017   1.376   0.009  0.00  0.00    -0.019 A 
ATOM     25  C   UNL     1       0.483   0.838   1.179  0.00  0.00    +0.005 A 
BRANCH  23  26
ATOM     26  O   UNL     1       0.200   1.762  -2.328  0.00  0.00    -0.507 OA
ATOM     27  H   UNL     1       0.545   2.641  -2.537  0.00  0.00    +0.292 HD
ENDBRANCH  23  26
ENDBRANCH   1  24
BRANCH   4  28
ATOM     28  C   UNL     1      -4.022   0.459   1.337  0.00  0.00    +0.343 C 
ATOM     29  O   UNL     1      -3.224  -0.418   1.567  0.00  0.00    -0.248 OA
ATOM     30  OXT UNL     1      -5.228   0.441   1.927  0.00  0.00    -0.248 OA
ENDBRANCH   4  28
TORSDOF 4
