REMARK  Name = ZINC08687715
REMARK  5 active torsions:
REMARK  status: ('A' for Active; 'I' for Inactive)
REMARK    1  A    between atoms: C_1  and  C_2
REMARK    2  A    between atoms: C_6  and  N_8
REMARK    3  A    between atoms: C_18  and  N_19
REMARK    4  A    between atoms: N_19  and  N_20
REMARK    5  A    between atoms: C_21  and  C_23
REMARK                            x       y       z     vdW  Elec       q    Type
REMARK                         _______ _______ _______ _____ _____    ______ ____
ROOT
ATOM      1  N   UNL     1      -0.055  -2.643   2.417  0.00  0.00    -0.186 N 
ATOM      2  C   UNL     1      -0.022  -1.899   3.535  0.00  0.00    +0.259 C 
ATOM      3  O   UNL     1      -0.062  -0.686   3.448  0.00  0.00    -0.269 OA
ATOM      4  C   UNL     1       0.062  -2.525   4.861  0.00  0.00    +0.046 A 
ATOM      5  C   UNL     1       0.096  -1.758   6.026  0.00  0.00    +0.014 A 
ATOM      6  C   UNL     1       0.174  -2.383   7.252  0.00  0.00    +0.001 A 
ATOM      7  C   UNL     1       0.220  -3.767   7.340  0.00  0.00    +0.001 A 
ATOM      8  C   UNL     1       0.187  -4.544   6.200  0.00  0.00    +0.009 A 
ATOM      9  C   UNL     1       0.108  -3.931   4.954  0.00  0.00    +0.000 A 
ATOM     10  C   UNL     1       0.069  -4.716   3.703  0.00  0.00    +0.061 C 
ATOM     11  C   UNL     1       0.111  -6.092   3.727  0.00  0.00    +0.101 C 
ATOM     12  C   UNL     1      -0.020  -3.985   2.434  0.00  0.00    +0.260 C 
ATOM     13  O   UNL     1      -0.058  -4.601   1.385  0.00  0.00    -0.269 OA
ENDROOT
BRANCH   1  19
ATOM     14  C   UNL     1      -2.805  -1.002  -1.147  0.00  0.00    +0.065 C 
ATOM     15  C   UNL     1      -1.437  -1.193  -0.545  0.00  0.00    +0.040 A 
ATOM     16  C   UNL     1      -0.324  -0.727  -1.219  0.00  0.00    +0.023 A 
ATOM     17  C   UNL     1       0.933  -0.906  -0.659  0.00  0.00    +0.005 A 
ATOM     18  C   UNL     1       1.026  -1.549   0.563  0.00  0.00    +0.044 A 
ATOM     19  C   UNL     1      -0.135  -1.992   1.184  0.00  0.00    +0.135 A 
ATOM     20  N   UNL     1      -1.317  -1.797   0.621  0.00  0.00    -0.236 NA
ENDBRANCH   1  19
BRANCH  11  21
ATOM     21  N   UNL     1       0.223  -6.789   2.566  0.00  0.00    -0.271 N 
ATOM     22  H   UNL     1       0.359  -6.318   1.729  0.00  0.00    +0.169 HD
BRANCH  21  23
ATOM     23  N   UNL     1       0.141  -8.188   2.577  0.00  0.00    -0.233 N 
ATOM     24  C   UNL     1       0.253  -8.879   1.426  0.00  0.00    +0.261 C 
ATOM     25  O   UNL     1       0.423  -8.289   0.377  0.00  0.00    -0.269 OA
ATOM     26  H   UNL     1       0.005  -8.659   3.414  0.00  0.00    +0.173 HD
BRANCH  24  27
ATOM     27  C   UNL     1       0.167 -10.354   1.438  0.00  0.00    +0.056 A 
ATOM     28  C   UNL     1      -0.035 -11.035   2.640  0.00  0.00    +0.014 A 
ATOM     29  C   UNL     1      -0.114 -12.412   2.645  0.00  0.00    +0.001 A 
ATOM     30  C   UNL     1       0.006 -13.119   1.462  0.00  0.00    +0.001 A 
ATOM     31  C   UNL     1       0.206 -12.453   0.267  0.00  0.00    +0.021 A 
ATOM     32  C   UNL     1       0.281 -11.074   0.246  0.00  0.00    +0.053 A 
ATOM     33 CL   UNL     1       0.525 -10.237  -1.256  0.00  0.00    -0.083 Cl
ENDBRANCH  24  27
ENDBRANCH  21  23
ENDBRANCH  11  21
TORSDOF 4
