REMARK  Name = ZINC12456144
REMARK  7 active torsions:
REMARK  status: ('A' for Active; 'I' for Inactive)
REMARK    1  A    between atoms: C_3  and  N_18
REMARK    2  A    between atoms: C_6  and  C_7
REMARK    3  A    between atoms: C_13  and  C_16
REMARK    4  A    between atoms: C_16  and  O_17
REMARK    5  A    between atoms: C_21  and  N_76
REMARK    6  A    between atoms: C_24  and  C_25
REMARK    7  A    between atoms: C_24  and  N_76
REMARK                            x       y       z     vdW  Elec       q    Type
REMARK                         _______ _______ _______ _____ _____    ______ ____
ROOT
ATOM      1  N   UNL     1       6.357   0.974   1.742  0.00  0.00    -0.330 N 
ATOM      2  C   UNL     1       5.778   0.867   3.088  0.00  0.00    +0.103 C 
ATOM      3  C   UNL     1       4.330   0.383   2.985  0.00  0.00    +0.003 C 
ATOM      4  C   UNL     1       3.525   1.375   2.140  0.00  0.00    -0.069 C 
ATOM      5  C   UNL     1       4.176   1.506   0.760  0.00  0.00    +0.003 C 
ATOM      6  C   UNL     1       5.629   1.955   0.928  0.00  0.00    +0.103 C 
ENDROOT
BRANCH   1   9
ATOM      7  C   UNL     1       9.785   1.738   0.691  0.00  0.00    +0.015 A 
ATOM      8  C   UNL     1       8.445   1.430   0.632  0.00  0.00    +0.024 A 
ATOM      9  C   UNL     1       7.710   1.284   1.806  0.00  0.00    +0.030 A 
ATOM     10  C   UNL     1       8.327   1.455   3.042  0.00  0.00    +0.024 A 
ATOM     11  C   UNL     1       9.668   1.757   3.108  0.00  0.00    +0.015 A 
ATOM     12  C   UNL     1      10.409   1.904   1.931  0.00  0.00    +0.037 A 
BRANCH  12  13
ATOM     13  C   UNL     1      11.845   2.234   1.998  0.00  0.00    +0.247 C 
ATOM     14  O   UNL     1      12.651   1.571   1.374  0.00  0.00    -0.270 OA
ATOM     15  N   UNL     1      12.264   3.270   2.751  0.00  0.00    -0.297 N 
ATOM     16  C   UNL     1      11.313   4.029   3.575  0.00  0.00    +0.108 C 
ATOM     17  C   UNL     1      11.437   5.514   3.237  0.00  0.00    +0.019 C 
ATOM     18  C   UNL     1      12.896   5.951   3.395  0.00  0.00    +0.009 C 
ATOM     19  C   UNL     1      13.776   5.158   2.426  0.00  0.00    +0.032 C 
ATOM     20  C   UNL     1      13.679   3.666   2.760  0.00  0.00    +0.113 C 
BRANCH  19  21
ATOM     21  C   UNL     1      15.228   5.618   2.562  0.00  0.00    +0.160 C 
BRANCH  21  22
ATOM     22  O   UNL     1      16.031   4.959   1.581  0.00  0.00    -0.395 OA
ATOM     23  H   UNL     1      16.966   5.203   1.609  0.00  0.00    +0.209 HD
ENDBRANCH  21  22
ENDBRANCH  19  21
ENDBRANCH  12  13
ENDBRANCH   1   9
BRANCH   4  24
ATOM     24  N   UNL     1       2.145   0.875   1.989  0.00  0.00    +0.381 N 
ATOM     25  H   UNL     1       1.862   0.396   2.852  0.00  0.00    -0.086 HD
ATOM     26  H   UNL     1       2.107   0.216   1.203  0.00  0.00    -0.086 HD
BRANCH  24  27
ATOM     27  C   UNL     1       1.220   1.995   1.730  0.00  0.00    -0.078 C 
BRANCH  27  28
ATOM     28  C   UNL     1      -0.200   1.448   1.579  0.00  0.00    -0.022 C 
ATOM     29  C   UNL     1      -0.657   0.840   2.906  0.00  0.00    -0.009 C 
ATOM     30  C   UNL     1      -0.638   1.917   3.993  0.00  0.00    +0.007 C 
ATOM     31  C   UNL     1      -1.584   3.054   3.601  0.00  0.00    -0.010 C 
ATOM     32  C   UNL     1      -3.004   2.507   3.449  0.00  0.00    +0.007 C 
ATOM     33  C   UNL     1      -3.023   1.430   2.363  0.00  0.00    -0.010 C 
ATOM     34  C   UNL     1      -2.078   0.293   2.755  0.00  0.00    +0.007 C 
ATOM     35  C   UNL     1      -2.567   2.038   1.035  0.00  0.00    +0.007 C 
ATOM     36  C   UNL     1      -1.146   2.585   1.186  0.00  0.00    -0.009 C 
ATOM     37  C   UNL     1      -1.127   3.662   2.273  0.00  0.00    +0.007 C 
ENDBRANCH  27  28
ENDBRANCH  24  27
ENDBRANCH   4  24
TORSDOF 7
