REMARK  Name = ZINC35024451
REMARK  5 active torsions:
REMARK  status: ('A' for Active; 'I' for Inactive)
REMARK    1  A    between atoms: C_1  and  C_2
REMARK    2  A    between atoms: C_20  and  O_41
REMARK    3  A    between atoms: C_24  and  C_40
REMARK    4  A    between atoms: C_28  and  C_33
REMARK    5  A    between atoms: C_33  and  C_34
REMARK                            x       y       z     vdW  Elec       q    Type
REMARK                         _______ _______ _______ _____ _____    ______ ____
ROOT
ATOM      1  C   UNL     1      -1.567   1.412  -0.214  0.00  0.00    +0.008 C 
ATOM      2  C   UNL     1      -1.642  -0.114  -0.154  0.00  0.00    -0.010 C 
ATOM      3  C   UNL     1      -3.061  -0.565   0.194  0.00  0.00    +0.004 C 
ATOM      4  C   UNL     1      -4.021  -0.256  -0.953  0.00  0.00    +0.008 C 
ATOM      5  C   UNL     1      -5.414   0.041  -0.393  0.00  0.00    +0.079 C 
ATOM      6  C   UNL     1      -5.295   0.942   0.811  0.00  0.00    +0.156 C 
ATOM      7  O   UNL     1      -4.553   1.902   0.789  0.00  0.00    -0.293 OA
ATOM      8  C   UNL     1      -6.103   0.662   2.005  0.00  0.00    +0.053 C 
ATOM      9  C   UNL     1      -5.822   1.194   3.190  0.00  0.00    +0.095 C 
ATOM     10  C   UNL     1      -4.690   2.046   3.515  0.00  0.00    +0.333 C 
ATOM     11  O   UNL     1      -4.910   3.189   3.833  0.00  0.00    -0.246 OA
ATOM     12  O   UNL     1      -3.402   1.672   3.489  0.00  0.00    -0.444 OA
ATOM     13  C   UNL     1      -2.817   1.242   4.715  0.00  0.00    +0.202 C 
ATOM     14  C   UNL     1      -1.425   0.724   4.442  0.00  0.00    +0.097 C 
ATOM     15  C   UNL     1      -1.388  -0.107   3.192  0.00  0.00    -0.020 C 
ATOM     16  C   UNL     1      -0.715   0.260   2.131  0.00  0.00    -0.030 C 
ATOM     17  C   UNL     1      -0.679  -0.632   0.915  0.00  0.00    +0.030 C 
ATOM     18  C   UNL     1      -0.386   1.841   4.376  0.00  0.00    +0.151 C 
ATOM     19  C   UNL     1      -0.389   2.594   5.685  0.00  0.00    -0.045 C 
ATOM     20  C   UNL     1       0.675   3.247   6.086  0.00  0.00    +0.010 C 
ATOM     21  C   UNL     1      -1.643   2.587   6.541  0.00  0.00    +0.023 C 
ATOM     22  C   UNL     1      -2.865   2.459   5.657  0.00  0.00    +0.070 C 
ATOM     23  C   UNL     1      -4.168   2.222   6.373  0.00  0.00    +0.085 C 
ATOM     24  N   UNL     1      -4.415   0.782   6.364  0.00  0.00    -0.308 N 
ATOM     25  C   UNL     1      -3.735   0.229   5.345  0.00  0.00    +0.258 C 
ATOM     26  O   UNL     1      -3.846  -0.926   4.993  0.00  0.00    -0.271 OA
ATOM     27  C   UNL     1      -1.511   1.420   7.520  0.00  0.00    +0.012 C 
ATOM     28  H   UNL     1      -4.978   0.302   6.986  0.00  0.00    +0.149 HD
ENDROOT
BRANCH  18  29
ATOM     29  O   UNL     1       0.918   1.283   4.164  0.00  0.00    -0.387 OA
ATOM     30  H   UNL     1       1.624   1.941   4.113  0.00  0.00    +0.210 HD
ENDBRANCH  18  29
BRANCH  23  31
ATOM     31  C   UNL     1      -4.248   2.810   7.771  0.00  0.00    +0.057 C 
BRANCH  31  32
ATOM     32  C   UNL     1      -5.638   2.613   8.320  0.00  0.00    -0.046 A 
ATOM     33  C   UNL     1      -6.609   3.573   8.104  0.00  0.00    +0.004 A 
ATOM     34  C   UNL     1      -7.884   3.392   8.607  0.00  0.00    +0.000 A 
ATOM     35  C   UNL     1      -8.188   2.251   9.325  0.00  0.00    +0.000 A 
ATOM     36  C   UNL     1      -7.217   1.290   9.540  0.00  0.00    +0.000 A 
ATOM     37  C   UNL     1      -5.944   1.469   9.033  0.00  0.00    +0.004 A 
ENDBRANCH  31  32
ENDBRANCH  23  31
TORSDOF 3
