REMARK  Name = ZINC07199689
REMARK  6 active torsions:
REMARK  status: ('A' for Active; 'I' for Inactive)
REMARK    1  A    between atoms: C_1  and  C_2
REMARK    2  A    between atoms: C_2  and  C_4
REMARK    3  A    between atoms: C_2  and  O_15
REMARK    4  A    between atoms: O_15  and  C_16
REMARK    5  A    between atoms: C_16  and  C_18
REMARK    6  A    between atoms: C_23  and  O_24
REMARK                            x       y       z     vdW  Elec       q    Type
REMARK                         _______ _______ _______ _____ _____    ______ ____
ROOT
ATOM      1  C   UNL     1      -4.234  -1.236  -1.429  0.00  0.00    +0.062 C 
ATOM      2  C   UNL     1      -3.775  -1.009   0.013  0.00  0.00    +0.259 C 
ENDROOT
BRANCH   2   3
ATOM      3  C   UNL     1      -3.648  -2.336   0.715  0.00  0.00    +0.259 C 
ATOM      4  O   UNL     1      -2.578  -2.682   1.169  0.00  0.00    -0.271 OA
ATOM      5  N   UNL     1      -4.724  -3.139   0.838  0.00  0.00    -0.266 N 
ATOM      6  C   UNL     1      -4.606  -4.368   1.488  0.00  0.00    +0.144 A 
ATOM      7  C   UNL     1      -5.722  -5.189   1.617  0.00  0.00    +0.082 A 
ATOM      8  C   UNL     1      -5.590  -6.408   2.259  0.00  0.00    +0.045 A 
ATOM      9  C   UNL     1      -4.344  -6.760   2.763  0.00  0.00    +0.061 A 
ATOM     10  C   UNL     1      -3.281  -5.892   2.603  0.00  0.00    +0.133 A 
ATOM     11  N   UNL     1      -3.436  -4.739   1.981  0.00  0.00    -0.237 NA
ATOM     12 CL   UNL     1      -4.125  -8.274   3.583  0.00  0.00    -0.082 Cl
ATOM     13 CL   UNL     1      -7.258  -4.694   0.975  0.00  0.00    -0.080 Cl
ATOM     14  H   UNL     1      -5.580  -2.862   0.475  0.00  0.00    +0.156 HD
ENDBRANCH   2   3
BRANCH   2  15
ATOM     15  O   UNL     1      -2.488  -0.337   0.011  0.00  0.00    -0.449 OA
BRANCH  15  16
ATOM     16  C   UNL     1      -2.501   1.010   0.019  0.00  0.00    +0.343 C 
ATOM     17  O   UNL     1      -3.559   1.608   0.027  0.00  0.00    -0.245 OA
BRANCH  16  18
ATOM     18  C   UNL     1      -1.232   1.759   0.018  0.00  0.00    +0.100 A 
ATOM     19  C   UNL     1      -0.013   1.076   0.008  0.00  0.00    +0.020 A 
ATOM     20  C   UNL     1       1.170   1.781   0.001  0.00  0.00    +0.021 A 
ATOM     21  C   UNL     1       1.157   3.168   0.008  0.00  0.00    +0.044 A 
ATOM     22  C   UNL     1      -0.041   3.856   0.024  0.00  0.00    +0.066 A 
ATOM     23  C   UNL     1      -1.241   3.162   0.031  0.00  0.00    +0.132 A 
ATOM     24 CL   UNL     1       2.655   4.045  -0.002  0.00  0.00    -0.083 Cl
BRANCH  23  25
ATOM     25  O   UNL     1      -2.418   3.835   0.046  0.00  0.00    -0.506 OA
ATOM     26  H   UNL     1      -2.768   4.036  -0.833  0.00  0.00    +0.292 HD
ENDBRANCH  23  25
ENDBRANCH  16  18
ENDBRANCH  15  16
ENDBRANCH   2  15
TORSDOF 5
