REMARK  Name = ZINC40182410
REMARK  11 active torsions:
REMARK  status: ('A' for Active; 'I' for Inactive)
REMARK    1  A    between atoms: C_1  and  C_2
REMARK    2  A    between atoms: C_2  and  C_3
REMARK    3  A    between atoms: C_2  and  C_4
REMARK    4  A    between atoms: C_7  and  O_10
REMARK    5  A    between atoms: O_10  and  C_11
REMARK    6  A    between atoms: C_11  and  C_12
REMARK    7  A    between atoms: C_12  and  C_13
REMARK    8  A    between atoms: C_13  and  C_14
REMARK    9  A    between atoms: C_14  and  N_15
REMARK   10  A    between atoms: C_23  and  C_24
REMARK   11  A    between atoms: N_29  and  C_31
REMARK                            x       y       z     vdW  Elec       q    Type
REMARK                         _______ _______ _______ _____ _____    ______ ____
ROOT
ATOM      1  N   UNL     1       2.240  -5.281   9.703  0.00  0.00    -0.327 N 
ATOM      2  C   UNL     1       1.473  -4.871  10.775  0.00  0.00    +0.069 A 
ATOM      3  C   UNL     1       1.171  -3.635  11.331  0.00  0.00    +0.028 A 
ATOM      4  C   UNL     1       0.348  -3.565  12.434  0.00  0.00    +0.002 A 
ATOM      5  C   UNL     1      -0.179  -4.721  12.993  0.00  0.00    +0.002 A 
ATOM      6  C   UNL     1       0.108  -5.946  12.460  0.00  0.00    +0.030 A 
ATOM      7  C   UNL     1       0.939  -6.041  11.341  0.00  0.00    +0.089 A 
ATOM      8  N   UNL     1       1.398  -7.083  10.601  0.00  0.00    -0.232 NA
ATOM      9  C   UNL     1       2.153  -6.638   9.640  0.00  0.00    +0.116 A 
ENDROOT
BRANCH   9  10
ATOM     10  C   UNL     1       2.837  -7.499   8.609  0.00  0.00    +0.082 C 
ATOM     11  C   UNL     1       1.814  -8.389   7.866  0.00  0.00    +0.109 C 
ATOM     12  C   UNL     1       2.546  -9.696   7.652  0.00  0.00    +0.221 C 
ATOM     13  O   UNL     1       2.210 -10.560   6.870  0.00  0.00    -0.275 OA
ATOM     14  N   UNL     1       3.624  -9.759   8.453  0.00  0.00    -0.271 N 
ATOM     15  C   UNL     1       3.743  -8.553   9.282  0.00  0.00    +0.125 C 
BRANCH  14  16
ATOM     16  C   UNL     1       4.519 -10.836   8.491  0.00  0.00    +0.040 A 
ATOM     17  C   UNL     1       5.665 -10.759   9.271  0.00  0.00    +0.027 A 
ATOM     18  C   UNL     1       6.548 -11.821   9.308  0.00  0.00    +0.051 A 
ATOM     19  C   UNL     1       6.293 -12.966   8.568  0.00  0.00    +0.162 A 
ATOM     20  C   UNL     1       5.145 -13.046   7.788  0.00  0.00    +0.164 A 
ATOM     21  C   UNL     1       4.257 -11.982   7.754  0.00  0.00    +0.073 A 
ATOM     22  O   UNL     1       4.874 -14.165   7.061  0.00  0.00    -0.485 OA
ATOM     23  C   UNL     1       5.964 -15.063   6.831  0.00  0.00    +0.270 C 
ATOM     24  C   UNL     1       6.703 -15.273   8.159  0.00  0.00    +0.270 C 
ATOM     25  O   UNL     1       7.177 -14.001   8.614  0.00  0.00    -0.485 OA
ENDBRANCH  14  16
ENDBRANCH   9  10
BRANCH   1  26
ATOM     26  C   UNL     1       3.000  -4.417   8.798  0.00  0.00    +0.123 C 
BRANCH  26  27
ATOM     27  C   UNL     1       2.112  -4.002   7.622  0.00  0.00    +0.025 C 
BRANCH  27  28
ATOM     28  C   UNL     1       2.907  -3.099   6.677  0.00  0.00    +0.043 C 
BRANCH  28  29
ATOM     29  C   UNL     1       2.019  -2.684   5.502  0.00  0.00    +0.229 C 
BRANCH  29  30
ATOM     30  O   UNL     1       2.761  -1.841   4.619  0.00  0.00    -0.492 OA
BRANCH  30  34
ATOM     31  C   UNL     1       0.797  -0.447   1.269  0.00  0.00    -0.045 A 
ATOM     32  C   UNL     1       2.114  -0.092   1.494  0.00  0.00    +0.007 A 
ATOM     33  C   UNL     1       2.774  -0.557   2.615  0.00  0.00    +0.046 A 
ATOM     34  C   UNL     1       2.114  -1.381   3.515  0.00  0.00    +0.121 A 
ATOM     35  C   UNL     1       0.792  -1.736   3.288  0.00  0.00    +0.046 A 
ATOM     36  C   UNL     1       0.135  -1.263   2.168  0.00  0.00    +0.007 A 
BRANCH  31  38
ATOM     37  C   UNL     1       0.058   1.591   0.066  0.00  0.00    +0.012 C 
ATOM     38  C   UNL     1       0.079   0.062   0.045  0.00  0.00    +0.013 C 
ATOM     39  C   UNL     1       0.807  -0.422  -1.210  0.00  0.00    +0.012 C 
ENDBRANCH  31  38
ENDBRANCH  30  34
ENDBRANCH  29  30
ENDBRANCH  28  29
ENDBRANCH  27  28
ENDBRANCH  26  27
ENDBRANCH   1  26
TORSDOF 9
