REMARK  Name = ZINC63234391
REMARK  8 active torsions:
REMARK  status: ('A' for Active; 'I' for Inactive)
REMARK    1  A    between atoms: C_1  and  C_2
REMARK    2  A    between atoms: C_5  and  C_8
REMARK    3  A    between atoms: C_8  and  N_9
REMARK    4  A    between atoms: N_9  and  C_10
REMARK    5  A    between atoms: N_9  and  C_11
REMARK    6  A    between atoms: C_11  and  N_12
REMARK    7  A    between atoms: N_15  and  C_27
REMARK    8  A    between atoms: C_16  and  C_18
REMARK                            x       y       z     vdW  Elec       q    Type
REMARK                         _______ _______ _______ _____ _____    ______ ____
ROOT
ATOM      1  N   UNL     1       5.126  -3.989   0.532  0.00  0.00    -0.257 N 
ATOM      2  C   UNL     1       5.772  -4.803  -0.327  0.00  0.00    +0.181 A 
ATOM      3  S   UNL     1       5.200  -6.307  -0.913  0.00  0.00    -0.011 S 
ATOM      4  N   UNL     1       6.947  -4.224  -0.643  0.00  0.00    -0.272 N 
ATOM      5  C   UNL     1       7.034  -3.018   0.038  0.00  0.00    +0.166 A 
ATOM      6  N   UNL     1       5.936  -2.865   0.745  0.00  0.00    -0.152 NA
ENDROOT
BRANCH   5   7
ATOM      7  C   UNL     1       8.111  -2.109  -0.023  0.00  0.00    +0.025 C 
ATOM      8  C   UNL     1       8.239  -0.910   0.669  0.00  0.00    +0.006 A 
ATOM      9  C   UNL     1       7.401  -0.248   1.595  0.00  0.00    +0.010 A 
ATOM     10  C   UNL     1       7.790   0.939   2.124  0.00  0.00    +0.001 A 
ATOM     11  C   UNL     1       9.008   1.533   1.778  0.00  0.00    +0.002 A 
ATOM     12  C   UNL     1       9.861   0.955   0.898  0.00  0.00    +0.026 A 
ATOM     13  C   UNL     1       9.524  -0.289   0.301  0.00  0.00    +0.043 A 
ATOM     14  N   UNL     1      10.168  -1.042  -0.566  0.00  0.00    -0.380 N 
ATOM     15  C   UNL     1       9.370  -2.239  -0.851  0.00  0.00    +0.152 C 
ATOM     16  H   UNL     1      11.034  -0.838  -0.953  0.00  0.00    +0.160 HD
ENDBRANCH   5   7
BRANCH   4  17
ATOM     17  C   UNL     1       7.915  -4.750  -1.509  0.00  0.00    +0.051 A 
ATOM     18  C   UNL     1       9.114  -5.232  -1.002  0.00  0.00    +0.028 A 
ATOM     19  C   UNL     1      10.067  -5.749  -1.858  0.00  0.00    +0.022 A 
ATOM     20  C   UNL     1       9.827  -5.787  -3.220  0.00  0.00    +0.041 A 
ATOM     21  C   UNL     1       8.633  -5.307  -3.728  0.00  0.00    +0.022 A 
ATOM     22  C   UNL     1       7.674  -4.794  -2.876  0.00  0.00    +0.028 A 
ATOM     23 CL   UNL     1      11.026  -6.438  -4.293  0.00  0.00    -0.084 Cl
ENDBRANCH   4  17
BRANCH   1  24
ATOM     24  C   UNL     1       3.811  -4.232   1.129  0.00  0.00    +0.071 C 
BRANCH  24  25
ATOM     25  N   UNL     1       2.809  -3.383   0.471  0.00  0.00    +0.393 N 
ATOM     26  C   UNL     1       3.107  -1.971   0.746  0.00  0.00    -0.093 C 
ATOM     27  H   UNL     1       2.835  -3.544  -0.525  0.00  0.00    -0.079 HD
BRANCH  25  28
ATOM     28  C   UNL     1       1.474  -3.712   0.986  0.00  0.00    -0.031 C 
BRANCH  28  33
ATOM     29  C   UNL     1      -0.416  -6.715  -2.413  0.00  0.00    +0.085 C 
ATOM     30  C   UNL     1      -0.145  -6.091  -1.068  0.00  0.00    +0.091 C 
ATOM     31  C   UNL     1      -0.864  -6.347   0.003  0.00  0.00    +0.017 C 
ATOM     32  C   UNL     1      -0.275  -5.542   1.148  0.00  0.00    +0.073 C 
ATOM     33  C   UNL     1       1.103  -5.136   0.570  0.00  0.00    +0.160 C 
ATOM     34  O   UNL     1       0.863  -5.217  -0.847  0.00  0.00    -0.495 OA
ENDBRANCH  28  33
ENDBRANCH  25  28
ENDBRANCH  24  25
ENDBRANCH   1  24
TORSDOF 6
