REMARK  Name = ZINC66106654
REMARK  5 active torsions:
REMARK  status: ('A' for Active; 'I' for Inactive)
REMARK    1  A    between atoms: C_1  and  C_2
REMARK    2  A    between atoms: C_3  and  C_16
REMARK    3  A    between atoms: N_7  and  C_8
REMARK    4  A    between atoms: C_11  and  O_14
REMARK    5  A    between atoms: O_14  and  C_15
REMARK                            x       y       z     vdW  Elec       q    Type
REMARK                         _______ _______ _______ _____ _____    ______ ____
ROOT
ATOM      1  C   UNL     1       0.037   1.339  -0.858  0.00  0.00    +0.054 C 
ATOM      2  C   UNL     1      -0.007  -0.149  -0.622  0.00  0.00    +0.016 A 
ATOM      3  C   UNL     1      -1.072  -0.954  -0.334  0.00  0.00    +0.083 A 
ATOM      4  N   UNL     1      -0.878  -2.254  -0.163  0.00  0.00    -0.224 NA
ATOM      5  C   UNL     1       0.327  -2.786  -0.267  0.00  0.00    +0.163 A 
ATOM      6  S   UNL     1       1.318  -1.348  -0.649  0.00  0.00    -0.057 S 
ATOM      7  N   UNL     1       0.717  -4.108  -0.123  0.00  0.00    -0.293 N 
ATOM      8  H   UNL     1       0.049  -4.800   0.001  0.00  0.00    +0.154 HD
ENDROOT
BRANCH   3   9
ATOM      9  C   UNL     1      -2.434  -0.379  -0.212  0.00  0.00    +0.003 A 
ATOM     10  C   UNL     1      -3.272  -0.782   0.827  0.00  0.00    +0.014 A 
ATOM     11  C   UNL     1      -4.539  -0.247   0.943  0.00  0.00    +0.048 A 
ATOM     12  C   UNL     1      -4.982   0.692   0.026  0.00  0.00    +0.142 A 
ATOM     13  C   UNL     1      -4.148   1.099  -1.016  0.00  0.00    +0.076 A 
ATOM     14  C   UNL     1      -2.876   0.570  -1.133  0.00  0.00    +0.037 A 
ATOM     15  N   UNL     1      -4.614   2.050  -1.935  0.00  0.00    -0.280 N 
ATOM     16  C   UNL     1      -5.710   2.778  -1.626  0.00  0.00    +0.255 C 
ATOM     17  O   UNL     1      -6.148   3.585  -2.419  0.00  0.00    -0.272 OA
ATOM     18  C   UNL     1      -6.385   2.583  -0.292  0.00  0.00    +0.325 C 
ATOM     19  O   UNL     1      -6.229   1.227   0.132  0.00  0.00    -0.481 OA
ATOM     20  H   UNL     1      -4.157   2.183  -2.780  0.00  0.00    +0.155 HD
ENDBRANCH   3   9
BRANCH   7  21
ATOM     21  C   UNL     1       2.076  -4.444  -0.157  0.00  0.00    +0.051 A 
ATOM     22  C   UNL     1       3.035  -3.559   0.333  0.00  0.00    +0.030 A 
ATOM     23  C   UNL     1       4.365  -3.933   0.280  0.00  0.00    +0.069 A 
ATOM     24  C   UNL     1       4.700  -5.170  -0.257  0.00  0.00    +0.214 A 
ATOM     25  N   UNL     1       3.764  -5.985  -0.714  0.00  0.00    -0.219 NA
ATOM     26  C   UNL     1       2.485  -5.664  -0.674  0.00  0.00    +0.138 A 
BRANCH  24  27
ATOM     27  O   UNL     1       6.003  -5.546  -0.315  0.00  0.00    -0.480 OA
ATOM     28  C   UNL     1       6.284  -6.829  -0.877  0.00  0.00    +0.279 C 
ENDBRANCH  24  27
ENDBRANCH   7  21
TORSDOF 3
