REMARK  Name = ZINC39365049
REMARK  9 active torsions:
REMARK  status: ('A' for Active; 'I' for Inactive)
REMARK    1  A    between atoms: C_1  and  N_2
REMARK    2  A    between atoms: N_2  and  C_3
REMARK    3  A    between atoms: C_3  and  N_5
REMARK    4  A    between atoms: C_6  and  C_30
REMARK    5  A    between atoms: C_9  and  C_11
REMARK    6  A    between atoms: C_13  and  C_24
REMARK    7  A    between atoms: C_33  and  N_36
REMARK    8  A    between atoms: N_36  and  C_37
REMARK    9  A    between atoms: N_36  and  C_38
REMARK                            x       y       z     vdW  Elec       q    Type
REMARK                         _______ _______ _______ _____ _____    ______ ____
ROOT
ATOM      1  N   UNL     1      -0.159  -2.332   0.292  0.00  0.00    -0.197 N 
ATOM      2  C   UNL     1      -1.341  -3.195   0.131  0.00  0.00    +0.136 C 
ATOM      3  C   UNL     1      -0.730  -4.598  -0.064  0.00  0.00    +0.083 C 
ATOM      4  C   UNL     1       0.761  -4.356   0.012  0.00  0.00    +0.055 C 
ATOM      5  N   UNL     1       0.986  -3.120   0.198  0.00  0.00    -0.185 NA
ENDROOT
BRANCH   4   6
ATOM      6  C   UNL     1       1.819  -5.420  -0.120  0.00  0.00    +0.152 C 
ATOM      7  C   UNL     1       3.167  -4.729  -0.204  0.00  0.00    -0.014 C 
ATOM      8  C   UNL     1       4.116  -5.069   0.763  0.00  0.00    +0.002 A 
ATOM      9  C   UNL     1       5.395  -4.473   0.759  0.00  0.00    +0.030 A 
ATOM     10  C   UNL     1       6.301  -4.822   1.713  0.00  0.00    +0.042 A 
ATOM     11  C   UNL     1       5.991  -5.759   2.698  0.00  0.00    +0.022 A 
ATOM     12  C   UNL     1       4.774  -6.367   2.753  0.00  0.00    +0.025 A 
ATOM     13  C   UNL     1       3.789  -6.055   1.799  0.00  0.00    +0.041 A 
ATOM     14  N   UNL     1       2.594  -6.653   1.855  0.00  0.00    -0.284 N 
ATOM     15  C   UNL     1       1.619  -6.415   1.001  0.00  0.00    +0.230 C 
ATOM     16  O   UNL     1       0.557  -6.997   1.114  0.00  0.00    -0.274 OA
ATOM     17 CL   UNL     1       7.873  -4.086   1.704  0.00  0.00    -0.084 Cl
ATOM     18  H   UNL     1       2.436  -7.297   2.564  0.00  0.00    +0.155 HD
BRANCH   7  19
ATOM     19  C   UNL     1       3.450  -3.781  -1.219  0.00  0.00    -0.020 A 
ATOM     20  C   UNL     1       3.702  -2.440  -0.884  0.00  0.00    +0.008 A 
ATOM     21  C   UNL     1       3.977  -1.527  -1.878  0.00  0.00    +0.001 A 
ATOM     22  C   UNL     1       4.005  -1.927  -3.204  0.00  0.00    +0.000 A 
ATOM     23  C   UNL     1       3.758  -3.246  -3.545  0.00  0.00    +0.001 A 
ATOM     24  C   UNL     1       3.487  -4.176  -2.566  0.00  0.00    +0.008 A 
ENDBRANCH   7  19
ENDBRANCH   4   6
BRANCH   2  25
ATOM     25  C   UNL     1      -2.202  -3.153   1.367  0.00  0.00    -0.025 A 
ATOM     26  C   UNL     1      -1.613  -3.107   2.617  0.00  0.00    +0.007 A 
ATOM     27  C   UNL     1      -2.399  -3.068   3.752  0.00  0.00    +0.023 A 
ATOM     28  C   UNL     1      -3.784  -3.076   3.636  0.00  0.00    +0.029 A 
ATOM     29  C   UNL     1      -4.372  -3.123   2.378  0.00  0.00    +0.023 A 
ATOM     30  C   UNL     1      -3.580  -3.156   1.248  0.00  0.00    +0.007 A 
BRANCH  28  31
ATOM     31  N   UNL     1      -4.582  -3.038   4.781  0.00  0.00    -0.336 N 
ATOM     32  C   UNL     1      -3.965  -2.869   6.099  0.00  0.00    +0.129 C 
ATOM     33  C   UNL     1      -6.037  -3.167   4.665  0.00  0.00    +0.129 C 
ENDBRANCH  28  31
ENDBRANCH   2  25
BRANCH   1  34
ATOM     34  C   UNL     1      -0.181  -0.999   0.491  0.00  0.00    +0.153 C 
ATOM     35  S   UNL     1      -1.677  -0.172   0.583  0.00  0.00    -0.017 S 
BRANCH  34  37
ATOM     36  C   UNL     1       0.951   1.131   0.835  0.00  0.00    +0.127 C 
ATOM     37  N   UNL     1       0.975  -0.318   0.618  0.00  0.00    -0.328 N 
ATOM     38  H   UNL     1       1.823  -0.786   0.566  0.00  0.00    +0.147 HD
ENDBRANCH  34  37
ENDBRANCH   1  34
TORSDOF 6
