REMARK  Name = ZINC32883012
REMARK  5 active torsions:
REMARK  status: ('A' for Active; 'I' for Inactive)
REMARK    1  A    between atoms: C_1  and  C_2
REMARK    2  A    between atoms: C_4  and  C_16
REMARK    3  A    between atoms: C_12  and  C_13
REMARK    4  A    between atoms: C_16  and  S_17
REMARK    5  A    between atoms: S_17  and  C_18
REMARK                            x       y       z     vdW  Elec       q    Type
REMARK                         _______ _______ _______ _____ _____    ______ ____
ROOT
ATOM      1  C   UNL     1      -2.474  -0.387  -0.675  0.00  0.00    +0.046 C 
ATOM      2  C   UNL     1      -1.056  -0.896  -0.636  0.00  0.00    -0.020 A 
ATOM      3  C   UNL     1      -0.790  -2.273  -0.560  0.00  0.00    +0.014 A 
ATOM      4  C   UNL     1      -1.733  -3.348  -0.510  0.00  0.00    -0.022 A 
ATOM      5  C   UNL     1      -1.299  -4.627  -0.438  0.00  0.00    +0.075 A 
ATOM      6  C   UNL     1       0.077  -4.922  -0.410  0.00  0.00    +0.250 A 
ATOM      7  O   UNL     1       0.453  -6.080  -0.346  0.00  0.00    -0.268 OA
ATOM      8  N   UNL     1       0.978  -3.920  -0.456  0.00  0.00    -0.317 N 
ATOM      9  H   UNL     1       2.054  -4.147  -0.434  0.00  0.00    +0.169 HD
ATOM     10  C   UNL     1       0.569  -2.629  -0.529  0.00  0.00    +0.089 A 
ATOM     11  S   UNL     1       1.405  -1.122  -0.609  0.00  0.00    -0.064 S 
ATOM     12  C   UNL     1      -0.003  -0.031  -0.673  0.00  0.00    +0.106 A 
ENDROOT
BRANCH  12  13
ATOM     13  C   UNL     1      -0.024   1.431  -0.752  0.00  0.00    +0.393 C 
ATOM     14  O   UNL     1      -1.086   2.023  -0.799  0.00  0.00    -0.240 OA
ATOM     15  O   UNL     1       1.134   2.122  -0.779  0.00  0.00    -0.240 OA
ENDBRANCH  12  13
BRANCH   4  16
ATOM     16  C   UNL     1      -3.211  -3.056  -0.538  0.00  0.00    +0.113 C 
BRANCH  16  17
ATOM     17  S   UNL     1      -3.788  -2.695   1.143  0.00  0.00    -0.080 S 
BRANCH  17  18
ATOM     18  C   UNL     1      -5.510  -2.378   0.944  0.00  0.00    +0.211 A 
ATOM     19  N   UNL     1      -6.170  -2.414  -0.211  0.00  0.00    -0.183 NA
ATOM     20  C   UNL     1      -7.451  -2.128  -0.005  0.00  0.00    +0.254 A 
ATOM     21  N   UNL     1      -8.500  -2.038  -0.832  0.00  0.00    -0.219 NA
ATOM     22  C   UNL     1      -9.694  -1.733  -0.376  0.00  0.00    +0.116 A 
ATOM     23  C   UNL     1      -9.889  -1.495   0.990  0.00  0.00    +0.040 A 
ATOM     24  C   UNL     1      -8.830  -1.584   1.836  0.00  0.00    +0.118 A 
ATOM     25  N   UNL     1      -7.608  -1.902   1.334  0.00  0.00    -0.203 N 
ATOM     26  N   UNL     1      -6.346  -2.075   1.917  0.00  0.00    -0.137 NA
ENDBRANCH  17  18
ENDBRANCH  16  17
ENDBRANCH   4  16
TORSDOF 4
