REMARK  Name = ZINC63372440
REMARK  3 active torsions:
REMARK  status: ('A' for Active; 'I' for Inactive)
REMARK    1  A    between atoms: C_2  and  C_3
REMARK    2  A    between atoms: C_3  and  N_4
REMARK    3  A    between atoms: C_7  and  C_14
REMARK                            x       y       z     vdW  Elec       q    Type
REMARK                         _______ _______ _______ _____ _____    ______ ____
ROOT
ATOM      1  C   UNL     1      -2.400  -1.751  -4.727  0.00  0.00    +0.121 C 
ATOM      2  C   UNL     1      -3.917  -1.573  -4.617  0.00  0.00    +0.128 C 
ATOM      3  C   UNL     1      -4.141  -0.397  -3.674  0.00  0.00    -0.035 C 
ATOM      4  C   UNL     1      -4.952  -0.831  -2.720  0.00  0.00    -0.001 A 
ATOM      5  C   UNL     1      -5.590  -0.143  -1.585  0.00  0.00    +0.010 A 
ATOM      6  C   UNL     1      -6.367  -0.912  -0.778  0.00  0.00    +0.001 A 
ATOM      7  C   UNL     1      -6.572  -2.280  -0.983  0.00  0.00    +0.002 A 
ATOM      8  C   UNL     1      -6.030  -2.993  -2.003  0.00  0.00    +0.026 A 
ATOM      9  C   UNL     1      -5.197  -2.292  -2.923  0.00  0.00    +0.043 A 
ATOM     10  N   UNL     1      -4.575  -2.725  -4.003  0.00  0.00    -0.376 N 
ATOM     11  C   UNL     1      -3.424   0.918  -3.864  0.00  0.00    +0.048 C 
ATOM     12  C   UNL     1      -1.940   0.571  -4.083  0.00  0.00    +0.086 C 
ATOM     13  N   UNL     1      -1.810  -0.461  -5.117  0.00  0.00    -0.307 NA
ATOM     14  H   UNL     1      -0.847  -0.574  -5.397  0.00  0.00    +0.123 HD
ATOM     15  H   UNL     1      -4.549  -3.636  -4.332  0.00  0.00    +0.160 HD
ENDROOT
BRANCH   1  19
ATOM     16  N   UNL     1      -0.590  -3.731  -2.092  0.00  0.00    -0.257 N 
ATOM     17  C   UNL     1      -1.081  -3.361  -3.291  0.00  0.00    +0.265 A 
ATOM     18  O   UNL     1      -0.866  -4.043  -4.279  0.00  0.00    -0.267 OA
ATOM     19  C   UNL     1      -1.842  -2.184  -3.396  0.00  0.00    +0.100 A 
ATOM     20  H   UNL     1      -1.707  -1.325  -0.276  0.00  0.00    +0.173 HD
ATOM     21  C   UNL     1      -2.068  -1.439  -2.277  0.00  0.00    +0.263 A 
ATOM     22  N   UNL     1      -1.550  -1.852  -1.075  0.00  0.00    -0.274 N 
ATOM     23  C   UNL     1      -0.828  -2.985  -0.997  0.00  0.00    +0.332 A 
ATOM     24  O   UNL     1      -0.381  -3.337   0.077  0.00  0.00    -0.246 OA
ATOM     25  O   UNL     1      -2.795  -0.304  -2.350  0.00  0.00    -0.267 OA
BRANCH  16  26
ATOM     26  C   UNL     1       0.204  -4.957  -1.977  0.00  0.00    +0.156 C 
BRANCH  26  28
ATOM     27  C   UNL     1      -0.691  -7.176  -2.466  0.00  0.00    +0.005 C 
ATOM     28  C   UNL     1      -0.709  -6.121  -1.689  0.00  0.00    -0.013 C 
ENDBRANCH  26  28
ENDBRANCH  16  26
ENDBRANCH   1  19
TORSDOF 3
