REMARK  Name = ZINC05017767
REMARK  9 active torsions:
REMARK  status: ('A' for Active; 'I' for Inactive)
REMARK    1  A    between atoms: C_1  and  C_2
REMARK    2  A    between atoms: C_8  and  C_9
REMARK    3  A    between atoms: C_8  and  N_54
REMARK    4  A    between atoms: C_10  and  C_25
REMARK    5  A    between atoms: C_11  and  C_17
REMARK    6  A    between atoms: C_21  and  O_23
REMARK    7  A    between atoms: O_23  and  C_24
REMARK    8  A    between atoms: C_25  and  O_27
REMARK    9  A    between atoms: O_27  and  C_28
REMARK                            x       y       z     vdW  Elec       q    Type
REMARK                         _______ _______ _______ _____ _____    ______ ____
ROOT
ATOM      1  C   UNL     1       3.350  -0.563   1.711  0.00  0.00    +0.008 C 
ATOM      2  C   UNL     1       3.365   0.774   1.519  0.00  0.00    +0.076 C 
ATOM      3  C   UNL     1       3.207   1.284   0.101  0.00  0.00    +0.144 C 
ATOM      4  N   UNL     1       3.048   0.273  -0.958  0.00  0.00    -0.288 N 
ATOM      5  C   UNL     1       3.054  -1.028  -0.609  0.00  0.00    +0.304 C 
ATOM      6  O   UNL     1       2.925  -1.870  -1.476  0.00  0.00    -0.252 OA
ATOM      7  N   UNL     1       3.198  -1.424   0.662  0.00  0.00    -0.274 N 
ATOM      8  H   UNL     1       2.942   0.538  -1.885  0.00  0.00    +0.151 HD
ATOM      9  H   UNL     1       3.194  -2.376   0.848  0.00  0.00    +0.156 HD
ENDROOT
BRANCH   3  10
ATOM     10  C   UNL     1       2.001   2.188   0.065  0.00  0.00    -0.019 A 
ATOM     11  C   UNL     1       0.737   1.648  -0.081  0.00  0.00    +0.006 A 
ATOM     12  C   UNL     1      -0.370   2.475  -0.121  0.00  0.00    +0.004 A 
ATOM     13  C   UNL     1      -0.217   3.843  -0.003  0.00  0.00    +0.045 A 
ATOM     14  C   UNL     1       1.050   4.387   0.142  0.00  0.00    +0.120 A 
ATOM     15  C   UNL     1       2.161   3.556   0.176  0.00  0.00    +0.051 A 
BRANCH  14  16
ATOM     16  O   UNL     1       1.204   5.733   0.253  0.00  0.00    -0.495 OA
ATOM     17  C   UNL     1       0.018   6.528   0.210  0.00  0.00    +0.277 C 
ENDBRANCH  14  16
ENDBRANCH   3  10
BRANCH   2  18
ATOM     18  C   UNL     1       3.523   1.667   2.604  0.00  0.00    +0.338 C 
ATOM     19  O   UNL     1       3.597   1.237   3.740  0.00  0.00    -0.245 OA
BRANCH  18  20
ATOM     20  O   UNL     1       3.594   2.996   2.380  0.00  0.00    -0.465 OA
ATOM     21  C   UNL     1       3.754   3.839   3.522  0.00  0.00    +0.280 C 
ENDBRANCH  18  20
ENDBRANCH   2  18
BRANCH   1  22
ATOM     22  C   UNL     1       3.504  -1.113   3.105  0.00  0.00    -0.026 C 
BRANCH  22  29
ATOM     23  C   UNL     1       4.285  -0.657   5.770  0.00  0.00    -0.013 C 
ATOM     24  C   UNL     1       5.111  -1.566   4.858  0.00  0.00    -0.071 C 
ATOM     25  C   UNL     1       6.590  -1.457   5.235  0.00  0.00    -0.016 C 
ATOM     26  C   UNL     1       7.416  -2.354   4.307  0.00  0.00    -0.003 C 
ATOM     27  C   UNL     1       7.171  -1.935   2.855  0.00  0.00    -0.019 C 
ATOM     28  C   UNL     1       5.674  -2.030   2.547  0.00  0.00    -0.078 C 
ATOM     29  N   UNL     1       4.939  -1.126   3.458  0.00  0.00    +0.385 N 
ATOM     30  H   UNL     1       5.315  -0.175   3.359  0.00  0.00    -0.081 HD
ENDBRANCH  22  29
ENDBRANCH   1  22
TORSDOF 6
