REMARK  Name = ZINC26455814
REMARK  7 active torsions:
REMARK  status: ('A' for Active; 'I' for Inactive)
REMARK    1  A    between atoms: C_1  and  C_2
REMARK    2  A    between atoms: C_5  and  C_8
REMARK    3  A    between atoms: C_10  and  C_23
REMARK    4  A    between atoms: C_11  and  C_16
REMARK    5  A    between atoms: C_16  and  N_17
REMARK    6  A    between atoms: C_23  and  O_25
REMARK    7  A    between atoms: O_25  and  C_26
REMARK                            x       y       z     vdW  Elec       q    Type
REMARK                         _______ _______ _______ _____ _____    ______ ____
ROOT
ATOM      1  C   UNL     1       1.036   3.722  -0.220  0.00  0.00    +0.144 C 
ATOM      2  C   UNL     1       1.138   2.210  -0.225  0.00  0.00    +0.079 C 
ATOM      3  C   UNL     1       0.014   1.504   0.021  0.00  0.00    +0.038 C 
ATOM      4  N   UNL     1      -1.175   2.131   0.261  0.00  0.00    -0.271 N 
ATOM      5  C   UNL     1      -1.321   3.462   0.282  0.00  0.00    +0.304 C 
ATOM      6  O   UNL     1      -2.420   3.930   0.509  0.00  0.00    -0.252 OA
ATOM      7  N   UNL     1      -0.290   4.300   0.054  0.00  0.00    -0.288 N 
ATOM      8  H   UNL     1      -2.082   1.538   0.450  0.00  0.00    +0.156 HD
ATOM      9  H   UNL     1      -0.422   5.392   0.070  0.00  0.00    +0.151 HD
ENDROOT
BRANCH   1  14
ATOM     10  C   UNL     1       4.714   5.745   3.752  0.00  0.00    +0.044 C 
ATOM     11  C   UNL     1       3.755   5.218   2.716  0.00  0.00    -0.050 A 
ATOM     12  C   UNL     1       4.106   5.229   1.379  0.00  0.00    +0.004 A 
ATOM     13  C   UNL     1       3.226   4.745   0.429  0.00  0.00    +0.006 A 
ATOM     14  C   UNL     1       1.995   4.249   0.816  0.00  0.00    -0.022 A 
ATOM     15  C   UNL     1       1.642   4.242   2.152  0.00  0.00    +0.006 A 
ATOM     16  C   UNL     1       2.524   4.721   3.103  0.00  0.00    +0.004 A 
ENDBRANCH   1  14
BRANCH   2  17
ATOM     17  C   UNL     1       2.369   1.561  -0.477  0.00  0.00    +0.339 C 
ATOM     18  O   UNL     1       2.407   0.350  -0.588  0.00  0.00    -0.245 OA
BRANCH  17  19
ATOM     19  O   UNL     1       3.502   2.285  -0.596  0.00  0.00    -0.465 OA
ATOM     20  C   UNL     1       4.709   1.564  -0.852  0.00  0.00    +0.280 C 
ENDBRANCH  17  19
ENDBRANCH   2  17
BRANCH   3  21
ATOM     21  C   UNL     1       0.071  -0.002   0.026  0.00  0.00    +0.136 C 
BRANCH  21  22
ATOM     22  N   UNL     1      -0.073  -0.502  -1.348  0.00  0.00    -0.295 NA
ATOM     23  C   UNL     1      -1.388  -0.161  -1.896  0.00  0.00    +0.095 C 
ATOM     24  C   UNL     1      -1.357  -0.267  -3.425  0.00  0.00    +0.084 C 
ATOM     25  S   UNL     1      -0.968  -1.988  -3.871  0.00  0.00    -0.158 S 
ATOM     26  C   UNL     1       0.508  -2.339  -2.867  0.00  0.00    +0.084 C 
ATOM     27  C   UNL     1       0.212  -1.937  -1.417  0.00  0.00    +0.095 C 
ENDBRANCH  21  22
ENDBRANCH   3  21
TORSDOF 5
