REMARK  Name = ZINC63097995
REMARK  5 active torsions:
REMARK  status: ('A' for Active; 'I' for Inactive)
REMARK    1  A    between atoms: C_1  and  C_2
REMARK    2  A    between atoms: N_8  and  C_9
REMARK    3  A    between atoms: C_12  and  C_15
REMARK    4  A    between atoms: N_17  and  C_18
REMARK    5  A    between atoms: C_23  and  O_24
REMARK                            x       y       z     vdW  Elec       q    Type
REMARK                         _______ _______ _______ _____ _____    ______ ____
ROOT
ATOM      1  C   UNL     1      -0.112  -0.593   2.500  0.00  0.00    +0.051 A 
ATOM      2  C   UNL     1      -0.291   0.730   2.890  0.00  0.00    +0.027 A 
ATOM      3  C   UNL     1      -0.327   1.056   4.228  0.00  0.00    +0.015 A 
ATOM      4  C   UNL     1      -0.184   0.056   5.193  0.00  0.00    +0.037 A 
ATOM      5  C   UNL     1      -0.004  -1.272   4.797  0.00  0.00    +0.015 A 
ATOM      6  C   UNL     1       0.026  -1.592   3.458  0.00  0.00    +0.027 A 
ENDROOT
BRANCH   1  14
ATOM      7  C   UNL     1       2.203  -2.130   1.133  0.00  0.00    +0.065 C 
ATOM      8  C   UNL     1       0.942  -1.606   0.495  0.00  0.00    +0.041 A 
ATOM      9  C   UNL     1       0.605  -1.724  -0.785  0.00  0.00    +0.109 A 
ATOM     10  N   UNL     1      -0.625  -1.109  -0.961  0.00  0.00    -0.312 N 
ATOM     11  H   UNL     1      -1.115  -1.043  -1.796  0.00  0.00    +0.170 HD
ATOM     12  C   UNL     1      -1.022  -0.621   0.231  0.00  0.00    +0.331 A 
ATOM     13  O   UNL     1      -2.058  -0.018   0.447  0.00  0.00    -0.246 OA
ATOM     14  N   UNL     1      -0.076  -0.919   1.143  0.00  0.00    -0.266 N 
ENDBRANCH   1  14
BRANCH   4  15
ATOM     15  C   UNL     1      -0.221   0.401   6.627  0.00  0.00    +0.248 C 
ATOM     16  O   UNL     1      -0.377   1.557   6.970  0.00  0.00    -0.270 OA
ATOM     17  N   UNL     1      -0.083  -0.565   7.557  0.00  0.00    -0.279 N 
ATOM     18  H   UNL     1       0.122  -1.473   7.285  0.00  0.00    +0.155 HD
BRANCH  17  19
ATOM     19  C   UNL     1      -0.235  -0.257   8.915  0.00  0.00    +0.077 A 
ATOM     20  C   UNL     1      -1.000   0.835   9.299  0.00  0.00    +0.047 A 
ATOM     21  C   UNL     1      -1.148   1.137  10.640  0.00  0.00    +0.043 A 
ATOM     22  C   UNL     1      -0.535   0.352  11.601  0.00  0.00    +0.023 A 
ATOM     23  C   UNL     1       0.229  -0.737  11.225  0.00  0.00    +0.049 A 
ATOM     24  C   UNL     1       0.377  -1.050   9.883  0.00  0.00    +0.138 A 
ATOM     25 CL   UNL     1      -2.106   2.503  11.120  0.00  0.00    -0.083 Cl
BRANCH  24  26
ATOM     26  O   UNL     1       1.124  -2.124   9.512  0.00  0.00    -0.505 OA
ATOM     27  H   UNL     1       2.059  -1.923   9.369  0.00  0.00    +0.292 HD
ENDBRANCH  24  26
ENDBRANCH  17  19
ENDBRANCH   4  15
TORSDOF 4
