REMARK  Name = ZINC08914533
REMARK  6 active torsions:
REMARK  status: ('A' for Active; 'I' for Inactive)
REMARK    1  A    between atoms: C_1  and  O_2
REMARK    2  A    between atoms: O_2  and  C_3
REMARK    3  A    between atoms: C_8  and  C_9
REMARK    4  A    between atoms: C_9  and  N_10
REMARK    5  A    between atoms: C_30  and  C_32
REMARK    6  A    between atoms: C_36  and  N_38
REMARK                            x       y       z     vdW  Elec       q    Type
REMARK                         _______ _______ _______ _____ _____    ______ ____
ROOT
ATOM      1  N   UNL     1      -1.482  -3.721   2.915  0.00  0.00    -0.287 N 
ATOM      2  C   UNL     1      -1.197  -2.296   2.954  0.00  0.00    +0.204 C 
ATOM      3  C   UNL     1      -0.258  -1.881   1.869  0.00  0.00    +0.234 C 
ATOM      4  O   UNL     1       0.070  -0.714   1.820  0.00  0.00    -0.274 OA
ATOM      5  N   UNL     1       0.246  -2.707   0.951  0.00  0.00    -0.276 N 
ATOM      6  C   UNL     1      -0.134  -4.117   0.849  0.00  0.00    +0.167 C 
ATOM      7  C   UNL     1      -1.011  -4.545   1.981  0.00  0.00    +0.237 C 
ATOM      8  O   UNL     1      -1.312  -5.717   2.054  0.00  0.00    -0.274 OA
ATOM      9  C   UNL     1      -0.860  -4.350  -0.483  0.00  0.00    +0.069 C 
ATOM     10  C   UNL     1      -0.094  -3.661  -1.583  0.00  0.00    -0.015 A 
ATOM     11  C   UNL     1      -0.190  -3.873  -3.013  0.00  0.00    +0.003 A 
ATOM     12  C   UNL     1      -0.968  -4.734  -3.794  0.00  0.00    +0.010 A 
ATOM     13  C   UNL     1      -0.797  -4.663  -5.154  0.00  0.00    +0.001 A 
ATOM     14  C   UNL     1       0.100  -3.784  -5.738  0.00  0.00    +0.002 A 
ATOM     15  C   UNL     1       0.883  -2.922  -4.990  0.00  0.00    +0.026 A 
ATOM     16  C   UNL     1       0.731  -2.972  -3.606  0.00  0.00    +0.047 A 
ATOM     17  N   UNL     1       1.329  -2.278  -2.594  0.00  0.00    -0.356 N 
ATOM     18  H   UNL     1       2.004  -1.592  -2.710  0.00  0.00    +0.166 HD
ATOM     19  C   UNL     1       0.831  -2.697  -1.388  0.00  0.00    +0.046 A 
ATOM     20  C   UNL     1       1.229  -2.186  -0.022  0.00  0.00    +0.154 C 
ENDROOT
BRANCH  20  21
ATOM     21  C   UNL     1       1.209  -0.679  -0.014  0.00  0.00    -0.019 A 
ATOM     22  C   UNL     1       0.096   0.000  -0.473  0.00  0.00    +0.006 A 
ATOM     23  C   UNL     1       0.077   1.382  -0.466  0.00  0.00    +0.003 A 
ATOM     24  C   UNL     1       1.171   2.085   0.002  0.00  0.00    +0.033 A 
ATOM     25  C   UNL     1       2.284   1.407   0.461  0.00  0.00    +0.127 A 
ATOM     26  C   UNL     1       2.303   0.024   0.454  0.00  0.00    +0.038 A 
BRANCH  25  27
ATOM     27  N   UNL     1       3.456   2.160   0.962  0.00  0.00    +0.056 N 
ATOM     28  O   UNL     1       4.437   1.562   1.367  0.00  0.00    -0.126 OA
ATOM     29  O   UNL     1       3.440   3.378   0.969  0.00  0.00    -0.126 OA
ENDBRANCH  25  27
ENDBRANCH  20  21
BRANCH   1  30
ATOM     30  C   UNL     1      -2.336  -4.283   3.964  0.00  0.00    +0.147 C 
BRANCH  30  36
ATOM     31  C   UNL     1      -1.024  -3.796   6.044  0.00  0.00    +0.125 A 
ATOM     32  C   UNL     1      -0.239  -4.208   7.111  0.00  0.00    +0.046 A 
ATOM     33  C   UNL     1       0.085  -5.543   7.254  0.00  0.00    +0.004 A 
ATOM     34  C   UNL     1      -0.373  -6.469   6.334  0.00  0.00    +0.001 A 
ATOM     35  C   UNL     1      -1.160  -6.062   5.273  0.00  0.00    +0.009 A 
ATOM     36  C   UNL     1      -1.482  -4.727   5.123  0.00  0.00    +0.011 A 
BRANCH  31  38
ATOM     37  C   UNL     1      -0.838  -1.581   6.888  0.00  0.00    +0.277 C 
ATOM     38  O   UNL     1      -1.345  -2.483   5.902  0.00  0.00    -0.495 OA
ENDBRANCH  31  38
ENDBRANCH  30  36
ENDBRANCH   1  30
TORSDOF 5
