REMARK  Name = ZINC59363580
REMARK  7 active torsions:
REMARK  status: ('A' for Active; 'I' for Inactive)
REMARK    1  A    between atoms: C_3  and  C_21
REMARK    2  A    between atoms: C_6  and  C_7
REMARK    3  A    between atoms: C_7  and  N_8
REMARK    4  A    between atoms: C_9  and  C_11
REMARK    5  A    between atoms: C_11  and  N_12
REMARK    6  A    between atoms: C_13  and  C_15
REMARK    7  A    between atoms: C_21  and  N_22
REMARK                            x       y       z     vdW  Elec       q    Type
REMARK                         _______ _______ _______ _____ _____    ______ ____
ROOT
ATOM      1  C   UNL     1      -1.293  -0.775   0.011  0.00  0.00    +0.139 C 
ENDROOT
BRANCH   1   7
ATOM      2  C   UNL     1      -0.017   1.378   0.010  0.00  0.00    +0.005 A 
ATOM      3  C   UNL     1       1.171   2.086   0.002  0.00  0.00    +0.002 A 
ATOM      4  C   UNL     1       2.377   1.411  -0.013  0.00  0.00    -0.064 A 
ATOM      5  C   UNL     1       2.396   0.029  -0.020  0.00  0.00    +0.002 A 
ATOM      6  C   UNL     1       1.208  -0.679  -0.012  0.00  0.00    +0.005 A 
ATOM      7  C   UNL     1       0.002  -0.004   0.002  0.00  0.00    -0.030 A 
BRANCH   4   8
ATOM      8  C   UNL     1       3.672   2.182  -0.022  0.00  0.00    -0.043 C 
BRANCH   8   9
ATOM      9  N   UNL     1       4.106   2.426   1.360  0.00  0.00    +0.382 N 
ATOM     10  C   UNL     1       3.132   3.295   2.031  0.00  0.00    -0.078 C 
ATOM     11  C   UNL     1       3.537   3.486   3.494  0.00  0.00    -0.019 C 
ATOM     12  C   UNL     1       4.925   4.131   3.554  0.00  0.00    -0.004 C 
ATOM     13  C   UNL     1       5.918   3.254   2.787  0.00  0.00    -0.019 C 
ATOM     14  C   UNL     1       5.425   3.071   1.350  0.00  0.00    -0.078 C 
ATOM     15  H   UNL     1       4.167   1.548   1.852  0.00  0.00    -0.081 HD
ENDBRANCH   8   9
ENDBRANCH   4   8
ENDBRANCH   1   7
BRANCH   1  16
ATOM     16  N   UNL     1      -1.726  -1.018  -1.368  0.00  0.00    -0.310 N 
ATOM     17  C   UNL     1      -2.867  -1.694  -1.606  0.00  0.00    +0.230 C 
ATOM     18  O   UNL     1      -3.535  -2.103  -0.680  0.00  0.00    -0.274 OA
ATOM     19  H   UNL     1      -1.192  -0.691  -2.108  0.00  0.00    +0.149 HD
BRANCH  17  20
ATOM     20  C   UNL     1      -3.312  -1.944  -3.024  0.00  0.00    +0.200 C 
BRANCH  20  21
ATOM     21  N   UNL     1      -4.571  -2.694  -3.016  0.00  0.00    -0.302 N 
ATOM     22  C   UNL     1      -5.161  -3.032  -4.179  0.00  0.00    +0.251 C 
ATOM     23  O   UNL     1      -4.649  -2.715  -5.236  0.00  0.00    -0.270 OA
ATOM     24  H   UNL     1      -4.979  -2.946  -2.173  0.00  0.00    +0.150 HD
BRANCH  22  25
ATOM     25  C   UNL     1      -6.420  -3.782  -4.170  0.00  0.00    +0.075 A 
ATOM     26  C   UNL     1      -7.179  -4.228  -5.242  0.00  0.00    +0.022 A 
ATOM     27  C   UNL     1      -8.325  -4.913  -4.918  0.00  0.00    +0.024 A 
ATOM     28  C   UNL     1      -8.632  -5.102  -3.610  0.00  0.00    +0.056 A 
ATOM     29  S   UNL     1      -7.371  -4.365  -2.780  0.00  0.00    -0.077 S 
ATOM     30 BR   UNL     1     -10.132  -5.999  -2.887  0.00  0.00    -0.043 Br
ENDBRANCH  22  25
ENDBRANCH  20  21
ENDBRANCH  17  20
ENDBRANCH   1  16
TORSDOF 7
