REMARK  Name = ZINC28314004
REMARK  7 active torsions:
REMARK  status: ('A' for Active; 'I' for Inactive)
REMARK    1  A    between atoms: C_4  and  C_7
REMARK    2  A    between atoms: C_7  and  C_8
REMARK    3  A    between atoms: C_8  and  C_9
REMARK    4  A    between atoms: C_9  and  C_11
REMARK    5  A    between atoms: C_9  and  N_21
REMARK    6  A    between atoms: N_21  and  S_22
REMARK    7  A    between atoms: S_22  and  C_25
REMARK                            x       y       z     vdW  Elec       q    Type
REMARK                         _______ _______ _______ _____ _____    ______ ____
ROOT
ATOM      1  C   UNL     1      -3.773  -0.286  -0.078  0.00  0.00    +0.107 C 
ENDROOT
BRANCH   1   2
ATOM      2  C   UNL     1      -2.648   0.717  -0.112  0.00  0.00    -0.025 A 
ATOM      3  C   UNL     1      -2.920   2.052  -0.347  0.00  0.00    +0.009 A 
ATOM      4  C   UNL     1      -1.891   2.973  -0.383  0.00  0.00    +0.050 A 
ATOM      5  C   UNL     1      -0.583   2.562  -0.176  0.00  0.00    +0.162 A 
ATOM      6  C   UNL     1      -0.309   1.221   0.063  0.00  0.00    +0.162 A 
ATOM      7  C   UNL     1      -1.346   0.300   0.093  0.00  0.00    +0.054 A 
ATOM      8  O   UNL     1       0.967   0.796   0.269  0.00  0.00    -0.485 OA
ATOM      9  C   UNL     1       2.014   1.683  -0.141  0.00  0.00    +0.270 C 
ATOM     10  C   UNL     1       1.672   3.093   0.359  0.00  0.00    +0.270 C 
ATOM     11  O   UNL     1       0.420   3.482  -0.216  0.00  0.00    -0.485 OA
ENDBRANCH   1   2
BRANCH   1  12
ATOM     12  N   UNL     1      -4.738   0.028  -1.134  0.00  0.00    -0.183 NA
ATOM     13  H   UNL     1      -5.417   0.886  -1.022  0.00  0.00    +0.149 HD
BRANCH  12  14
ATOM     14  S   UNL     1      -4.983  -1.040  -2.376  0.00  0.00    +0.060 S 
ATOM     15  O   UNL     1      -5.776  -0.364  -3.342  0.00  0.00    -0.153 OA
ATOM     16  O   UNL     1      -3.714  -1.598  -2.688  0.00  0.00    -0.153 OA
BRANCH  14  17
ATOM     17  C   UNL     1      -5.970  -2.356  -1.745  0.00  0.00    +0.127 A 
ATOM     18  C   UNL     1      -7.319  -2.412  -2.046  0.00  0.00    +0.079 A 
ATOM     19  C   UNL     1      -8.097  -3.450  -1.556  0.00  0.00    +0.164 A 
ATOM     20  C   UNL     1      -7.521  -4.427  -0.753  0.00  0.00    +0.164 A 
ATOM     21  C   UNL     1      -6.170  -4.362  -0.449  0.00  0.00    +0.071 A 
ATOM     22  C   UNL     1      -5.397  -3.327  -0.945  0.00  0.00    +0.071 A 
ATOM     23 CL   UNL     1      -3.705  -3.248  -0.563  0.00  0.00    -0.081 Cl
ATOM     24  O   UNL     1      -8.267  -5.454  -0.261  0.00  0.00    -0.485 OA
ATOM     25  C   UNL     1      -9.689  -5.282  -0.280  0.00  0.00    +0.270 C 
ATOM     26  C   UNL     1     -10.090  -4.743  -1.659  0.00  0.00    +0.270 C 
ATOM     27  O   UNL     1      -9.423  -3.492  -1.863  0.00  0.00    -0.485 OA
ENDBRANCH  14  17
ENDBRANCH  12  14
ENDBRANCH   1  12
BRANCH   1  28
ATOM     28  C   UNL     1      -4.468  -0.227   1.283  0.00  0.00    +0.030 C 
BRANCH  28  29
ATOM     29  C   UNL     1      -5.529  -1.327   1.363  0.00  0.00    +0.037 C 
BRANCH  29  33
ATOM     30  C   UNL     1      -7.345  -1.278   5.228  0.00  0.00    +0.000 A 
ATOM     31  C   UNL     1      -7.879  -0.517   4.205  0.00  0.00    +0.000 A 
ATOM     32  C   UNL     1      -7.290  -0.533   2.954  0.00  0.00    +0.003 A 
ATOM     33  C   UNL     1      -6.170  -1.309   2.726  0.00  0.00    -0.047 A 
ATOM     34  C   UNL     1      -5.640  -2.074   3.749  0.00  0.00    +0.003 A 
ATOM     35  C   UNL     1      -6.224  -2.054   5.001  0.00  0.00    +0.000 A 
ENDBRANCH  29  33
ENDBRANCH  28  29
ENDBRANCH   1  28
TORSDOF 7
