REMARK  Name = ZINC17073583
REMARK  7 active torsions:
REMARK  status: ('A' for Active; 'I' for Inactive)
REMARK    1  A    between atoms: C_1  and  C_2
REMARK    2  A    between atoms: C_2  and  C_18
REMARK    3  A    between atoms: N_3  and  N_4
REMARK    4  A    between atoms: N_4  and  S_5
REMARK    5  A    between atoms: S_5  and  C_8
REMARK    6  A    between atoms: C_20  and  O_25
REMARK    7  A    between atoms: C_23  and  O_24
REMARK                            x       y       z     vdW  Elec       q    Type
REMARK                         _______ _______ _______ _____ _____    ______ ____
ROOT
ATOM      1  N   UNL     1      -0.225  -2.027   1.139  0.00  0.00    -0.136 N 
ATOM      2  H   UNL     1      -0.228  -2.518   0.303  0.00  0.00    +0.197 HD
ENDROOT
BRANCH   1   5
ATOM      3  C   UNL     1       0.103   1.511   0.008  0.00  0.00    +0.068 C 
ATOM      4  C   UNL     1      -0.015   0.009   0.011  0.00  0.00    +0.068 C 
ATOM      5  N   UNL     1      -0.053  -0.637   1.136  0.00  0.00    -0.170 NA
BRANCH   4   6
ATOM      6  C   UNL     1      -0.086  -0.727  -1.265  0.00  0.00    +0.042 A 
ATOM      7  C   UNL     1      -1.248  -1.420  -1.611  0.00  0.00    +0.058 A 
ATOM      8  C   UNL     1      -1.308  -2.109  -2.809  0.00  0.00    +0.118 A 
ATOM      9  C   UNL     1      -0.216  -2.112  -3.667  0.00  0.00    +0.049 A 
ATOM     10  C   UNL     1       0.938  -1.429  -3.331  0.00  0.00    +0.049 A 
ATOM     11  C   UNL     1       1.010  -0.730  -2.138  0.00  0.00    +0.126 A 
BRANCH  11  12
ATOM     12  O   UNL     1       2.142  -0.053  -1.812  0.00  0.00    -0.506 OA
ATOM     13  H   UNL     1       2.753  -0.554  -1.254  0.00  0.00    +0.292 HD
ENDBRANCH  11  12
BRANCH   8  14
ATOM     14  O   UNL     1      -2.438  -2.784  -3.148  0.00  0.00    -0.507 OA
ATOM     15  H   UNL     1      -3.077  -2.256  -3.646  0.00  0.00    +0.292 HD
ENDBRANCH   8  14
ENDBRANCH   4   6
ENDBRANCH   1   5
BRANCH   1  16
ATOM     16  S   UNL     1      -0.422  -2.833   2.572  0.00  0.00    +0.086 S 
ATOM     17  O   UNL     1      -0.714  -4.185   2.242  0.00  0.00    -0.149 OA
ATOM     18  O   UNL     1       0.676  -2.471   3.397  0.00  0.00    -0.149 OA
BRANCH  16  19
ATOM     19  C   UNL     1      -1.867  -2.181   3.342  0.00  0.00    +0.111 A 
ATOM     20  C   UNL     1      -1.753  -1.089   4.201  0.00  0.00    +0.029 A 
ATOM     21  C   UNL     1      -2.849  -0.561   4.812  0.00  0.00    +0.010 A 
ATOM     22  C   UNL     1      -4.115  -1.123   4.575  0.00  0.00    -0.018 A 
ATOM     23  C   UNL     1      -5.269  -0.605   5.188  0.00  0.00    +0.008 A 
ATOM     24  C   UNL     1      -6.479  -1.175   4.935  0.00  0.00    +0.001 A 
ATOM     25  C   UNL     1      -6.593  -2.267   4.077  0.00  0.00    +0.001 A 
ATOM     26  C   UNL     1      -5.497  -2.796   3.466  0.00  0.00    +0.008 A 
ATOM     27  C   UNL     1      -4.231  -2.234   3.703  0.00  0.00    -0.016 A 
ATOM     28  C   UNL     1      -3.077  -2.748   3.086  0.00  0.00    +0.037 A 
ENDBRANCH  16  19
ENDBRANCH   1  16
TORSDOF 6
