REMARK  Name = ZINC47788773
REMARK  7 active torsions:
REMARK  status: ('A' for Active; 'I' for Inactive)
REMARK    1  A    between atoms: C_1  and  C_2
REMARK    2  A    between atoms: C_3  and  C_8
REMARK    3  A    between atoms: N_6  and  C_7
REMARK    4  A    between atoms: C_8  and  C_10
REMARK    5  A    between atoms: C_8  and  N_11
REMARK    6  A    between atoms: N_14  and  C_15
REMARK    7  A    between atoms: C_18  and  N_21
REMARK                            x       y       z     vdW  Elec       q    Type
REMARK                         _______ _______ _______ _____ _____    ______ ____
ROOT
ATOM      1  N   UNL     1       1.317  -3.490  -3.529  0.00  0.00    -0.292 N 
ATOM      2  C   UNL     1       1.873  -3.190  -4.720  0.00  0.00    +0.304 C 
ATOM      3  O   UNL     1       2.737  -3.908  -5.186  0.00  0.00    -0.252 OA
ATOM      4  N   UNL     1       1.473  -2.093  -5.393  0.00  0.00    -0.269 N 
ATOM      5  H   UNL     1       0.628  -2.917  -3.157  0.00  0.00    +0.151 HD
ATOM      6  H   UNL     1       0.739  -1.557  -5.054  0.00  0.00    +0.156 HD
ENDROOT
BRANCH   4   7
ATOM      7  C   UNL     1       2.117  -1.727  -6.583  0.00  0.00    +0.035 A 
ATOM      8  C   UNL     1       2.289  -0.385  -6.894  0.00  0.00    +0.025 A 
ATOM      9  C   UNL     1       2.924  -0.024  -8.066  0.00  0.00    +0.025 A 
ATOM     10  C   UNL     1       3.389  -1.004  -8.934  0.00  0.00    +0.034 A 
ATOM     11  C   UNL     1       3.217  -2.347  -8.622  0.00  0.00    +0.025 A 
ATOM     12  C   UNL     1       2.587  -2.707  -7.447  0.00  0.00    +0.025 A 
BRANCH  10  13
ATOM     13  N   UNL     1       4.032  -0.639 -10.122  0.00  0.00    -0.300 N 
ATOM     14  C   UNL     1       3.518  -0.899 -11.469  0.00  0.00    +0.115 C 
ATOM     15  C   UNL     1       4.571  -0.313 -12.423  0.00  0.00    +0.056 C 
ATOM     16  C   UNL     1       5.637   0.252 -11.511  0.00  0.00    -0.025 A 
ATOM     17  C   UNL     1       5.254   0.032 -10.197  0.00  0.00    +0.037 A 
ATOM     18  C   UNL     1       6.085   0.475  -9.166  0.00  0.00    +0.024 A 
ATOM     19  C   UNL     1       7.265   1.126  -9.455  0.00  0.00    +0.002 A 
ATOM     20  C   UNL     1       7.636   1.344 -10.770  0.00  0.00    +0.000 A 
ATOM     21  C   UNL     1       6.823   0.900 -11.796  0.00  0.00    +0.005 A 
ENDBRANCH  10  13
ENDBRANCH   4   7
BRANCH   1  22
ATOM     22  C   UNL     1       1.752  -4.682  -2.797  0.00  0.00    +0.105 C 
ATOM     23  C   UNL     1       2.993  -4.346  -1.967  0.00  0.00    +0.033 C 
BRANCH  22  26
ATOM     24  C   UNL     1       1.454  -7.541  -1.562  0.00  0.00    +0.065 C 
ATOM     25  C   UNL     1       0.517  -6.379  -1.349  0.00  0.00    +0.041 A 
ATOM     26  C   UNL     1       0.646  -5.143  -1.883  0.00  0.00    +0.013 A 
ATOM     27  C   UNL     1      -0.429  -4.367  -1.437  0.00  0.00    +0.140 A 
ATOM     28  N   UNL     1      -1.176  -5.112  -0.663  0.00  0.00    -0.179 NA
ATOM     29  N   UNL     1      -0.602  -6.388  -0.596  0.00  0.00    -0.271 N 
ATOM     30  C   UNL     1      -1.124  -7.529   0.160  0.00  0.00    +0.172 C 
ENDBRANCH  22  26
ENDBRANCH   1  22
TORSDOF 4
