REMARK  Name = ZINC31731468
REMARK  5 active torsions:
REMARK  status: ('A' for Active; 'I' for Inactive)
REMARK    1  A    between atoms: C_6  and  C_7
REMARK    2  A    between atoms: N_10  and  C_12
REMARK    3  A    between atoms: C_12  and  C_13
REMARK    4  A    between atoms: N_15  and  C_16
REMARK    5  A    between atoms: C_20  and  N_22
REMARK                            x       y       z     vdW  Elec       q    Type
REMARK                         _______ _______ _______ _____ _____    ______ ____
ROOT
ATOM      1  C   UNL     1      -0.038  -0.004  -0.003  0.00  0.00    +0.240 C 
ATOM      2  O   UNL     1      -1.093  -0.595   0.093  0.00  0.00    -0.273 OA
ATOM      3  N   UNL     1      -0.016   1.344   0.009  0.00  0.00    -0.284 N 
ATOM      4  H   UNL     1       0.945   1.879   0.004  0.00  0.00    +0.155 HD
ENDROOT
BRANCH   3   5
ATOM      5  C   UNL     1      -1.218   2.063   0.029  0.00  0.00    +0.036 A 
ATOM      6  C   UNL     1      -1.314   3.273  -0.645  0.00  0.00    +0.026 A 
ATOM      7  C   UNL     1      -2.502   3.978  -0.630  0.00  0.00    +0.042 A 
ATOM      8  C   UNL     1      -3.592   3.484   0.066  0.00  0.00    +0.154 A 
ATOM      9  C   UNL     1      -3.496   2.280   0.744  0.00  0.00    +0.163 A 
ATOM     10  C   UNL     1      -2.312   1.570   0.726  0.00  0.00    +0.059 A 
ATOM     11  F   UNL     1      -4.751   4.178   0.085  0.00  0.00    -0.203 F 
BRANCH   9  12
ATOM     12  N   UNL     1      -4.663   1.755   1.487  0.00  0.00    +0.059 N 
ATOM     13  O   UNL     1      -4.579   0.696   2.083  0.00  0.00    -0.126 OA
ATOM     14  O   UNL     1      -5.708   2.381   1.503  0.00  0.00    -0.126 OA
ENDBRANCH   9  12
ENDBRANCH   3   5
BRANCH   1  15
ATOM     15  C   UNL     1       1.249  -0.777  -0.135  0.00  0.00    +0.264 C 
BRANCH  15  19
ATOM     16  C   UNL     1       0.628  -4.183   0.547  0.00  0.00    +0.205 A 
ATOM     17  N   UNL     1       0.504  -4.149  -0.787  0.00  0.00    -0.108 NA
ATOM     18  N   UNL     1       0.713  -2.932  -1.161  0.00  0.00    -0.045 NA
ATOM     19  N   UNL     1       0.960  -2.213  -0.122  0.00  0.00    -0.154 N 
ATOM     20  N   UNL     1       0.919  -2.956   0.931  0.00  0.00    -0.130 NA
BRANCH  16  26
ATOM     21  C   UNL     1       0.640  -5.252   2.800  0.00  0.00    +0.013 A 
ATOM     22  C   UNL     1       0.490  -6.360   3.610  0.00  0.00    +0.016 A 
ATOM     23  C   UNL     1       0.187  -7.590   3.054  0.00  0.00    +0.018 A 
ATOM     24  C   UNL     1       0.026  -7.716   1.685  0.00  0.00    +0.016 A 
ATOM     25  C   UNL     1       0.169  -6.613   0.867  0.00  0.00    +0.013 A 
ATOM     26  C   UNL     1       0.474  -5.372   1.422  0.00  0.00    +0.023 A 
ATOM     27 BR   UNL     1      -0.008  -9.106   4.168  0.00  0.00    -0.050 Br
ENDBRANCH  16  26
ENDBRANCH  15  19
ENDBRANCH   1  15
TORSDOF 5
