REMARK  Name = ZINC36692955
REMARK  8 active torsions:
REMARK  status: ('A' for Active; 'I' for Inactive)
REMARK    1  A    between atoms: C_1  and  C_2
REMARK    2  A    between atoms: C_6  and  C_28
REMARK    3  A    between atoms: C_7  and  N_8
REMARK    4  A    between atoms: C_9  and  C_11
REMARK    5  A    between atoms: C_11  and  N_12
REMARK    6  A    between atoms: C_17  and  C_24
REMARK    7  A    between atoms: C_20  and  C_22
REMARK    8  A    between atoms: C_20  and  C_23
REMARK                            x       y       z     vdW  Elec       q    Type
REMARK                         _______ _______ _______ _____ _____    ______ ____
ROOT
ATOM      1  N   UNL     1      -0.618  -0.971   5.965  0.00  0.00    -0.215 N 
ATOM      2  C   UNL     1      -1.833  -1.297   6.455  0.00  0.00    +0.247 C 
ATOM      3  O   UNL     1      -2.879  -0.735   6.215  0.00  0.00    -0.273 OA
ATOM      4  C   UNL     1      -1.598  -2.488   7.353  0.00  0.00    +0.113 C 
ATOM      5  C   UNL     1      -2.239  -2.278   8.716  0.00  0.00    +0.038 C 
ATOM      6  C   UNL     1      -3.759  -2.405   8.605  0.00  0.00    -0.011 C 
ATOM      7  C   UNL     1      -4.097  -3.820   8.140  0.00  0.00    +0.009 C 
ATOM      8  C   UNL     1      -3.503  -4.101   6.764  0.00  0.00    -0.032 C 
ATOM      9  C   UNL     1      -2.019  -3.786   6.693  0.00  0.00    +0.041 C 
ATOM     10  C   UNL     1      -3.688  -5.605   6.470  0.00  0.00    +0.011 C 
ATOM     11  C   UNL     1      -4.274  -3.325   5.692  0.00  0.00    +0.011 C 
ATOM     12  C   UNL     1      -4.389  -2.158   9.979  0.00  0.00    +0.007 C 
ATOM     13  N   UNL     1      -0.126  -2.495   7.513  0.00  0.00    -0.285 N 
ATOM     14  C   UNL     1       0.357  -1.623   6.610  0.00  0.00    +0.310 C 
ATOM     15  O   UNL     1       1.541  -1.446   6.403  0.00  0.00    -0.252 OA
ATOM     16  H   UNL     1       0.375  -3.027   8.147  0.00  0.00    +0.151 HD
ENDROOT
BRANCH   1  17
ATOM     17  C   UNL     1      -0.394  -0.007   4.886  0.00  0.00    +0.214 C 
BRANCH  17  19
ATOM     18  N   UNL     1      -0.198  -0.037   2.420  0.00  0.00    -0.284 N 
ATOM     19  C   UNL     1      -0.388  -0.727   3.562  0.00  0.00    +0.235 C 
ATOM     20  O   UNL     1      -0.555  -1.928   3.524  0.00  0.00    -0.274 OA
ATOM     21  H   UNL     1      -0.117   0.929   2.445  0.00  0.00    +0.155 HD
BRANCH  18  28
ATOM     22  C   UNL     1       1.718  -2.126   2.165  0.00  0.00    +0.045 C 
ATOM     23  C   UNL     1       0.803  -1.741   1.031  0.00  0.00    -0.029 A 
ATOM     24  C   UNL     1       0.876  -2.411  -0.174  0.00  0.00    +0.005 A 
ATOM     25  C   UNL     1       0.037  -2.058  -1.215  0.00  0.00    +0.001 A 
ATOM     26  C   UNL     1      -0.877  -1.033  -1.054  0.00  0.00    +0.005 A 
ATOM     27  C   UNL     1      -0.955  -0.359   0.149  0.00  0.00    -0.029 A 
ATOM     28  C   UNL     1      -0.118  -0.715   1.198  0.00  0.00    +0.039 A 
ATOM     29  C   UNL     1      -1.951   0.759   0.324  0.00  0.00    +0.045 C 
ENDBRANCH  18  28
ENDBRANCH  17  19
ENDBRANCH   1  17
TORSDOF 3
