REMARK  Name = ZINC08961911
REMARK  5 active torsions:
REMARK  status: ('A' for Active; 'I' for Inactive)
REMARK    1  A    between atoms: C_1  and  C_2
REMARK    2  A    between atoms: C_5  and  S_8
REMARK    3  A    between atoms: S_8  and  N_11
REMARK    4  A    between atoms: N_11  and  C_12
REMARK    5  A    between atoms: C_22  and  C_25
REMARK                            x       y       z     vdW  Elec       q    Type
REMARK                         _______ _______ _______ _____ _____    ______ ____
ROOT
ATOM      1  C   UNL     1       0.010  -0.024   0.026  0.00  0.00    +0.049 A 
ATOM      2  C   UNL     1       1.210  -0.725  -0.039  0.00  0.00    +0.028 A 
ATOM      3  C   UNL     1       2.415  -0.051  -0.026  0.00  0.00    +0.048 A 
ATOM      4  C   UNL     1       2.436   1.331   0.052  0.00  0.00    +0.133 A 
ATOM      5  C   UNL     1       1.228   2.044   0.122  0.00  0.00    +0.080 A 
ATOM      6  C   UNL     1       0.015   1.359   0.106  0.00  0.00    +0.041 A 
ATOM      7  C   UNL     1       1.272   3.516   0.215  0.00  0.00    +0.248 C 
ATOM      8  O   UNL     1       0.604   4.103   1.044  0.00  0.00    -0.270 OA
ATOM      9  N   UNL     1       2.068   4.201  -0.640  0.00  0.00    -0.308 N 
ATOM     10  C   UNL     1       2.779   3.482  -1.698  0.00  0.00    +0.148 C 
ATOM     11  C   UNL     1       3.962   2.712  -1.128  0.00  0.00    +0.187 C 
ATOM     12  O   UNL     1       3.610   2.012   0.059  0.00  0.00    -0.487 OA
ATOM     13  C   UNL     1       4.454   1.707  -2.172  0.00  0.00    +0.053 C 
ATOM     14  H   UNL     1       2.167   5.162  -0.551  0.00  0.00    +0.149 HD
ENDROOT
BRANCH   1  15
ATOM     15  N   UNL     1      -1.206  -0.718   0.009  0.00  0.00    -0.216 N 
ATOM     16  H   UNL     1      -1.903  -0.490   0.644  0.00  0.00    +0.174 HD
BRANCH  15  17
ATOM     17  S   UNL     1      -1.453  -1.928  -1.093  0.00  0.00    +0.072 S 
ATOM     18  O   UNL     1      -0.350  -2.815  -0.977  0.00  0.00    -0.150 OA
ATOM     19  O   UNL     1      -2.798  -2.358  -0.929  0.00  0.00    -0.150 OA
BRANCH  17  24
ATOM     20  C   UNL     1      -1.097   0.558  -6.580  0.00  0.00    +0.044 C 
ATOM     21  C   UNL     1      -1.186  -0.063  -5.210  0.00  0.00    -0.050 A 
ATOM     22  C   UNL     1      -0.074  -0.662  -4.649  0.00  0.00    +0.005 A 
ATOM     23  C   UNL     1      -0.155  -1.232  -3.392  0.00  0.00    +0.029 A 
ATOM     24  C   UNL     1      -1.349  -1.202  -2.696  0.00  0.00    +0.109 A 
ATOM     25  C   UNL     1      -2.463  -0.607  -3.259  0.00  0.00    +0.029 A 
ATOM     26  C   UNL     1      -2.380  -0.034  -4.514  0.00  0.00    +0.005 A 
ENDBRANCH  17  24
ENDBRANCH  15  17
ENDBRANCH   1  15
TORSDOF 3
