REMARK  Name = ZINC19236649
REMARK  9 active torsions:
REMARK  status: ('A' for Active; 'I' for Inactive)
REMARK    1  A    between atoms: C_1  and  C_2
REMARK    2  A    between atoms: C_11  and  C_12
REMARK    3  A    between atoms: C_12  and  C_13
REMARK    4  A    between atoms: C_13  and  C_15
REMARK    5  A    between atoms: C_13  and  N_16
REMARK    6  A    between atoms: N_16  and  S_17
REMARK    7  A    between atoms: S_17  and  C_20
REMARK    8  A    between atoms: N_26  and  C_31
REMARK    9  A    between atoms: N_29  and  C_30
REMARK                            x       y       z     vdW  Elec       q    Type
REMARK                         _______ _______ _______ _____ _____    ______ ____
ROOT
ATOM      1  N   UNL     1       1.156   4.330   1.596  0.00  0.00    -0.187 NA
ATOM      2  H   UNL     1       0.228   4.712   2.046  0.00  0.00    +0.148 HD
ENDROOT
BRANCH   1   3
ATOM      3  S   UNL     1       1.148   3.848   0.011  0.00  0.00    +0.059 S 
ATOM      4  O   UNL     1       2.382   4.274  -0.549  0.00  0.00    -0.153 OA
ATOM      5  O   UNL     1      -0.108   4.240  -0.526  0.00  0.00    -0.153 OA
BRANCH   3   6
ATOM      6  C   UNL     1       1.172   2.086   0.002  0.00  0.00    +0.107 A 
ATOM      7  C   UNL     1       2.381   1.413  -0.014  0.00  0.00    +0.030 A 
ATOM      8  C   UNL     1       2.410   0.032  -0.021  0.00  0.00    +0.030 A 
ATOM      9  C   UNL     1       1.222  -0.683  -0.013  0.00  0.00    +0.070 A 
ATOM     10  C   UNL     1       0.002  -0.004   0.002  0.00  0.00    +0.071 A 
ATOM     11  C   UNL     1      -0.017   1.382   0.010  0.00  0.00    +0.056 A 
ATOM     12  N   UNL     1      -0.998  -0.974   0.006  0.00  0.00    -0.295 N 
ATOM     13  C   UNL     1      -0.413  -2.186  -0.006  0.00  0.00    +0.330 A 
ATOM     14  O   UNL     1      -1.005  -3.250  -0.007  0.00  0.00    -0.246 OA
ATOM     15  N   UNL     1       0.926  -2.044  -0.018  0.00  0.00    -0.295 N 
ATOM     16  C   UNL     1       1.904  -3.134  -0.033  0.00  0.00    +0.154 C 
ATOM     17  C   UNL     1      -2.440  -0.718   0.021  0.00  0.00    +0.154 C 
ENDBRANCH   3   6
ENDBRANCH   1   3
BRANCH   1  18
ATOM     18  C   UNL     1       2.318   4.045   2.442  0.00  0.00    +0.078 C 
ATOM     19  C   UNL     1       3.252   5.256   2.449  0.00  0.00    +0.026 C 
BRANCH  18  20
ATOM     20  C   UNL     1       1.850   3.753   3.869  0.00  0.00    +0.057 C 
BRANCH  20  31
ATOM     21  C   UNL     1      -0.613  -2.012   3.996  0.00  0.00    +0.046 C 
ATOM     22  C   UNL     1       0.584  -1.097   4.024  0.00  0.00    -0.027 A 
ATOM     23  C   UNL     1       1.854  -1.623   4.125  0.00  0.00    +0.005 A 
ATOM     24  C   UNL     1       2.965  -0.791   4.151  0.00  0.00    +0.001 A 
ATOM     25  C   UNL     1       2.818   0.565   4.077  0.00  0.00    +0.010 A 
ATOM     26  C   UNL     1       1.541   1.119   3.975  0.00  0.00    +0.003 A 
ATOM     27  C   UNL     1       0.411   0.281   3.948  0.00  0.00    +0.050 A 
ATOM     28  N   UNL     1      -0.696   1.093   3.844  0.00  0.00    -0.360 N 
ATOM     29  H   UNL     1      -1.701   0.649   3.801  0.00  0.00    +0.165 HD
ATOM     30  C   UNL     1      -0.308   2.405   3.811  0.00  0.00    +0.087 A 
ATOM     31  C   UNL     1       1.030   2.489   3.880  0.00  0.00    -0.021 A 
ENDBRANCH  20  31
ENDBRANCH  18  20
ENDBRANCH   1  18
TORSDOF 5
