REMARK  Name = ZINC35323693
REMARK  15 active torsions:
REMARK  status: ('A' for Active; 'I' for Inactive)
REMARK    1  A    between atoms: C_1  and  C_2
REMARK    2  A    between atoms: C_2  and  O_36
REMARK    3  A    between atoms: C_5  and  C_24
REMARK    4  A    between atoms: C_7  and  C_18
REMARK    5  A    between atoms: C_9  and  C_11
REMARK    6  A    between atoms: C_11  and  O_13
REMARK    7  A    between atoms: O_13  and  C_14
REMARK    8  A    between atoms: C_14  and  C_15
REMARK    9  A    between atoms: C_14  and  C_16
REMARK   10  A    between atoms: C_14  and  C_17
REMARK   11  A    between atoms: C_24  and  O_26
REMARK   12  A    between atoms: O_26  and  C_27
REMARK   13  A    between atoms: C_27  and  C_28
REMARK   14  A    between atoms: C_27  and  C_29
REMARK   15  A    between atoms: C_27  and  C_30
REMARK                            x       y       z     vdW  Elec       q    Type
REMARK                         _______ _______ _______ _____ _____    ______ ____
ROOT
ATOM      1  C   UNL     1      -1.731   1.050  -1.140  0.00  0.00    +0.042 C 
ATOM      2  C   UNL     1      -1.337  -0.362  -0.699  0.00  0.00    +0.080 C 
ATOM      3  C   UNL     1      -2.541  -1.048  -0.048  0.00  0.00    +0.079 C 
ATOM      4  C   UNL     1      -2.145  -2.449   0.408  0.00  0.00    +0.116 C 
ATOM      5  C   UNL     1      -0.989  -2.382   1.401  0.00  0.00    +0.145 C 
ATOM      6  C   UNL     1       0.210  -1.691   0.745  0.00  0.00    +0.053 C 
ATOM      7  C   UNL     1      -0.191  -0.280   0.310  0.00  0.00    +0.137 C 
ATOM      8  N   UNL     1      -1.781  -3.279  -0.747  0.00  0.00    -0.306 N 
ATOM      9  C   UNL     1      -2.646  -4.310  -0.769  0.00  0.00    +0.146 C 
ATOM     10  S   UNL     1      -2.624  -5.558  -1.941  0.00  0.00    -0.018 S 
ATOM     11  N   UNL     1      -3.526  -4.240   0.238  0.00  0.00    -0.260 N 
ATOM     12  N   UNL     1      -3.299  -3.136   1.012  0.00  0.00    -0.217 NA
ATOM     13  H   UNL     1      -1.057  -3.115  -1.372  0.00  0.00    +0.150 HD
ATOM     14  H   UNL     1      -4.232  -4.886   0.398  0.00  0.00    +0.168 HD
ATOM     15  H   UNL     1      -4.109  -2.534   1.030  0.00  0.00    +0.147 HD
ENDROOT
BRANCH   6  16
ATOM     16  C   UNL     1       1.345  -1.610   1.732  0.00  0.00    -0.042 A 
ATOM     17  C   UNL     1       1.082  -1.396   3.072  0.00  0.00    +0.004 A 
ATOM     18  C   UNL     1       2.123  -1.321   3.978  0.00  0.00    +0.000 A 
ATOM     19  C   UNL     1       3.428  -1.462   3.544  0.00  0.00    +0.000 A 
ATOM     20  C   UNL     1       3.692  -1.677   2.204  0.00  0.00    +0.000 A 
ATOM     21  C   UNL     1       2.650  -1.755   1.299  0.00  0.00    +0.004 A 
ENDBRANCH   6  16
BRANCH   7  22
ATOM     22  C   UNL     1      -0.638   0.508   1.515  0.00  0.00    +0.314 C 
ATOM     23  O   UNL     1      -0.415   0.090   2.627  0.00  0.00    -0.250 OA
BRANCH  22  24
ATOM     24  O   UNL     1      -1.283   1.674   1.352  0.00  0.00    -0.459 OA
BRANCH  24  25
ATOM     25  C   UNL     1      -1.564   2.430   2.532  0.00  0.00    +0.105 C 
ATOM     26  C   UNL     1      -0.321   2.465   3.424  0.00  0.00    +0.055 C 
ATOM     27  C   UNL     1      -1.953   3.857   2.143  0.00  0.00    +0.055 C 
ATOM     28  C   UNL     1      -2.719   1.776   3.293  0.00  0.00    +0.055 C 
ENDBRANCH  24  25
ENDBRANCH  22  24
ENDBRANCH   7  22
BRANCH   5  29
ATOM     29  C   UNL     1      -1.415  -1.600   2.616  0.00  0.00    +0.315 C 
ATOM     30  O   UNL     1      -2.036  -0.571   2.486  0.00  0.00    -0.250 OA
BRANCH  29  31
ATOM     31  O   UNL     1      -1.105  -2.046   3.844  0.00  0.00    -0.459 OA
BRANCH  31  32
ATOM     32  C   UNL     1      -1.630  -1.312   4.952  0.00  0.00    +0.105 C 
ATOM     33  C   UNL     1      -3.108  -1.003   4.705  0.00  0.00    +0.055 C 
ATOM     34  C   UNL     1      -1.489  -2.144   6.228  0.00  0.00    +0.055 C 
ATOM     35  C   UNL     1      -0.855  -0.002   5.110  0.00  0.00    +0.055 C 
ENDBRANCH  31  32
ENDBRANCH  29  31
ENDBRANCH   5  29
BRANCH   2  36
ATOM     36  O   UNL     1      -0.917  -1.117  -1.838  0.00  0.00    -0.388 OA
ATOM     37  H   UNL     1      -1.595  -1.210  -2.520  0.00  0.00    +0.210 HD
ENDBRANCH   2  36
TORSDOF 8
