REMARK  Name = ZINC07126840
REMARK  9 active torsions:
REMARK  status: ('A' for Active; 'I' for Inactive)
REMARK    1  A    between atoms: C_1  and  C_2
REMARK    2  A    between atoms: C_2  and  C_3
REMARK    3  A    between atoms: C_3  and  C_4
REMARK    4  A    between atoms: C_7  and  C_10
REMARK    5  A    between atoms: C_10  and  C_31
REMARK    6  A    between atoms: N_13  and  C_17
REMARK    7  A    between atoms: C_17  and  C_18
REMARK    8  A    between atoms: C_27  and  C_30
REMARK    9  A    between atoms: C_28  and  C_29
REMARK                            x       y       z     vdW  Elec       q    Type
REMARK                         _______ _______ _______ _____ _____    ______ ____
ROOT
ATOM      1  C   UNL     1       2.147   0.614  -0.010  0.00  0.00    +0.135 C 
ATOM      2  C   UNL     1       1.226   1.818   0.015  0.00  0.00    +0.251 C 
ATOM      3  O   UNL     1       1.549   2.986   0.035  0.00  0.00    -0.272 OA
ATOM      4  N   UNL     1      -0.026   1.319   0.008  0.00  0.00    -0.220 N 
ATOM      5  C   UNL     1      -0.024  -0.019  -0.017  0.00  0.00    +0.310 C 
ATOM      6  O   UNL     1      -1.034  -0.696  -0.028  0.00  0.00    -0.252 OA
ATOM      7  N   UNL     1       1.220  -0.531  -0.029  0.00  0.00    -0.281 N 
ATOM      8  C   UNL     1       3.015   0.625  -1.270  0.00  0.00    +0.047 C 
ATOM      9  H   UNL     1       1.460  -1.471  -0.046  0.00  0.00    +0.152 HD
ENDROOT
BRANCH   1  13
ATOM     10  C   UNL     1       4.584   0.515   3.497  0.00  0.00    -0.047 A 
ATOM     11  C   UNL     1       4.148  -0.665   2.925  0.00  0.00    +0.004 A 
ATOM     12  C   UNL     1       3.359  -0.633   1.790  0.00  0.00    +0.006 A 
ATOM     13  C   UNL     1       3.006   0.579   1.228  0.00  0.00    -0.015 A 
ATOM     14  C   UNL     1       3.447   1.759   1.797  0.00  0.00    +0.006 A 
ATOM     15  C   UNL     1       4.232   1.727   2.934  0.00  0.00    +0.004 A 
BRANCH  10  16
ATOM     16  C   UNL     1       5.444   0.480   4.734  0.00  0.00    +0.035 C 
BRANCH  16  18
ATOM     17  C   UNL     1       7.791   0.394   5.586  0.00  0.00    +0.004 C 
ATOM     18  C   UNL     1       6.918   0.429   4.330  0.00  0.00    +0.001 C 
ENDBRANCH  16  18
ENDBRANCH  10  16
ENDBRANCH   1  13
BRANCH   4  19
ATOM     19  C   UNL     1      -1.239   2.140   0.020  0.00  0.00    +0.154 C 
BRANCH  19  20
ATOM     20  C   UNL     1      -1.719   2.306   1.438  0.00  0.00    -0.012 A 
ATOM     21  C   UNL     1      -0.990   1.835   2.481  0.00  0.00    +0.098 A 
ATOM     22  C   UNL     1      -1.462   2.004   3.801  0.00  0.00    +0.338 A 
ATOM     23  O   UNL     1      -0.798   1.577   4.728  0.00  0.00    -0.245 OA
ATOM     24  O   UNL     1      -2.624   2.623   4.060  0.00  0.00    -0.422 OA
ATOM     25  C   UNL     1      -3.397   3.114   3.068  0.00  0.00    +0.142 A 
ATOM     26  C   UNL     1      -2.985   2.986   1.730  0.00  0.00    +0.023 A 
ATOM     27  C   UNL     1      -3.787   3.488   0.701  0.00  0.00    +0.012 A 
ATOM     28  C   UNL     1      -4.974   4.116   1.008  0.00  0.00    +0.004 A 
ATOM     29  C   UNL     1      -5.376   4.247   2.330  0.00  0.00    -0.044 A 
ATOM     30  C   UNL     1      -4.598   3.751   3.355  0.00  0.00    -0.005 A 
ATOM     31  C   UNL     1      -5.050   3.901   4.785  0.00  0.00    +0.048 C 
ATOM     32  C   UNL     1      -6.678   4.936   2.648  0.00  0.00    +0.044 C 
ENDBRANCH  19  20
ENDBRANCH   4  19
TORSDOF 5
