REMARK  Name = ZINC03641476
REMARK  6 active torsions:
REMARK  status: ('A' for Active; 'I' for Inactive)
REMARK    1  A    between atoms: C_1  and  C_2
REMARK    2  A    between atoms: C_5  and  S_8
REMARK    3  A    between atoms: S_8  and  N_11
REMARK    4  A    between atoms: N_11  and  N_12
REMARK    5  A    between atoms: C_13  and  C_24
REMARK    6  A    between atoms: C_29  and  O_30
REMARK                            x       y       z     vdW  Elec       q    Type
REMARK                         _______ _______ _______ _____ _____    ______ ____
ROOT
ATOM      1  N   UNL     1       2.242  -4.564   0.874  0.00  0.00    -0.189 N 
ATOM      2  C   UNL     1       2.828  -3.228   0.980  0.00  0.00    +0.214 C 
ATOM      3  N   UNL     1       4.058  -3.274   1.781  0.00  0.00    -0.320 N 
ATOM      4  C   UNL     1       4.056  -4.012   2.959  0.00  0.00    +0.041 A 
ATOM      5  C   UNL     1       4.853  -3.673   4.038  0.00  0.00    +0.024 A 
ATOM      6  C   UNL     1       4.811  -4.439   5.188  0.00  0.00    +0.002 A 
ATOM      7  C   UNL     1       3.976  -5.542   5.268  0.00  0.00    +0.001 A 
ATOM      8  C   UNL     1       3.175  -5.895   4.202  0.00  0.00    +0.015 A 
ATOM      9  C   UNL     1       3.210  -5.133   3.036  0.00  0.00    +0.059 A 
ATOM     10  C   UNL     1       2.378  -5.468   1.866  0.00  0.00    +0.265 C 
ATOM     11  O   UNL     1       1.823  -6.548   1.794  0.00  0.00    -0.268 OA
ATOM     12  H   UNL     1       4.854  -2.800   1.494  0.00  0.00    +0.148 HD
ENDROOT
BRANCH   2  13
ATOM     13  C   UNL     1       1.841  -2.301   1.641  0.00  0.00    +0.033 A 
ATOM     14  C   UNL     1       0.490  -2.590   1.606  0.00  0.00    +0.011 A 
ATOM     15  C   UNL     1      -0.416  -1.739   2.212  0.00  0.00    +0.001 A 
ATOM     16  C   UNL     1       0.027  -0.598   2.855  0.00  0.00    +0.004 A 
ATOM     17  C   UNL     1       1.376  -0.305   2.893  0.00  0.00    +0.046 A 
ATOM     18  C   UNL     1       2.288  -1.160   2.291  0.00  0.00    +0.123 A 
BRANCH  18  19
ATOM     19  O   UNL     1       3.616  -0.876   2.332  0.00  0.00    -0.506 OA
ATOM     20  H   UNL     1       3.927  -0.337   1.592  0.00  0.00    +0.292 HD
ENDBRANCH  18  19
ENDBRANCH   2  13
BRANCH   1  21
ATOM     21  N   UNL     1       1.521  -4.909  -0.277  0.00  0.00    -0.103 NA
ATOM     22  H   UNL     1       0.552  -4.848  -0.278  0.00  0.00    +0.172 HD
BRANCH  21  23
ATOM     23  S   UNL     1       2.321  -5.419  -1.633  0.00  0.00    +0.074 S 
ATOM     24  O   UNL     1       3.215  -4.375  -1.994  0.00  0.00    -0.152 OA
ATOM     25  O   UNL     1       1.333  -5.919  -2.524  0.00  0.00    -0.152 OA
BRANCH  23  30
ATOM     26  C   UNL     1       5.733 -10.130  -0.028  0.00  0.00    +0.044 C 
ATOM     27  C   UNL     1       4.881  -8.954  -0.429  0.00  0.00    -0.050 A 
ATOM     28  C   UNL     1       3.558  -9.146  -0.781  0.00  0.00    +0.005 A 
ATOM     29  C   UNL     1       2.776  -8.067  -1.148  0.00  0.00    +0.029 A 
ATOM     30  C   UNL     1       3.317  -6.795  -1.164  0.00  0.00    +0.107 A 
ATOM     31  C   UNL     1       4.640  -6.602  -0.811  0.00  0.00    +0.029 A 
ATOM     32  C   UNL     1       5.420  -7.681  -0.439  0.00  0.00    +0.005 A 
ENDBRANCH  23  30
ENDBRANCH  21  23
ENDBRANCH   1  21
TORSDOF 5
