REMARK  Name = ZINC44528913
REMARK  5 active torsions:
REMARK  status: ('A' for Active; 'I' for Inactive)
REMARK    1  A    between atoms: C_3  and  S_11
REMARK    2  A    between atoms: C_6  and  N_7
REMARK    3  A    between atoms: S_11  and  N_14
REMARK    4  A    between atoms: C_18  and  C_21
REMARK    5  A    between atoms: C_21  and  N_22
REMARK                            x       y       z     vdW  Elec       q    Type
REMARK                         _______ _______ _______ _____ _____    ______ ____
ROOT
ATOM      1  S   UNL     1       3.891   2.315  -0.023  0.00  0.00    +0.062 S 
ATOM      2  O   UNL     1       4.704   1.638  -0.971  0.00  0.00    -0.153 OA
ATOM      3  O   UNL     1       3.592   3.700  -0.127  0.00  0.00    -0.153 OA
ENDROOT
BRANCH   1   6
ATOM      4  C   UNL     1      -0.048   1.518  -0.007  0.00  0.00    +0.035 A 
ATOM      5  C   UNL     1       1.164   2.183  -0.033  0.00  0.00    +0.032 A 
ATOM      6  C   UNL     1       2.346   1.468   0.010  0.00  0.00    +0.124 A 
ATOM      7  C   UNL     1       2.316   0.086   0.080  0.00  0.00    +0.069 A 
ATOM      8  C   UNL     1       1.103  -0.578   0.106  0.00  0.00    +0.054 A 
ATOM      9  C   UNL     1      -0.079   0.138   0.062  0.00  0.00    +0.128 A 
ATOM     10 CL   UNL     1       3.800  -0.813   0.134  0.00  0.00    -0.081 Cl
BRANCH   9  11
ATOM     11  N   UNL     1      -1.376  -0.572   0.090  0.00  0.00    +0.056 N 
ATOM     12  O   UNL     1      -2.410   0.054   0.052  0.00  0.00    -0.126 OA
ATOM     13  O   UNL     1      -1.403  -1.780   0.151  0.00  0.00    -0.126 OA
ENDBRANCH   9  11
ENDBRANCH   1   6
BRANCH   1  14
ATOM     14  N   UNL     1       4.603   2.094   1.455  0.00  0.00    -0.176 NA
ATOM     15  C   UNL     1       4.234   2.940   2.598  0.00  0.00    +0.109 C 
ATOM     16  C   UNL     1       3.829   2.039   3.769  0.00  0.00    +0.017 C 
ATOM     17  C   UNL     1       4.959   1.048   4.059  0.00  0.00    +0.004 C 
ATOM     18  C   UNL     1       5.195   0.167   2.831  0.00  0.00    -0.013 C 
ATOM     19  C   UNL     1       5.611   1.043   1.651  0.00  0.00    +0.111 C 
BRANCH  18  20
ATOM     20  C   UNL     1       6.301  -0.845   3.134  0.00  0.00    -0.082 C 
BRANCH  20  21
ATOM     21  N   UNL     1       5.851  -1.763   4.189  0.00  0.00    +0.378 N 
ATOM     22  H   UNL     1       5.638  -1.237   5.023  0.00  0.00    -0.090 HD
ATOM     23  H   UNL     1       5.024  -2.251   3.879  0.00  0.00    -0.090 HD
ATOM     24  H   UNL     1       6.580  -2.430   4.388  0.00  0.00    -0.090 HD
ENDBRANCH  20  21
ENDBRANCH  18  20
ENDBRANCH   1  14
TORSDOF 5
