REMARK  Name = ZINC00912427
REMARK  9 active torsions:
REMARK  status: ('A' for Active; 'I' for Inactive)
REMARK    1  A    between atoms: C_1  and  O_2
REMARK    2  A    between atoms: O_2  and  C_3
REMARK    3  A    between atoms: C_7  and  C_17
REMARK    4  A    between atoms: C_14  and  O_15
REMARK    5  A    between atoms: O_15  and  C_16
REMARK    6  A    between atoms: C_17  and  C_19
REMARK    7  A    between atoms: C_17  and  N_31
REMARK    8  A    between atoms: N_23  and  C_24
REMARK    9  A    between atoms: C_24  and  C_25
REMARK                            x       y       z     vdW  Elec       q    Type
REMARK                         _______ _______ _______ _____ _____    ______ ____
ROOT
ATOM      1  C   UNL     1       4.153   1.868  -1.592  0.00  0.00    +0.179 C 
ENDROOT
BRANCH   1   6
ATOM      2  C   UNL     1       0.179  -2.616  -3.177  0.00  0.00    +0.162 A 
ATOM      3  C   UNL     1       0.921  -1.840  -2.313  0.00  0.00    +0.059 A 
ATOM      4  C   UNL     1       1.740  -0.825  -2.823  0.00  0.00    +0.003 A 
ATOM      5  C   UNL     1       2.544   0.012  -1.934  0.00  0.00    +0.021 A 
ATOM      6  C   UNL     1       3.317   0.985  -2.482  0.00  0.00    +0.045 A 
ATOM      7  C   UNL     1       3.344   1.168  -3.879  0.00  0.00    +0.255 A 
ATOM      8  O   UNL     1       4.049   2.045  -4.349  0.00  0.00    -0.268 OA
ATOM      9  N   UNL     1       2.612   0.401  -4.706  0.00  0.00    -0.322 N 
ATOM     10  H   UNL     1       2.654   0.555  -5.662  0.00  0.00    +0.169 HD
ATOM     11  C   UNL     1       1.802  -0.601  -4.213  0.00  0.00    +0.053 A 
ATOM     12  C   UNL     1       1.047  -1.392  -5.070  0.00  0.00    +0.075 A 
ATOM     13  C   UNL     1       0.241  -2.392  -4.556  0.00  0.00    +0.163 A 
BRANCH   2  15
ATOM     14  C   UNL     1      -0.635  -3.779  -1.269  0.00  0.00    +0.277 C 
ATOM     15  O   UNL     1      -0.617  -3.603  -2.687  0.00  0.00    -0.491 OA
ENDBRANCH   2  15
BRANCH  13  16
ATOM     16  O   UNL     1      -0.495  -3.163  -5.398  0.00  0.00    -0.491 OA
ATOM     17  C   UNL     1      -0.386  -2.884  -6.795  0.00  0.00    +0.277 C 
ENDBRANCH  13  16
ENDBRANCH   1   6
BRANCH   1  18
ATOM     18  N   UNL     1       5.551   1.835  -2.044  0.00  0.00    -0.315 N 
ATOM     19  C   UNL     1       6.340   2.911  -1.406  0.00  0.00    +0.111 C 
ATOM     20  C   UNL     1       7.752   2.287  -1.316  0.00  0.00    +0.056 C 
ATOM     21  C   UNL     1       7.462   0.799  -1.295  0.00  0.00    -0.025 A 
ATOM     22  C   UNL     1       6.153   0.612  -1.722  0.00  0.00    +0.034 A 
ATOM     23  C   UNL     1       5.636  -0.681  -1.776  0.00  0.00    +0.023 A 
ATOM     24  C   UNL     1       6.420  -1.757  -1.414  0.00  0.00    +0.002 A 
ATOM     25  C   UNL     1       7.723  -1.561  -0.996  0.00  0.00    +0.000 A 
ATOM     26  C   UNL     1       8.242  -0.280  -0.936  0.00  0.00    +0.005 A 
ENDBRANCH   1  18
BRANCH   1  27
ATOM     27  C   UNL     1       3.638   3.283  -1.660  0.00  0.00    +0.177 A 
ATOM     28  N   UNL     1       3.494   4.012  -2.740  0.00  0.00    -0.111 NA
ATOM     29  N   UNL     1       3.032   5.161  -2.385  0.00  0.00    -0.023 NA
ATOM     30  N   UNL     1       2.872   5.182  -1.107  0.00  0.00    -0.044 NA
ATOM     31  N   UNL     1       3.231   4.040  -0.625  0.00  0.00    -0.223 N 
BRANCH  31  32
ATOM     32  C   UNL     1       3.207   3.646   0.786  0.00  0.00    +0.182 C 
BRANCH  32  33
ATOM     33  C   UNL     1       1.823   3.172   1.151  0.00  0.00    -0.026 A 
ATOM     34  C   UNL     1       1.530   1.821   1.141  0.00  0.00    +0.005 A 
ATOM     35  C   UNL     1       0.262   1.387   1.477  0.00  0.00    +0.000 A 
ATOM     36  C   UNL     1      -0.716   2.303   1.816  0.00  0.00    +0.000 A 
ATOM     37  C   UNL     1      -0.421   3.654   1.830  0.00  0.00    +0.000 A 
ATOM     38  C   UNL     1       0.848   4.088   1.496  0.00  0.00    +0.005 A 
ENDBRANCH  32  33
ENDBRANCH  31  32
ENDBRANCH   1  27
TORSDOF 7
