REMARK  Name = ZINC21981373
REMARK  12 active torsions:
REMARK  status: ('A' for Active; 'I' for Inactive)
REMARK    1  A    between atoms: C_1  and  C_2
REMARK    2  A    between atoms: C_2  and  C_3
REMARK    3  A    between atoms: C_3  and  C_4
REMARK    4  A    between atoms: C_11  and  C_13
REMARK    5  A    between atoms: C_15  and  S_22
REMARK    6  A    between atoms: C_18  and  O_19
REMARK    7  A    between atoms: O_19  and  C_20
REMARK    8  A    between atoms: C_20  and  C_21
REMARK    9  A    between atoms: S_22  and  N_25
REMARK   10  A    between atoms: N_28  and  C_31
REMARK   11  A    between atoms: C_31  and  C_32
REMARK   12  A    between atoms: N_33  and  C_35
REMARK                            x       y       z     vdW  Elec       q    Type
REMARK                         _______ _______ _______ _____ _____    ______ ____
ROOT
ATOM      1  C   UNL     1       4.910  -3.180   1.098  0.00  0.00    +0.061 A 
ATOM      2  C   UNL     1       5.754  -4.192   1.560  0.00  0.00    +0.043 A 
ATOM      3  C   UNL     1       6.916  -3.868   2.227  0.00  0.00    +0.106 A 
ATOM      4  C   UNL     1       7.251  -2.541   2.441  0.00  0.00    +0.032 A 
ATOM      5  C   UNL     1       6.425  -1.530   1.989  0.00  0.00    +0.048 A 
ATOM      6  C   UNL     1       5.256  -1.839   1.312  0.00  0.00    +0.131 A 
ENDROOT
BRANCH   1  14
ATOM      7  C   UNL     1       0.739  -2.004  -1.265  0.00  0.00    +0.089 A 
ATOM      8  C   UNL     1       1.744  -2.814  -0.702  0.00  0.00    +0.119 A 
ATOM      9  C   UNL     1       1.372  -4.145  -0.931  0.00  0.00    +0.151 A 
ATOM     10  C   UNL     1       2.216  -5.179  -0.463  0.00  0.00    +0.278 A 
ATOM     11  O   UNL     1       1.927  -6.350  -0.643  0.00  0.00    -0.265 OA
ATOM     12  N   UNL     1       3.350  -4.838   0.188  0.00  0.00    -0.305 N 
ATOM     13  H   UNL     1       3.944  -5.530   0.518  0.00  0.00    +0.170 HD
ATOM     14  C   UNL     1       3.664  -3.520   0.383  0.00  0.00    +0.145 A 
ATOM     15  N   UNL     1       2.891  -2.551  -0.044  0.00  0.00    -0.225 NA
ATOM     16  N   UNL     1       0.184  -4.116  -1.608  0.00  0.00    -0.260 N 
ATOM     17  N   UNL     1      -0.175  -2.775  -1.791  0.00  0.00    -0.174 NA
ATOM     18  C   UNL     1      -0.579  -5.282  -2.060  0.00  0.00    +0.173 C 
BRANCH   7  19
ATOM     19  C   UNL     1       0.718  -0.497  -1.257  0.00  0.00    +0.059 C 
BRANCH  19  21
ATOM     20  C   UNL     1      -0.019   1.526   0.010  0.00  0.00    +0.004 C 
ATOM     21  C   UNL     1       0.002  -0.004   0.002  0.00  0.00    +0.003 C 
ENDBRANCH  19  21
ENDBRANCH   7  19
ENDBRANCH   1  14
BRANCH   3  22
ATOM     22  S   UNL     1       7.979  -5.146   2.808  0.00  0.00    +0.061 S 
ATOM     23  O   UNL     1       8.731  -4.593   3.880  0.00  0.00    -0.153 OA
ATOM     24  O   UNL     1       7.173  -6.306   2.963  0.00  0.00    -0.153 OA
BRANCH  22  25
ATOM     25  N   UNL     1       9.057  -5.477   1.595  0.00  0.00    -0.174 NA
ATOM     26  C   UNL     1       8.756  -6.492   0.574  0.00  0.00    +0.125 C 
ATOM     27  C   UNL     1       8.974  -5.870  -0.809  0.00  0.00    +0.101 C 
ATOM     28  N   UNL     1      10.327  -5.301  -0.879  0.00  0.00    -0.300 NA
ATOM     29  C   UNL     1      10.496  -4.210   0.090  0.00  0.00    +0.101 C 
ATOM     30  C   UNL     1      10.338  -4.760   1.507  0.00  0.00    +0.125 C 
BRANCH  28  31
ATOM     31  C   UNL     1      10.638  -4.849  -2.241  0.00  0.00    +0.081 C 
ATOM     32  C   UNL     1      12.124  -4.497  -2.335  0.00  0.00    +0.020 C 
ENDBRANCH  28  31
ENDBRANCH  22  25
ENDBRANCH   3  22
BRANCH   6  33
ATOM     33  O   UNL     1       4.446  -0.847   0.862  0.00  0.00    -0.492 OA
BRANCH  33  34
ATOM     34  C   UNL     1       4.863   0.496   1.117  0.00  0.00    +0.226 C 
ATOM     35  C   UNL     1       3.832   1.468   0.541  0.00  0.00    +0.048 C 
ENDBRANCH  33  34
ENDBRANCH   6  33
TORSDOF 8
