REMARK  Name = ZINC12978908
REMARK  9 active torsions:
REMARK  status: ('A' for Active; 'I' for Inactive)
REMARK    1  A    between atoms: C_1  and  C_2
REMARK    2  A    between atoms: C_2  and  C_4
REMARK    3  A    between atoms: C_2  and  O_19
REMARK    4  A    between atoms: C_16  and  C_17
REMARK    5  A    between atoms: C_16  and  C_18
REMARK    6  A    between atoms: O_19  and  C_20
REMARK    7  A    between atoms: C_20  and  C_22
REMARK    8  A    between atoms: C_25  and  S_28
REMARK    9  A    between atoms: S_28  and  N_31
REMARK                            x       y       z     vdW  Elec       q    Type
REMARK                         _______ _______ _______ _____ _____    ______ ____
ROOT
ATOM      1  C   UNL     1      -0.868  -2.927  -0.302  0.00  0.00    +0.062 C 
ATOM      2  C   UNL     1      -0.227  -2.171  -1.468  0.00  0.00    +0.259 C 
ENDROOT
BRANCH   2   3
ATOM      3  C   UNL     1      -0.180  -0.699  -1.148  0.00  0.00    +0.261 C 
ATOM      4  O   UNL     1      -1.151  -0.002  -1.356  0.00  0.00    -0.271 OA
ATOM      5  N   UNL     1       0.939  -0.157  -0.629  0.00  0.00    -0.252 N 
ATOM      6  C   UNL     1       2.082  -0.939  -0.396  0.00  0.00    +0.059 A 
ATOM      7  C   UNL     1       1.977  -2.287  -0.101  0.00  0.00    +0.025 A 
ATOM      8  C   UNL     1       3.121  -3.030   0.127  0.00  0.00    +0.002 A 
ATOM      9  C   UNL     1       4.365  -2.429   0.062  0.00  0.00    +0.002 A 
ATOM     10  C   UNL     1       4.477  -1.083  -0.234  0.00  0.00    +0.025 A 
ATOM     11  C   UNL     1       3.336  -0.331  -0.466  0.00  0.00    +0.055 A 
ATOM     12  N   UNL     1       3.427   1.031  -0.772  0.00  0.00    -0.282 N 
ATOM     13  C   UNL     1       2.338   1.821  -0.724  0.00  0.00    +0.241 C 
ATOM     14  O   UNL     1       2.431   2.990  -1.036  0.00  0.00    -0.273 OA
ATOM     15  C   UNL     1       1.004   1.272  -0.288  0.00  0.00    +0.113 C 
ATOM     16  C   UNL     1      -0.119   2.021  -1.009  0.00  0.00    +0.042 C 
ATOM     17  C   UNL     1       0.848   1.445   1.224  0.00  0.00    +0.042 C 
ATOM     18  H   UNL     1       4.284   1.410  -1.022  0.00  0.00    +0.155 HD
ENDBRANCH   2   3
BRANCH   2  19
ATOM     19  O   UNL     1      -1.013  -2.380  -2.671  0.00  0.00    -0.449 OA
BRANCH  19  20
ATOM     20  C   UNL     1      -0.684  -3.434  -3.441  0.00  0.00    +0.340 C 
ATOM     21  O   UNL     1       0.235  -4.160  -3.117  0.00  0.00    -0.245 OA
BRANCH  20  22
ATOM     22  C   UNL     1      -1.441  -3.709  -4.680  0.00  0.00    +0.059 A 
ATOM     23  C   UNL     1      -2.501  -2.880  -5.052  0.00  0.00    +0.017 A 
ATOM     24  C   UNL     1      -3.200  -3.139  -6.213  0.00  0.00    +0.029 A 
ATOM     25  C   UNL     1      -2.859  -4.223  -7.002  0.00  0.00    +0.106 A 
ATOM     26  C   UNL     1      -1.813  -5.052  -6.636  0.00  0.00    +0.029 A 
ATOM     27  C   UNL     1      -1.102  -4.801  -5.481  0.00  0.00    +0.017 A 
BRANCH  25  28
ATOM     28  S   UNL     1      -3.762  -4.551  -8.479  0.00  0.00    +0.061 S 
ATOM     29  O   UNL     1      -4.340  -3.318  -8.885  0.00  0.00    -0.153 OA
ATOM     30  O   UNL     1      -2.901  -5.303  -9.324  0.00  0.00    -0.153 OA
BRANCH  28  31
ATOM     31  N   UNL     1      -5.018  -5.551  -8.074  0.00  0.00    -0.177 NA
ATOM     32  C   UNL     1      -4.980  -7.021  -8.081  0.00  0.00    +0.109 C 
ATOM     33  C   UNL     1      -6.378  -7.518  -7.658  0.00  0.00    +0.018 C 
ATOM     34  C   UNL     1      -7.290  -6.308  -7.992  0.00  0.00    +0.018 C 
ATOM     35  C   UNL     1      -6.362  -5.115  -7.653  0.00  0.00    +0.109 C 
ENDBRANCH  28  31
ENDBRANCH  25  28
ENDBRANCH  20  22
ENDBRANCH  19  20
ENDBRANCH   2  19
TORSDOF 6
