REMARK  Name = ZINC05644998
REMARK  8 active torsions:
REMARK  status: ('A' for Active; 'I' for Inactive)
REMARK    1  A    between atoms: C_1  and  C_2
REMARK    2  A    between atoms: C_2  and  O_3
REMARK    3  A    between atoms: O_3  and  C_4
REMARK    4  A    between atoms: C_7  and  C_10
REMARK    5  A    between atoms: C_13  and  O_31
REMARK    6  A    between atoms: N_15  and  C_22
REMARK    7  A    between atoms: C_27  and  C_29
REMARK    8  A    between atoms: C_27  and  C_30
REMARK                            x       y       z     vdW  Elec       q    Type
REMARK                         _______ _______ _______ _____ _____    ______ ____
ROOT
ATOM      1  C   UNL     1       1.144  -6.059   1.764  0.00  0.00    +0.115 C 
ATOM      2  C   UNL     1       0.437  -6.465   3.019  0.00  0.00    +0.072 A 
ATOM      3  C   UNL     1      -0.613  -5.694   3.571  0.00  0.00    +0.238 A 
ATOM      4  N   UNL     1      -1.037  -6.281   4.656  0.00  0.00    -0.131 NA
ATOM      5  N   UNL     1      -0.285  -7.440   4.845  0.00  0.00    -0.243 N 
ATOM      6  C   UNL     1       0.623  -7.539   3.817  0.00  0.00    +0.132 A 
ATOM      7  N   UNL     1       1.497  -8.597   3.742  0.00  0.00    -0.270 N 
ATOM      8  C   UNL     1       2.468  -8.930   2.946  0.00  0.00    +0.228 C 
ATOM      9  O   UNL     1       3.087  -9.918   3.282  0.00  0.00    -0.275 OA
ATOM     10  C   UNL     1       2.939  -8.297   1.696  0.00  0.00    +0.166 C 
ATOM     11  S   UNL     1       2.884  -6.500   1.759  0.00  0.00    -0.138 S 
ATOM     12  H   UNL     1       1.355  -9.246   4.448  0.00  0.00    +0.156 HD
ENDROOT
BRANCH   5  13
ATOM     13  C   UNL     1      -0.437  -8.390   5.949  0.00  0.00    +0.114 C 
ATOM     14  C   UNL     1      -0.198  -7.671   7.281  0.00  0.00    +0.055 C 
ATOM     15  C   UNL     1      -0.436  -8.653   8.432  0.00  0.00    +0.162 C 
ATOM     16  O   UNL     1      -1.764  -9.173   8.345  0.00  0.00    -0.374 OA
ATOM     17  C   UNL     1      -2.030  -9.896   7.142  0.00  0.00    +0.066 C 
ATOM     18  C   UNL     1      -1.856  -8.967   5.938  0.00  0.00    +0.061 C 
ATOM     19  C   UNL     1      -3.465 -10.427   7.173  0.00  0.00    +0.041 C 
ATOM     20  C   UNL     1      -1.054 -11.069   7.025  0.00  0.00    +0.041 C 
ENDBRANCH   5  13
BRANCH   1  24
ATOM     21  C   UNL     1       0.802  -1.824   1.306  0.00  0.00    +0.121 A 
ATOM     22  C   UNL     1       0.260  -2.673   0.351  0.00  0.00    +0.046 A 
ATOM     23  C   UNL     1       0.372  -4.041   0.502  0.00  0.00    +0.008 A 
ATOM     24  C   UNL     1       1.024  -4.566   1.603  0.00  0.00    -0.030 A 
ATOM     25  C   UNL     1       1.565  -3.722   2.555  0.00  0.00    +0.008 A 
ATOM     26  C   UNL     1       1.460  -2.353   2.406  0.00  0.00    +0.046 A 
BRANCH  21  27
ATOM     27  O   UNL     1       0.693  -0.477   1.160  0.00  0.00    -0.492 OA
BRANCH  27  29
ATOM     28  C   UNL     1      -0.019   1.526   0.010  0.00  0.00    +0.048 C 
ATOM     29  C   UNL     1       0.002  -0.004   0.002  0.00  0.00    +0.225 C 
ENDBRANCH  27  29
ENDBRANCH  21  27
ENDBRANCH   1  24
BRANCH   3  30
ATOM     30  O   UNL     1      -1.099  -4.533   3.055  0.00  0.00    -0.491 OA
ATOM     31  H   UNL     1      -1.827  -4.655   2.430  0.00  0.00    +0.294 HD
ENDBRANCH   3  30
TORSDOF 5
