REMARK  Name = ZINC63648492
REMARK  4 active torsions:
REMARK  status: ('A' for Active; 'I' for Inactive)
REMARK    1  A    between atoms: C_6  and  C_10
REMARK    2  A    between atoms: C_10  and  S_11
REMARK    3  A    between atoms: S_11  and  C_12
REMARK    4  A    between atoms: C_13  and  C_24
REMARK                            x       y       z     vdW  Elec       q    Type
REMARK                         _______ _______ _______ _____ _____    ______ ____
ROOT
ATOM      1  C   UNL     1       3.491  -2.812  -4.040  0.00  0.00    +0.061 C 
ATOM      2  C   UNL     1       3.291  -2.561  -5.407  0.00  0.00    +0.092 C 
ATOM      3  C   UNL     1       3.675  -3.507  -6.332  0.00  0.00    +0.077 C 
ATOM      4  N   UNL     1       3.259  -3.686  -7.581  0.00  0.00    -0.165 NA
ATOM      5  C   UNL     1       3.466  -4.882  -8.150  0.00  0.00    +0.330 C 
ATOM      6  O   UNL     1       3.367  -4.986  -9.359  0.00  0.00    -0.250 OA
ATOM      7  N   UNL     1       3.779  -5.972  -7.426  0.00  0.00    -0.237 N 
ATOM      8  C   UNL     1       4.283  -5.859  -6.170  0.00  0.00    +0.240 C 
ATOM      9  O   UNL     1       4.390  -6.817  -5.436  0.00  0.00    -0.274 OA
ATOM     10  C   UNL     1       4.700  -4.480  -5.741  0.00  0.00    +0.185 C 
ATOM     11  S   UNL     1       4.449  -4.193  -3.956  0.00  0.00    -0.098 S 
ATOM     12  H   UNL     1       3.642  -6.854  -7.806  0.00  0.00    +0.159 HD
ENDROOT
BRANCH   2  13
ATOM     13  C   UNL     1       2.692  -1.333  -5.836  0.00  0.00    +0.102 C 
ATOM     14  N   UNL     1       2.216  -0.359  -6.176  0.00  0.00    -0.191 NA
ENDBRANCH   2  13
BRANCH   1  15
ATOM     15  S   UNL     1       2.908  -1.923  -2.766  0.00  0.00    -0.113 S 
BRANCH  15  16
ATOM     16  C   UNL     1       3.542  -2.787  -1.302  0.00  0.00    +0.121 C 
BRANCH  16  22
ATOM     17  C   UNL     1      -0.016   1.344   0.009  0.00  0.00    +0.002 A 
ATOM     18  C   UNL     1       1.158   2.118   0.002  0.00  0.00    +0.002 A 
ATOM     19  C   UNL     1       2.389   1.570  -0.013  0.00  0.00    +0.027 A 
ATOM     20  C   UNL     1       2.533   0.108  -0.022  0.00  0.00    +0.060 A 
ATOM     21  N   UNL     1       3.569  -0.680  -0.036  0.00  0.00    -0.363 N 
ATOM     22  C   UNL     1       3.071  -2.062  -0.039  0.00  0.00    +0.184 C 
ATOM     23  N   UNL     1       1.606  -1.974  -0.024  0.00  0.00    -0.363 N 
ATOM     24  C   UNL     1       1.290  -0.712  -0.014  0.00  0.00    +0.060 A 
ATOM     25  C   UNL     1       0.002  -0.004   0.002  0.00  0.00    +0.027 A 
ATOM     26  H   UNL     1       4.499  -0.405  -0.045  0.00  0.00    +0.162 HD
ATOM     27  H   UNL     1       0.987  -2.721  -0.022  0.00  0.00    +0.162 HD
ENDBRANCH  16  22
ENDBRANCH  15  16
ENDBRANCH   1  15
TORSDOF 4
