REMARK  Name = ZINC08741785
REMARK  8 active torsions:
REMARK  status: ('A' for Active; 'I' for Inactive)
REMARK    1  A    between atoms: C_4  and  C_7
REMARK    2  A    between atoms: C_7  and  O_8
REMARK    3  A    between atoms: O_8  and  C_9
REMARK    4  A    between atoms: C_12  and  C_15
REMARK    5  A    between atoms: C_17  and  C_29
REMARK    6  A    between atoms: C_19  and  C_24
REMARK    7  A    between atoms: C_19  and  O_28
REMARK    8  A    between atoms: C_29  and  C_31
REMARK                            x       y       z     vdW  Elec       q    Type
REMARK                         _______ _______ _______ _____ _____    ______ ____
ROOT
ATOM      1  C   UNL     1      -2.339  -0.119  -1.136  0.00  0.00    +0.120 C 
ATOM      2  C   UNL     1      -1.289  -0.965  -0.410  0.00  0.00    +0.145 C 
ATOM      3  C   UNL     1       0.098  -0.388  -0.714  0.00  0.00    +0.243 C 
ATOM      4  N   UNL     1       0.288  -0.331  -2.164  0.00  0.00    -0.264 N 
ATOM      5  C   UNL     1      -0.753  -0.175  -2.997  0.00  0.00    +0.302 C 
ATOM      6  O   UNL     1      -0.539  -0.122  -4.193  0.00  0.00    -0.253 OA
ATOM      7  N   UNL     1      -2.018  -0.075  -2.563  0.00  0.00    -0.292 N 
ATOM      8  H   UNL     1       1.184  -0.406  -2.529  0.00  0.00    +0.153 HD
ATOM      9  H   UNL     1      -2.735   0.027  -3.209  0.00  0.00    +0.151 HD
ENDROOT
BRANCH   1  13
ATOM     10  C   UNL     1      -6.203  -1.860  -0.590  0.00  0.00    +0.121 A 
ATOM     11  C   UNL     1      -5.729  -0.923   0.316  0.00  0.00    +0.046 A 
ATOM     12  C   UNL     1      -4.480  -0.361   0.138  0.00  0.00    +0.009 A 
ATOM     13  C   UNL     1      -3.702  -0.733  -0.944  0.00  0.00    -0.026 A 
ATOM     14  C   UNL     1      -4.174  -1.663  -1.851  0.00  0.00    +0.009 A 
ATOM     15  C   UNL     1      -5.421  -2.231  -1.674  0.00  0.00    +0.046 A 
BRANCH  10  16
ATOM     16  O   UNL     1      -7.432  -2.414  -0.416  0.00  0.00    -0.487 OA
BRANCH  16  17
ATOM     17  C   UNL     1      -7.855  -3.372  -1.388  0.00  0.00    +0.264 C 
BRANCH  17  21
ATOM     18  C   UNL     1     -11.755  -4.795  -0.383  0.00  0.00    +0.000 A 
ATOM     19  C   UNL     1     -11.613  -3.687  -1.197  0.00  0.00    +0.000 A 
ATOM     20  C   UNL     1     -10.350  -3.227  -1.523  0.00  0.00    +0.007 A 
ATOM     21  C   UNL     1      -9.231  -3.874  -1.034  0.00  0.00    -0.010 A 
ATOM     22  C   UNL     1      -9.374  -4.985  -0.223  0.00  0.00    +0.007 A 
ATOM     23  C   UNL     1     -10.636  -5.442   0.106  0.00  0.00    +0.000 A 
ENDBRANCH  17  21
ENDBRANCH  16  17
ENDBRANCH  10  16
ENDBRANCH   1  13
BRANCH   3  24
ATOM     24  C   UNL     1       0.205   1.021  -0.127  0.00  0.00    +0.436 C 
ATOM     25  F   UNL     1       1.470   1.548  -0.408  0.00  0.00    -0.166 F 
ATOM     26  F   UNL     1      -0.777   1.839  -0.696  0.00  0.00    -0.166 F 
ATOM     27  F   UNL     1       0.020   0.965   1.258  0.00  0.00    -0.166 F 
ENDBRANCH   3  24
BRANCH   3  28
ATOM     28  O   UNL     1       1.101  -1.224  -0.133  0.00  0.00    -0.364 OA
ATOM     29  H   UNL     1       2.005  -0.919  -0.288  0.00  0.00    +0.212 HD
ENDBRANCH   3  28
BRANCH   2  30
ATOM     30  C   UNL     1      -1.362  -2.390  -0.897  0.00  0.00    +0.179 C 
ATOM     31  O   UNL     1      -1.635  -2.622  -2.057  0.00  0.00    -0.291 OA
BRANCH  30  32
ATOM     32  C   UNL     1      -1.113  -3.455  -0.003  0.00  0.00    +0.055 A 
ATOM     33  C   UNL     1      -1.134  -4.825  -0.244  0.00  0.00    +0.019 A 
ATOM     34  C   UNL     1      -0.847  -5.648   0.813  0.00  0.00    +0.008 A 
ATOM     35  C   UNL     1      -0.572  -5.099   2.027  0.00  0.00    +0.046 A 
ATOM     36  S   UNL     1      -0.697  -3.395   1.731  0.00  0.00    -0.094 S 
ENDBRANCH  30  32
ENDBRANCH   2  30
TORSDOF 8
