REMARK  Name = ZINC16531287
REMARK  6 active torsions:
REMARK  status: ('A' for Active; 'I' for Inactive)
REMARK    1  A    between atoms: C_1  and  O_2
REMARK    2  A    between atoms: O_2  and  C_3
REMARK    3  A    between atoms: C_7  and  C_9
REMARK    4  A    between atoms: C_9  and  C_10
REMARK    5  A    between atoms: C_22  and  C_24
REMARK    6  A    between atoms: C_27  and  N_31
REMARK                            x       y       z     vdW  Elec       q    Type
REMARK                         _______ _______ _______ _____ _____    ______ ____
ROOT
ATOM      1  C   UNL     1      -6.372  -2.993   2.631  0.00  0.00    +0.114 A 
ATOM      2  N   UNL     1      -7.259  -2.573   3.555  0.00  0.00    -0.310 N 
ATOM      3  H   UNL     1      -8.138  -2.266   3.284  0.00  0.00    +0.170 HD
ATOM      4  C   UNL     1      -6.918  -2.587   4.860  0.00  0.00    +0.256 A 
ATOM      5  O   UNL     1      -7.708  -2.217   5.712  0.00  0.00    -0.267 OA
ATOM      6  C   UNL     1      -5.626  -3.034   5.223  0.00  0.00    +0.055 A 
ATOM      7  C   UNL     1      -4.782  -3.454   4.250  0.00  0.00    +0.055 A 
ATOM      8  N   UNL     1      -5.186  -3.412   2.969  0.00  0.00    -0.238 NA
ATOM      9  C   UNL     1      -3.402  -3.984   4.533  0.00  0.00    +0.075 C 
ATOM     10  C   UNL     1      -2.915  -3.524   5.907  0.00  0.00    +0.114 C 
ATOM     11  N   UNL     1      -3.998  -3.762   6.875  0.00  0.00    -0.293 N 
ATOM     12  C   UNL     1      -5.248  -3.018   6.681  0.00  0.00    +0.150 C 
ATOM     13  C   UNL     1      -3.849  -4.628   7.897  0.00  0.00    +0.248 C 
ATOM     14  O   UNL     1      -2.842  -5.304   7.978  0.00  0.00    -0.270 OA
ENDROOT
BRANCH  13  15
ATOM     15  C   UNL     1      -4.909  -4.756   8.918  0.00  0.00    +0.055 A 
ATOM     16  C   UNL     1      -5.532  -3.615   9.429  0.00  0.00    +0.017 A 
ATOM     17  C   UNL     1      -6.523  -3.742  10.379  0.00  0.00    +0.033 A 
ATOM     18  C   UNL     1      -6.895  -4.995  10.834  0.00  0.00    +0.128 A 
ATOM     19  C   UNL     1      -6.280  -6.129  10.337  0.00  0.00    +0.053 A 
ATOM     20  C   UNL     1      -5.289  -6.018   9.382  0.00  0.00    +0.055 A 
ATOM     21 CL   UNL     1      -4.516  -7.442   8.759  0.00  0.00    -0.083 Cl
BRANCH  18  22
ATOM     22  N   UNL     1      -7.957  -5.121  11.858  0.00  0.00    +0.056 N 
ATOM     23  O   UNL     1      -8.286  -6.223  12.261  0.00  0.00    -0.126 OA
ATOM     24  O   UNL     1      -8.501  -4.124  12.298  0.00  0.00    -0.126 OA
ENDBRANCH  18  22
ENDBRANCH  13  15
BRANCH   1  25
ATOM     25  C   UNL     1      -6.760  -2.970   1.175  0.00  0.00    +0.109 C 
BRANCH  25  30
ATOM     26  C   UNL     1      -3.603  -3.056  -0.901  0.00  0.00    +0.120 A 
ATOM     27  C   UNL     1      -3.501  -4.410  -1.188  0.00  0.00    +0.045 A 
ATOM     28  C   UNL     1      -4.452  -5.290  -0.710  0.00  0.00    +0.004 A 
ATOM     29  C   UNL     1      -5.505  -4.823   0.054  0.00  0.00    +0.004 A 
ATOM     30  C   UNL     1      -5.610  -3.475   0.342  0.00  0.00    -0.037 A 
ATOM     31  C   UNL     1      -4.658  -2.591  -0.130  0.00  0.00    +0.049 A 
BRANCH  26  33
ATOM     32  C   UNL     1      -1.607  -2.738  -2.153  0.00  0.00    +0.277 C 
ATOM     33  O   UNL     1      -2.669  -2.188  -1.370  0.00  0.00    -0.495 OA
ENDBRANCH  26  33
ENDBRANCH  25  30
ENDBRANCH   1  25
TORSDOF 5
