REMARK  Name = ZINC01330297
REMARK  9 active torsions:
REMARK  status: ('A' for Active; 'I' for Inactive)
REMARK    1  A    between atoms: C_1  and  C_2
REMARK    2  A    between atoms: C_9  and  C_16
REMARK    3  A    between atoms: C_10  and  N_11
REMARK    4  A    between atoms: N_11  and  C_12
REMARK    5  A    between atoms: C_12  and  C_13
REMARK    6  A    between atoms: C_12  and  C_14
REMARK    7  A    between atoms: C_12  and  C_15
REMARK    8  A    between atoms: C_21  and  O_28
REMARK    9  A    between atoms: O_28  and  C_29
REMARK                            x       y       z     vdW  Elec       q    Type
REMARK                         _______ _______ _______ _____ _____    ______ ____
ROOT
ATOM      1  C   UNL     1       3.479  -1.213  15.963  0.00  0.00    +0.044 C 
ATOM      2  C   UNL     1       2.945  -0.795  14.617  0.00  0.00    -0.046 A 
ATOM      3  C   UNL     1       1.896   0.138  14.534  0.00  0.00    +0.021 A 
ATOM      4  C   UNL     1       1.413   0.515  13.333  0.00  0.00    +0.095 A 
ATOM      5  N   UNL     1       1.936  -0.002  12.178  0.00  0.00    -0.288 N 
ATOM      6  C   UNL     1       2.963  -0.917  12.228  0.00  0.00    +0.140 A 
ATOM      7  C   UNL     1       3.475  -1.319  13.480  0.00  0.00    +0.050 A 
ATOM      8  N   UNL     1       3.280  -1.263  10.991  0.00  0.00    -0.226 NA
ATOM      9  C   UNL     1       2.495  -0.593  10.127  0.00  0.00    +0.117 A 
ATOM     10  C   UNL     1       1.639   0.204  10.860  0.00  0.00    +0.132 A 
ENDROOT
BRANCH   9  11
ATOM     11  C   UNL     1       2.538  -0.698   8.652  0.00  0.00    +0.069 A 
ATOM     12  C   UNL     1       1.633  -0.017   7.885  0.00  0.00    +0.025 A 
ATOM     13  C   UNL     1       1.693  -0.133   6.474  0.00  0.00    -0.001 A 
ATOM     14  C   UNL     1       0.774   0.555   5.668  0.00  0.00    +0.013 A 
ATOM     15  C   UNL     1       0.842   0.443   4.311  0.00  0.00    +0.046 A 
ATOM     16  C   UNL     1       1.812  -0.360   3.715  0.00  0.00    +0.122 A 
ATOM     17  C   UNL     1       2.728  -1.047   4.491  0.00  0.00    +0.072 A 
ATOM     18  C   UNL     1       2.679  -0.942   5.877  0.00  0.00    +0.053 A 
ATOM     19  N   UNL     1       3.590  -1.625   6.657  0.00  0.00    -0.321 N 
ATOM     20  H   UNL     1       4.285  -2.196   6.220  0.00  0.00    +0.169 HD
ATOM     21  C   UNL     1       3.552  -1.532   8.000  0.00  0.00    +0.259 A 
ATOM     22  O   UNL     1       4.363  -2.142   8.674  0.00  0.00    -0.267 OA
BRANCH  16  23
ATOM     23  O   UNL     1       1.863  -0.465   2.362  0.00  0.00    -0.495 OA
ATOM     24  C   UNL     1       0.889   0.270   1.617  0.00  0.00    +0.277 C 
ENDBRANCH  16  23
ENDBRANCH   9  11
BRANCH  10  25
ATOM     25  N   UNL     1       0.658   1.057  10.352  0.00  0.00    -0.324 N 
ATOM     26  H   UNL     1       0.054   0.570   9.706  0.00  0.00    +0.148 HD
BRANCH  25  27
ATOM     27  C   UNL     1      -0.118   1.672  11.437  0.00  0.00    +0.025 C 
ATOM     28  C   UNL     1       0.772   2.643  12.214  0.00  0.00    +0.031 C 
ATOM     29  C   UNL     1      -1.308   2.432  10.846  0.00  0.00    +0.031 C 
ATOM     30  C   UNL     1      -0.628   0.581  12.380  0.00  0.00    +0.031 C 
ENDBRANCH  25  27
ENDBRANCH  10  25
TORSDOF 4
