REMARK  Name = ZINC31933556
REMARK  3 active torsions:
REMARK  status: ('A' for Active; 'I' for Inactive)
REMARK    1  A    between atoms: C_1  and  C_2
REMARK    2  A    between atoms: C_2  and  C_3
REMARK    3  A    between atoms: C_4  and  C_14
REMARK                            x       y       z     vdW  Elec       q    Type
REMARK                         _______ _______ _______ _____ _____    ______ ____
ROOT
ATOM      1  C   UNL     1      -0.718   1.572   1.248  0.00  0.00    -0.026 A 
ATOM      2  C   UNL     1      -1.692   0.836   1.809  0.00  0.00    -0.007 A 
ATOM      3  S   UNL     1      -2.192   1.819   3.210  0.00  0.00    -0.075 S 
ATOM      4  C   UNL     1      -1.080   3.183   2.998  0.00  0.00    +0.089 A 
ATOM      5  C   UNL     1      -0.350   2.837   1.854  0.00  0.00    +0.042 A 
ATOM      6  C   UNL     1       0.678   3.821   1.445  0.00  0.00    +0.119 A 
ATOM      7  S   UNL     1       1.647   3.540   0.061  0.00  0.00    -0.030 S 
ATOM      8  N   UNL     1       0.839   4.936   2.174  0.00  0.00    -0.230 NA
ATOM      9  C   UNL     1       0.123   5.189   3.233  0.00  0.00    +0.198 A 
ATOM     10  N   UNL     1      -0.840   4.344   3.661  0.00  0.00    -0.340 N 
ATOM     11  H   UNL     1      -1.431   4.601   4.552  0.00  0.00    +0.167 HD
ATOM     12  C   UNL     1      -2.232  -0.498   1.361  0.00  0.00    +0.052 C 
ENDROOT
BRANCH   1  14
ATOM     13  C   UNL     1      -0.753   1.593  -1.232  0.00  0.00    +0.009 C 
ATOM     14  C   UNL     1      -0.013   1.086   0.008  0.00  0.00    +0.033 C 
ENDBRANCH   1  14
TORSDOF 1
