REMARK  Name = ZINC39747217
REMARK  7 active torsions:
REMARK  status: ('A' for Active; 'I' for Inactive)
REMARK    1  A    between atoms: C_1  and  O_2
REMARK    2  A    between atoms: O_2  and  C_3
REMARK    3  A    between atoms: C_6  and  O_9
REMARK    4  A    between atoms: O_9  and  C_10
REMARK    5  A    between atoms: C_12  and  C_23
REMARK    6  A    between atoms: C_24  and  C_25
REMARK    7  A    between atoms: C_24  and  C_27
REMARK                            x       y       z     vdW  Elec       q    Type
REMARK                         _______ _______ _______ _____ _____    ______ ____
ROOT
ATOM      1  C   UNL     1       2.454  -3.868  -4.280  0.00  0.00    +0.308 C 
ATOM      2  C   UNL     1       3.475  -4.357  -5.308  0.00  0.00    +0.163 C 
ATOM      3  C   UNL     1       3.257  -5.829  -5.559  0.00  0.00    +0.237 C 
ATOM      4  O   UNL     1       4.203  -6.559  -5.763  0.00  0.00    -0.274 OA
ATOM      5  N   UNL     1       2.005  -6.327  -5.554  0.00  0.00    -0.231 N 
ATOM      6  C   UNL     1       1.792  -7.630  -5.928  0.00  0.00    +0.085 C 
ATOM      7  C   UNL     1       0.541  -8.112  -6.054  0.00  0.00    +0.016 C 
ATOM      8  C   UNL     1      -0.571  -7.285  -5.803  0.00  0.00    +0.005 C 
ATOM      9  C   UNL     1      -0.382  -6.012  -5.374  0.00  0.00    +0.044 C 
ATOM     10  C   UNL     1       0.940  -5.532  -5.185  0.00  0.00    +0.130 C 
ATOM     11  N   UNL     1       1.123  -4.364  -4.624  0.00  0.00    -0.225 NA
ENDROOT
BRANCH   2  12
ATOM     12  C   UNL     1       3.300  -3.594  -6.596  0.00  0.00    +0.010 C 
ATOM     13  C   UNL     1       4.304  -2.869  -7.082  0.00  0.00    +0.068 C 
BRANCH  13  14
ATOM     14  C   UNL     1       4.128  -2.106  -8.369  0.00  0.00    +0.216 C 
ATOM     15  N   UNL     1       5.150  -2.515  -9.341  0.00  0.00    -0.359 N 
ATOM     16  C   UNL     1       5.854  -1.460  -9.635  0.00  0.00    +0.060 A 
ATOM     17  C   UNL     1       6.997  -1.240 -10.532  0.00  0.00    +0.027 A 
ATOM     18  C   UNL     1       7.533  -0.008 -10.636  0.00  0.00    +0.002 A 
ATOM     19  C   UNL     1       7.043   1.095  -9.914  0.00  0.00    +0.002 A 
ATOM     20  C   UNL     1       6.001   1.003  -9.065  0.00  0.00    +0.027 A 
ATOM     21  C   UNL     1       5.335  -0.292  -8.872  0.00  0.00    +0.060 A 
ATOM     22  N   UNL     1       4.331  -0.670  -8.135  0.00  0.00    -0.359 N 
ATOM     23  H   UNL     1       5.277  -3.408  -9.698  0.00  0.00    +0.162 HD
ATOM     24  H   UNL     1       3.811  -0.107  -7.541  0.00  0.00    +0.162 HD
ENDBRANCH  13  14
BRANCH  13  25
ATOM     25  C   UNL     1       5.552  -2.815  -6.381  0.00  0.00    +0.098 C 
ATOM     26  N   UNL     1       6.542  -2.772  -5.826  0.00  0.00    -0.191 NA
ENDBRANCH  13  25
ENDBRANCH   2  12
BRANCH   1  27
ATOM     27  O   UNL     1       2.440  -2.439  -4.269  0.00  0.00    -0.466 OA
BRANCH  27  31
ATOM     28  C   UNL     1       0.606  -0.608  -1.056  0.00  0.00    +0.120 A 
ATOM     29  C   UNL     1       1.173   0.161  -2.062  0.00  0.00    +0.049 A 
ATOM     30  C   UNL     1       1.786  -0.452  -3.137  0.00  0.00    +0.049 A 
ATOM     31  C   UNL     1       1.836  -1.836  -3.211  0.00  0.00    +0.124 A 
ATOM     32  C   UNL     1       1.270  -2.604  -2.204  0.00  0.00    +0.049 A 
ATOM     33  C   UNL     1       0.661  -1.992  -1.127  0.00  0.00    +0.049 A 
BRANCH  28  35
ATOM     34  C   UNL     1      -0.017   1.425   0.010  0.00  0.00    +0.277 C 
ATOM     35  O   UNL     1       0.002  -0.004   0.002  0.00  0.00    -0.495 OA
ENDBRANCH  28  35
ENDBRANCH  27  31
ENDBRANCH   1  27
TORSDOF 6
