REMARK  Name = ZINC36543559
REMARK  11 active torsions:
REMARK  status: ('A' for Active; 'I' for Inactive)
REMARK    1  A    between atoms: C_1  and  O_2
REMARK    2  A    between atoms: O_2  and  C_3
REMARK    3  A    between atoms: C_6  and  C_11
REMARK    4  A    between atoms: C_8  and  O_9
REMARK    5  A    between atoms: O_9  and  C_10
REMARK    6  A    between atoms: C_11  and  C_13
REMARK    7  A    between atoms: C_11  and  N_22
REMARK    8  A    between atoms: N_15  and  C_16
REMARK    9  A    between atoms: N_22  and  C_23
REMARK   10  A    between atoms: C_30  and  C_32
REMARK   11  A    between atoms: C_37  and  O_38
REMARK                            x       y       z     vdW  Elec       q    Type
REMARK                         _______ _______ _______ _____ _____    ______ ____
ROOT
ATOM      1  C   UNL     1       2.541  -2.626   4.217  0.00  0.00    +0.198 C 
ENDROOT
BRANCH   1   5
ATOM      2  C   UNL     1       0.334  -0.943   0.964  0.00  0.00    +0.162 A 
ATOM      3  C   UNL     1       0.682  -0.155   2.050  0.00  0.00    +0.050 A 
ATOM      4  C   UNL     1       1.396  -0.702   3.099  0.00  0.00    +0.010 A 
ATOM      5  C   UNL     1       1.763  -2.035   3.070  0.00  0.00    -0.014 A 
ATOM      6  C   UNL     1       1.419  -2.826   1.990  0.00  0.00    +0.055 A 
ATOM      7  C   UNL     1       0.698  -2.285   0.937  0.00  0.00    +0.162 A 
BRANCH   2   9
ATOM      8  C   UNL     1      -0.709   0.979   0.027  0.00  0.00    +0.277 C 
ATOM      9  O   UNL     1      -0.369  -0.406  -0.070  0.00  0.00    -0.491 OA
ENDBRANCH   2   9
BRANCH   7  10
ATOM     10  O   UNL     1       0.353  -3.064  -0.124  0.00  0.00    -0.491 OA
ATOM     11  C   UNL     1       0.761  -4.433  -0.084  0.00  0.00    +0.277 C 
ENDBRANCH   7  10
ENDBRANCH   1   5
BRANCH   1  12
ATOM     12  C   UNL     1       1.940  -2.169   5.521  0.00  0.00    +0.239 C 
ATOM     13  O   UNL     1       2.387  -1.193   6.086  0.00  0.00    -0.273 OA
ATOM     14  N   UNL     1       0.904  -2.843   6.059  0.00  0.00    -0.311 N 
ATOM     15  H   UNL     1       0.546  -3.623   5.607  0.00  0.00    +0.149 HD
BRANCH  14  16
ATOM     16  C   UNL     1       0.320  -2.398   7.326  0.00  0.00    +0.073 C 
ATOM     17  C   UNL     1       1.118  -2.987   8.491  0.00  0.00    +0.022 C 
ATOM     18  C   UNL     1       0.507  -2.523   9.814  0.00  0.00    +0.002 C 
ATOM     19  C   UNL     1      -0.945  -2.997   9.900  0.00  0.00    +0.000 C 
ATOM     20  C   UNL     1      -1.743  -2.408   8.736  0.00  0.00    +0.002 C 
ATOM     21  C   UNL     1      -1.133  -2.872   7.412  0.00  0.00    +0.022 C 
ENDBRANCH  14  16
ENDBRANCH   1  12
BRANCH   1  22
ATOM     22  N   UNL     1       3.936  -2.184   4.141  0.00  0.00    -0.250 N 
ATOM     23  C   UNL     1       4.836  -2.637   5.035  0.00  0.00    +0.255 C 
ATOM     24  O   UNL     1       4.511  -3.474   5.855  0.00  0.00    -0.269 OA
BRANCH  22  25
ATOM     25  C   UNL     1       4.333  -1.291   3.139  0.00  0.00    +0.056 A 
ATOM     26  C   UNL     1       3.860   0.015   3.143  0.00  0.00    +0.025 A 
ATOM     27  C   UNL     1       4.254   0.893   2.153  0.00  0.00    +0.002 A 
ATOM     28  C   UNL     1       5.118   0.474   1.158  0.00  0.00    +0.002 A 
ATOM     29  C   UNL     1       5.591  -0.825   1.150  0.00  0.00    +0.022 A 
ATOM     30  C   UNL     1       5.205  -1.708   2.141  0.00  0.00    +0.062 A 
ATOM     31 CL   UNL     1       5.804  -3.337   2.134  0.00  0.00    -0.082 Cl
ENDBRANCH  22  25
BRANCH  23  32
ATOM     32  C   UNL     1       6.217  -2.117   5.020  0.00  0.00    +0.079 A 
ATOM     33  C   UNL     1       6.469  -0.806   4.608  0.00  0.00    +0.017 A 
ATOM     34  C   UNL     1       7.761  -0.326   4.597  0.00  0.00    +0.001 A 
ATOM     35  C   UNL     1       8.811  -1.138   4.992  0.00  0.00    +0.004 A 
ATOM     36  C   UNL     1       8.576  -2.435   5.401  0.00  0.00    +0.046 A 
ATOM     37  C   UNL     1       7.282  -2.933   5.425  0.00  0.00    +0.129 A 
BRANCH  37  38
ATOM     38  O   UNL     1       7.048  -4.205   5.832  0.00  0.00    -0.506 OA
ATOM     39  H   UNL     1       7.079  -4.858   5.119  0.00  0.00    +0.292 HD
ENDBRANCH  37  38
ENDBRANCH  23  32
ENDBRANCH   1  22
TORSDOF 9
