REMARK  Name = ZINC63161846
REMARK  8 active torsions:
REMARK  status: ('A' for Active; 'I' for Inactive)
REMARK    1  A    between atoms: C_1  and  C_2
REMARK    2  A    between atoms: C_2  and  C_3
REMARK    3  A    between atoms: C_2  and  C_4
REMARK    4  A    between atoms: C_4  and  C_5
REMARK    5  A    between atoms: C_4  and  C_22
REMARK    6  A    between atoms: C_5  and  N_6
REMARK    7  A    between atoms: N_9  and  C_10
REMARK    8  A    between atoms: C_12  and  C_18
REMARK                            x       y       z     vdW  Elec       q    Type
REMARK                         _______ _______ _______ _____ _____    ______ ____
ROOT
ATOM      1  N   UNL     1      -2.192   1.563  -0.899  0.00  0.00    -0.299 N 
ATOM      2  C   UNL     1      -2.739   2.293  -1.891  0.00  0.00    +0.304 C 
ATOM      3  O   UNL     1      -3.431   1.752  -2.733  0.00  0.00    -0.253 OA
ATOM      4  N   UNL     1      -2.519   3.621  -1.951  0.00  0.00    -0.265 N 
ATOM      5  H   UNL     1      -1.641   1.994  -0.227  0.00  0.00    +0.150 HD
ATOM      6  H   UNL     1      -1.910   4.041  -1.324  0.00  0.00    +0.157 HD
ENDROOT
BRANCH   4   7
ATOM      7  C   UNL     1      -3.171   4.396  -2.921  0.00  0.00    +0.100 A 
ATOM      8  C   UNL     1      -3.990   5.427  -2.547  0.00  0.00    +0.042 A 
ATOM      9  C   UNL     1      -4.629   6.187  -3.537  0.00  0.00    +0.073 A 
ATOM     10  C   UNL     1      -4.434   5.898  -4.844  0.00  0.00    +0.098 A 
ATOM     11  N   UNL     1      -3.621   4.875  -5.217  0.00  0.00    -0.327 N 
ATOM     12  H   UNL     1      -3.493   4.683  -6.159  0.00  0.00    +0.168 HD
ATOM     13  C   UNL     1      -2.986   4.127  -4.294  0.00  0.00    +0.270 A 
ATOM     14  O   UNL     1      -2.255   3.215  -4.644  0.00  0.00    -0.266 OA
BRANCH   9  15
ATOM     15  C   UNL     1      -5.535   7.325  -3.144  0.00  0.00    +0.419 C 
ATOM     16  F   UNL     1      -6.053   7.928  -4.296  0.00  0.00    -0.166 F 
ATOM     17  F   UNL     1      -6.587   6.836  -2.362  0.00  0.00    -0.166 F 
ATOM     18  F   UNL     1      -4.808   8.269  -2.411  0.00  0.00    -0.166 F 
ENDBRANCH   9  15
ENDBRANCH   4   7
BRANCH   1  19
ATOM     19  C   UNL     1      -2.431   0.119  -0.834  0.00  0.00    +0.114 C 
BRANCH  19  20
ATOM     20  C   UNL     1      -1.614  -0.482   0.312  0.00  0.00    +0.039 C 
BRANCH  20  21
ATOM     21  C   UNL     1      -2.078   0.104   1.621  0.00  0.00    -0.043 A 
ATOM     22  C   UNL     1      -3.388  -0.064   2.027  0.00  0.00    +0.004 A 
ATOM     23  C   UNL     1      -3.813   0.473   3.228  0.00  0.00    +0.000 A 
ATOM     24  C   UNL     1      -2.928   1.178   4.022  0.00  0.00    +0.000 A 
ATOM     25  C   UNL     1      -1.617   1.345   3.616  0.00  0.00    +0.000 A 
ATOM     26  C   UNL     1      -1.191   0.804   2.417  0.00  0.00    +0.004 A 
ENDBRANCH  20  21
BRANCH  20  28
ATOM     27  C   UNL     1      -1.259  -2.603  -0.960  0.00  0.00    +0.008 C 
ATOM     28  C   UNL     1      -1.808  -1.999   0.335  0.00  0.00    -0.008 C 
ATOM     29  C   UNL     1      -1.059  -2.591   1.531  0.00  0.00    +0.008 C 
ENDBRANCH  20  28
ENDBRANCH  19  20
ENDBRANCH   1  19
TORSDOF 6
