REMARK  Name = ZINC27562035
REMARK  7 active torsions:
REMARK  status: ('A' for Active; 'I' for Inactive)
REMARK    1  A    between atoms: C_1  and  C_2
REMARK    2  A    between atoms: C_5  and  C_8
REMARK    3  A    between atoms: N_10  and  C_11
REMARK    4  A    between atoms: C_12  and  N_25
REMARK    5  A    between atoms: C_16  and  S_17
REMARK    6  A    between atoms: S_17  and  C_18
REMARK    7  A    between atoms: C_21  and  C_24
REMARK                            x       y       z     vdW  Elec       q    Type
REMARK                         _______ _______ _______ _____ _____    ______ ____
ROOT
ATOM      1  C   UNL     1      -0.116  -6.330   1.104  0.00  0.00    +0.107 A 
ATOM      2  C   UNL     1      -0.498  -7.114   2.153  0.00  0.00    +0.134 A 
ATOM      3  N   UNL     1      -0.382  -8.411   1.759  0.00  0.00    -0.262 N 
ATOM      4  H   UNL     1      -0.585  -9.191   2.299  0.00  0.00    +0.190 HD
ATOM      5  N   UNL     1       0.083  -8.422   0.438  0.00  0.00    -0.164 NA
ATOM      6  C   UNL     1       0.237  -7.180   0.040  0.00  0.00    +0.146 A 
ENDROOT
BRANCH   1   9
ATOM      7  C   UNL     1      -0.896  -4.238   0.252  0.00  0.00    +0.248 C 
ATOM      8  O   UNL     1      -1.570  -4.836  -0.564  0.00  0.00    -0.270 OA
ATOM      9  N   UNL     1      -0.086  -4.919   1.086  0.00  0.00    -0.277 N 
ATOM     10  H   UNL     1       0.518  -4.439   1.675  0.00  0.00    +0.155 HD
BRANCH   7  15
ATOM     11  C   UNL     1      -1.166   1.502   0.553  0.00  0.00    +0.044 C 
ATOM     12  C   UNL     1      -1.095  -0.001   0.474  0.00  0.00    -0.050 A 
ATOM     13  C   UNL     1      -1.863  -0.678  -0.456  0.00  0.00    +0.004 A 
ATOM     14  C   UNL     1      -1.803  -2.055  -0.534  0.00  0.00    +0.013 A 
ATOM     15  C   UNL     1      -0.965  -2.763   0.329  0.00  0.00    +0.037 A 
ATOM     16  C   UNL     1      -0.192  -2.073   1.265  0.00  0.00    +0.013 A 
ATOM     17  C   UNL     1      -0.258  -0.697   1.328  0.00  0.00    +0.004 A 
ENDBRANCH   7  15
ENDBRANCH   1   9
BRANCH   2  18
ATOM     18  N   UNL     1      -0.929  -6.666   3.402  0.00  0.00    -0.342 N 
ATOM     19  H   UNL     1      -0.978  -5.715   3.586  0.00  0.00    +0.144 HD
ATOM     20  H   UNL     1      -1.181  -7.306   4.086  0.00  0.00    +0.144 HD
ENDBRANCH   2  18
BRANCH   6  21
ATOM     21  S   UNL     1       0.795  -6.667  -1.550  0.00  0.00    -0.066 S 
BRANCH  21  22
ATOM     22  C   UNL     1       0.835  -8.157  -2.489  0.00  0.00    +0.014 A 
ATOM     23  C   UNL     1      -0.322  -8.625  -3.102  0.00  0.00    +0.015 A 
ATOM     24  C   UNL     1      -0.287  -9.793  -3.837  0.00  0.00    +0.004 A 
ATOM     25  C   UNL     1       0.896 -10.498  -3.964  0.00  0.00    -0.050 A 
ATOM     26  C   UNL     1       2.049 -10.036  -3.355  0.00  0.00    +0.004 A 
ATOM     27  C   UNL     1       2.023  -8.865  -2.624  0.00  0.00    +0.015 A 
ATOM     28  C   UNL     1       0.930 -11.772  -4.768  0.00  0.00    +0.044 C 
ENDBRANCH  21  22
ENDBRANCH   6  21
TORSDOF 5
