REMARK  Name = ZINC22238194
REMARK  10 active torsions:
REMARK  status: ('A' for Active; 'I' for Inactive)
REMARK    1  A    between atoms: C_1  and  C_2
REMARK    2  A    between atoms: C_2  and  C_3
REMARK    3  A    between atoms: C_3  and  O_4
REMARK    4  A    between atoms: O_4  and  C_5
REMARK    5  A    between atoms: C_6  and  O_27
REMARK    6  A    between atoms: C_8  and  C_12
REMARK    7  A    between atoms: C_12  and  N_14
REMARK    8  A    between atoms: C_17  and  C_20
REMARK    9  A    between atoms: C_20  and  N_21
REMARK   10  A    between atoms: O_27  and  C_28
REMARK                            x       y       z     vdW  Elec       q    Type
REMARK                         _______ _______ _______ _____ _____    ______ ____
ROOT
ATOM      1  C   UNL     1       3.333  -4.477   5.528  0.00  0.00    +0.270 C 
ATOM      2  O   UNL     1       4.524  -4.734   5.462  0.00  0.00    -0.268 OA
ENDROOT
BRANCH   1   6
ATOM      3  C   UNL     1       1.385  -2.554   2.273  0.00  0.00    +0.176 A 
ATOM      4  C   UNL     1       2.745  -2.846   2.193  0.00  0.00    +0.163 A 
ATOM      5  C   UNL     1       3.381  -3.470   3.250  0.00  0.00    +0.062 A 
ATOM      6  C   UNL     1       2.657  -3.808   4.395  0.00  0.00    +0.044 A 
ATOM      7  C   UNL     1       1.295  -3.513   4.469  0.00  0.00    +0.032 A 
ATOM      8  C   UNL     1       0.667  -2.885   3.414  0.00  0.00    +0.064 A 
ATOM      9 BR   UNL     1      -1.177  -2.479   3.519  0.00  0.00    -0.046 Br
BRANCH   4  10
ATOM     10  O   UNL     1       3.448  -2.516   1.076  0.00  0.00    -0.491 OA
ATOM     11  C   UNL     1       4.838  -2.845   1.064  0.00  0.00    +0.277 C 
ENDBRANCH   4  10
BRANCH   3  12
ATOM     12  O   UNL     1       0.761  -1.940   1.234  0.00  0.00    -0.487 OA
BRANCH  12  13
ATOM     13  C   UNL     1       0.742  -0.511   1.242  0.00  0.00    +0.229 C 
BRANCH  13  15
ATOM     14  C   UNL     1      -0.019   1.526   0.010  0.00  0.00    +0.007 C 
ATOM     15  C   UNL     1       0.002  -0.004   0.002  0.00  0.00    +0.038 C 
ENDBRANCH  13  15
ENDBRANCH  12  13
ENDBRANCH   3  12
ENDBRANCH   1   6
BRANCH   1  16
ATOM     16  N   UNL     1       2.640  -4.800   6.623  0.00  0.00    -0.152 NA
ATOM     17  C   UNL     1       3.249  -5.402   7.643  0.00  0.00    +0.163 A 
ATOM     18  N   UNL     1       2.714  -5.808   8.827  0.00  0.00    -0.341 N 
ATOM     19  C   UNL     1       3.523  -6.410   9.740  0.00  0.00    +0.008 A 
ATOM     20  C   UNL     1       4.810  -6.567   9.411  0.00  0.00    +0.067 A 
ATOM     21  S   UNL     1       4.864  -5.852   7.778  0.00  0.00    -0.061 S 
ATOM     22  H   UNL     1       1.772  -5.670   9.017  0.00  0.00    +0.167 HD
BRANCH  19  23
ATOM     23  C   UNL     1       2.990  -6.882  11.069  0.00  0.00    -0.024 C 
BRANCH  23  24
ATOM     24  N   UNL     1       2.549  -5.725  11.858  0.00  0.00    +0.383 N 
ATOM     25  C   UNL     1       3.707  -4.879  12.172  0.00  0.00    -0.078 C 
ATOM     26  C   UNL     1       3.241  -3.630  12.925  0.00  0.00    -0.019 C 
ATOM     27  C   UNL     1       2.549  -4.052  14.223  0.00  0.00    -0.004 C 
ATOM     28  C   UNL     1       1.388  -4.994  13.889  0.00  0.00    -0.019 C 
ATOM     29  C   UNL     1       1.922  -6.192  13.100  0.00  0.00    -0.078 C 
ATOM     30  H   UNL     1       1.880  -5.191  11.325  0.00  0.00    -0.081 HD
ENDBRANCH  23  24
ENDBRANCH  19  23
ENDBRANCH   1  16
TORSDOF 8
