REMARK  Name = ZINC63515597
REMARK  12 active torsions:
REMARK  status: ('A' for Active; 'I' for Inactive)
REMARK    1  A    between atoms: C_1  and  C_2
REMARK    2  A    between atoms: C_4  and  C_33
REMARK    3  A    between atoms: C_6  and  S_10
REMARK    4  A    between atoms: C_7  and  C_8
REMARK    5  A    between atoms: S_10  and  C_11
REMARK    6  A    between atoms: C_11  and  C_12
REMARK    7  A    between atoms: N_14  and  C_15
REMARK    8  A    between atoms: C_15  and  C_16
REMARK    9  A    between atoms: C_16  and  C_17
REMARK   10  A    between atoms: C_20  and  O_28
REMARK   11  A    between atoms: C_25  and  C_27
REMARK   12  A    between atoms: O_28  and  C_29
REMARK                            x       y       z     vdW  Elec       q    Type
REMARK                         _______ _______ _______ _____ _____    ______ ____
ROOT
ATOM      1  C   UNL     1       0.130  -7.946   4.239  0.00  0.00    +0.108 C 
ENDROOT
BRANCH   1   4
ATOM      2  C   UNL     1       0.096  -5.715   3.259  0.00  0.00    +0.223 C 
ATOM      3  O   UNL     1       0.095  -5.254   4.381  0.00  0.00    -0.275 OA
ATOM      4  N   UNL     1       0.113  -7.051   3.080  0.00  0.00    -0.314 N 
ATOM      5  H   UNL     1       0.114  -7.419   2.182  0.00  0.00    +0.149 HD
BRANCH   2   6
ATOM      6  C   UNL     1       0.078  -4.794   2.067  0.00  0.00    +0.171 C 
BRANCH   6   7
ATOM      7  S   UNL     1       0.057  -3.071   2.633  0.00  0.00    -0.095 S 
BRANCH   7  13
ATOM      8  C   UNL     1      -0.018   1.503   0.010  0.00  0.00    +0.045 C 
ATOM      9  C   UNL     1       0.002  -0.004   0.002  0.00  0.00    -0.029 A 
ATOM     10  C   UNL     1       0.006  -0.707  -1.191  0.00  0.00    +0.027 A 
ATOM     11  C   UNL     1       0.025  -2.089  -1.167  0.00  0.00    +0.040 A 
ATOM     12  N   UNL     1       0.040  -2.754  -0.028  0.00  0.00    -0.244 NA
ATOM     13  C   UNL     1       0.037  -2.133   1.142  0.00  0.00    +0.115 A 
ATOM     14  C   UNL     1       0.023  -0.727   1.200  0.00  0.00    +0.086 A 
ATOM     15  C   UNL     1       0.029  -2.851  -2.467  0.00  0.00    +0.065 C 
BRANCH  14  16
ATOM     16  C   UNL     1       0.026  -0.049   2.461  0.00  0.00    +0.102 C 
ATOM     17  N   UNL     1       0.028   0.489   3.462  0.00  0.00    -0.191 NA
ENDBRANCH  14  16
ENDBRANCH   7  13
ENDBRANCH   6   7
ENDBRANCH   2   6
ENDBRANCH   1   4
BRANCH   1  18
ATOM     18  C   UNL     1       0.148  -9.399   3.762  0.00  0.00    +0.052 C 
BRANCH  18  19
ATOM     19  C   UNL     1       0.166 -10.320   4.955  0.00  0.00    -0.037 C 
ATOM     20  C   UNL     1       0.161  -9.961   6.258  0.00  0.00    +0.003 A 
ATOM     21  C   UNL     1       0.139  -8.658   6.932  0.00  0.00    +0.056 A 
ATOM     22  C   UNL     1       0.141  -8.607   8.286  0.00  0.00    +0.129 A 
ATOM     23  C   UNL     1       0.163  -9.767   9.081  0.00  0.00    +0.048 A 
ATOM     24  C   UNL     1       0.184 -11.009   8.553  0.00  0.00    +0.029 A 
ATOM     25  C   UNL     1       0.184 -11.182   7.097  0.00  0.00    +0.043 A 
ATOM     26  N   UNL     1       0.202 -12.252   6.342  0.00  0.00    -0.378 N 
ATOM     27  C   UNL     1       0.186 -11.832   4.936  0.00  0.00    +0.103 C 
ATOM     28  C   UNL     1      -1.064 -12.367   4.236  0.00  0.00    +0.035 C 
ATOM     29  H   UNL     1       0.220 -13.168   6.659  0.00  0.00    +0.160 HD
BRANCH  22  30
ATOM     30  O   UNL     1       0.121  -7.393   8.897  0.00  0.00    -0.420 OA
BRANCH  30  31
ATOM     31  C   UNL     1       0.123  -7.386  10.326  0.00  0.00    +0.489 C 
ATOM     32  F   UNL     1      -1.007  -8.063  10.797  0.00  0.00    -0.149 F 
ATOM     33  F   UNL     1       1.278  -8.023  10.793  0.00  0.00    -0.149 F 
ATOM     34 CL   UNL     1       0.095  -5.683  10.918  0.00  0.00    +0.000 Cl
ENDBRANCH  30  31
ENDBRANCH  22  30
ENDBRANCH  18  19
ENDBRANCH   1  18
TORSDOF 9
