REMARK  Name = ZINC36912481
REMARK  4 active torsions:
REMARK  status: ('A' for Active; 'I' for Inactive)
REMARK    1  A    between atoms: C_1  and  C_2
REMARK    2  A    between atoms: C_8  and  C_15
REMARK    3  A    between atoms: C_15  and  C_16
REMARK    4  A    between atoms: C_15  and  C_17
REMARK                            x       y       z     vdW  Elec       q    Type
REMARK                         _______ _______ _______ _____ _____    ______ ____
ROOT
ATOM      1  C   UNL     1      -0.018   1.503   0.010  0.00  0.00    +0.044 C 
ATOM      2  C   UNL     1       0.002  -0.004   0.002  0.00  0.00    -0.048 A 
ATOM      3  C   UNL     1       0.006  -0.675  -1.189  0.00  0.00    +0.017 A 
ATOM      4  C   UNL     1       0.025  -2.070  -1.196  0.00  0.00    +0.047 A 
ATOM      5  C   UNL     1       0.030  -2.833  -2.457  0.00  0.00    +0.190 A 
ATOM      6  O   UNL     1       0.017  -2.266  -3.537  0.00  0.00    -0.287 OA
ATOM      7  C   UNL     1       0.051  -4.245  -2.372  0.00  0.00    +0.072 A 
ATOM      8  C   UNL     1       0.064  -4.851  -1.167  0.00  0.00    +0.023 A 
ATOM      9  N   UNL     1       0.060  -4.157  -0.003  0.00  0.00    -0.356 N 
ATOM     10  H   UNL     1       0.070  -4.643   0.837  0.00  0.00    +0.166 HD
ATOM     11  C   UNL     1       0.041  -2.780   0.017  0.00  0.00    +0.069 A 
ATOM     12  C   UNL     1       0.036  -2.077   1.219  0.00  0.00    +0.065 A 
ATOM     13  C   UNL     1       0.023  -0.699   1.203  0.00  0.00    +0.025 A 
ATOM     14 CL   UNL     1       0.056  -2.932   2.730  0.00  0.00    -0.081 Cl
ENDROOT
BRANCH   8  15
ATOM     15  C   UNL     1       0.085  -6.357  -1.113  0.00  0.00    +0.030 C 
ATOM     16  C   UNL     1       1.344  -6.824  -0.380  0.00  0.00    +0.013 C 
ATOM     17  C   UNL     1      -1.154  -6.857  -0.368  0.00  0.00    +0.013 C 
ENDBRANCH   8  15
TORSDOF 1
