REMARK  Name = ZINC15673130
REMARK  9 active torsions:
REMARK  status: ('A' for Active; 'I' for Inactive)
REMARK    1  A    between atoms: C_1  and  C_2
REMARK    2  A    between atoms: C_2  and  C_3
REMARK    3  A    between atoms: C_12  and  C_24
REMARK    4  A    between atoms: C_12  and  C_25
REMARK    5  A    between atoms: N_13  and  C_16
REMARK    6  A    between atoms: C_16  and  C_17
REMARK    7  A    between atoms: C_22  and  C_23
REMARK    8  A    between atoms: C_22  and  N_74
REMARK    9  A    between atoms: N_27  and  C_28
REMARK                            x       y       z     vdW  Elec       q    Type
REMARK                         _______ _______ _______ _____ _____    ______ ____
ROOT
ATOM      1  C   UNL     1       1.070   2.216  -4.406  0.00  0.00    -0.008 A 
ATOM      2  C   UNL     1       1.006   1.852  -3.108  0.00  0.00    +0.037 A 
ATOM      3  C   UNL     1      -0.224   1.859  -2.433  0.00  0.00    +0.057 A 
ATOM      4  C   UNL     1      -1.331   2.264  -3.194  0.00  0.00    +0.038 A 
ATOM      5  S   UNL     1      -0.628   2.609  -4.786  0.00  0.00    -0.092 S 
ATOM      6  C   UNL     1      -2.474   2.230  -2.405  0.00  0.00    +0.048 A 
ATOM      7  C   UNL     1      -2.094   1.811  -1.165  0.00  0.00    +0.106 A 
ATOM      8  N   UNL     1      -0.724   1.573  -1.176  0.00  0.00    -0.333 N 
ATOM      9  C   UNL     1      -0.013   1.086   0.008  0.00  0.00    +0.157 C 
ATOM     10  C   UNL     1      -0.732   1.581   1.263  0.00  0.00    +0.128 C 
ATOM     11  N   UNL     1      -2.177   1.387   1.194  0.00  0.00    -0.282 N 
ATOM     12  C   UNL     1      -2.880   1.615   0.060  0.00  0.00    +0.264 C 
ATOM     13  O   UNL     1      -4.097   1.655   0.056  0.00  0.00    -0.268 OA
ATOM     14  C   UNL     1      -0.187   0.823   2.476  0.00  0.00    +0.043 C 
ENDROOT
BRANCH  10  15
ATOM     15  C   UNL     1      -0.445   3.049   1.442  0.00  0.00    +0.238 C 
ATOM     16  O   UNL     1       0.462   3.407   2.164  0.00  0.00    -0.273 OA
ATOM     17  N   UNL     1      -1.196   3.965   0.798  0.00  0.00    -0.311 N 
ATOM     18  H   UNL     1      -1.921   3.679   0.221  0.00  0.00    +0.149 HD
BRANCH  17  19
ATOM     19  C   UNL     1      -0.917   5.393   0.972  0.00  0.00    +0.073 C 
ATOM     20  C   UNL     1      -1.613   5.886   2.257  0.00  0.00    +0.022 C 
ATOM     21  C   UNL     1      -0.938   7.153   2.709  0.00  0.00    +0.002 C 
ATOM     22  C   UNL     1      -1.648   8.416   2.185  0.00  0.00    +0.000 C 
ATOM     23  C   UNL     1      -2.094   8.284   0.716  0.00  0.00    +0.000 C 
ATOM     24  C   UNL     1      -1.055   7.617  -0.143  0.00  0.00    +0.002 C 
ATOM     25  C   UNL     1      -1.370   6.109  -0.212  0.00  0.00    +0.022 C 
ENDBRANCH  17  19
ENDBRANCH  10  15
BRANCH   1  27
ATOM     26  C   UNL     1       2.457   0.930  -6.009  0.00  0.00    +0.009 C 
ATOM     27  C   UNL     1       2.276   2.278  -5.308  0.00  0.00    +0.039 C 
ENDBRANCH   1  27
BRANCH  11  28
ATOM     28  C   UNL     1      -2.889   0.932   2.391  0.00  0.00    +0.094 C 
BRANCH  28  29
ATOM     29  C   UNL     1      -2.934  -0.597   2.406  0.00  0.00    -0.051 C 
ATOM     30  C   UNL     1      -3.817  -1.084   3.571  0.00  0.00    -0.016 C 
ATOM     31  C   UNL     1      -4.943  -1.909   2.906  0.00  0.00    -0.020 C 
ATOM     32  C   UNL     1      -4.324  -2.304   1.542  0.00  0.00    -0.078 C 
ATOM     33  N   UNL     1      -3.562  -1.098   1.183  0.00  0.00    +0.382 N 
ATOM     34  H   UNL     1      -4.197  -0.386   0.803  0.00  0.00    -0.081 HD
BRANCH  33  35
ATOM     35  C   UNL     1      -2.524  -1.424   0.159  0.00  0.00    -0.082 C 
ATOM     36  C   UNL     1      -3.171  -2.163  -1.014  0.00  0.00    -0.017 C 
ENDBRANCH  33  35
ENDBRANCH  28  29
ENDBRANCH  11  28
TORSDOF 6
