REMARK  Name = ZINC25045409
REMARK  7 active torsions:
REMARK  status: ('A' for Active; 'I' for Inactive)
REMARK    1  A    between atoms: C_1  and  C_2
REMARK    2  A    between atoms: C_2  and  C_27
REMARK    3  A    between atoms: N_5  and  C_9
REMARK    4  A    between atoms: C_9  and  C_10
REMARK    5  A    between atoms: C_10  and  C_12
REMARK    6  A    between atoms: C_10  and  O_26
REMARK    7  A    between atoms: C_12  and  N_13
REMARK                            x       y       z     vdW  Elec       q    Type
REMARK                         _______ _______ _______ _____ _____    ______ ____
ROOT
ATOM      1  C   UNL     1       3.580   2.581  -2.398  0.00  0.00    +0.152 C 
ENDROOT
BRANCH   1   2
ATOM      2  O   UNL     1       2.897   2.255  -3.611  0.00  0.00    -0.388 OA
ATOM      3  H   UNL     1       3.373   1.594  -4.349  0.00  0.00    +0.210 HD
ENDBRANCH   1   2
BRANCH   1   4
ATOM      4  C   UNL     1       2.704   3.509  -1.554  0.00  0.00    +0.151 C 
BRANCH   4   9
ATOM      5  C   UNL     1      -0.791   2.045   1.225  0.00  0.00    +0.042 C 
ATOM      6  C   UNL     1      -0.019   1.526   0.010  0.00  0.00    +0.113 C 
ATOM      7  C   UNL     1       1.393   2.078  -0.000  0.00  0.00    +0.247 C 
ATOM      8  O   UNL     1       2.251   1.911   0.840  0.00  0.00    -0.273 OA
ATOM      9  N   UNL     1       1.495   2.794  -1.137  0.00  0.00    -0.222 N 
ATOM     10  C   UNL     1       0.357   2.771  -1.839  0.00  0.00    +0.309 C 
ATOM     11  O   UNL     1       0.206   3.343  -2.901  0.00  0.00    -0.252 OA
ATOM     12  N   UNL     1      -0.602   2.043  -1.239  0.00  0.00    -0.285 N 
ATOM     13  H   UNL     1      -1.642   1.798  -1.504  0.00  0.00    +0.151 HD
BRANCH   6  14
ATOM     14  C   UNL     1       0.002  -0.004   0.002  0.00  0.00    +0.021 C 
ATOM     15  C   UNL     1       0.718  -0.497  -1.257  0.00  0.00    +0.006 C 
ATOM     16  C   UNL     1       0.739  -2.027  -1.265  0.00  0.00    +0.000 C 
ATOM     17  C   UNL     1      -0.696  -2.557  -1.254  0.00  0.00    +0.000 C 
ATOM     18  C   UNL     1      -1.413  -2.063   0.004  0.00  0.00    +0.000 C 
ATOM     19  C   UNL     1      -1.433  -0.534   0.013  0.00  0.00    +0.006 C 
ENDBRANCH   6  14
ENDBRANCH   4   9
ENDBRANCH   1   4
BRANCH   1  20
ATOM     20  C   UNL     1       4.898   3.284  -2.729  0.00  0.00    +0.155 C 
BRANCH  20  21
ATOM     21  N   UNL     1       5.784   2.355  -3.434  0.00  0.00    -0.337 N 
ATOM     22  C   UNL     1       6.698   1.515  -2.823  0.00  0.00    +0.050 A 
ATOM     23  C   UNL     1       7.022   1.297  -1.488  0.00  0.00    +0.026 A 
ATOM     24  C   UNL     1       7.989   0.373  -1.155  0.00  0.00    +0.002 A 
ATOM     25  C   UNL     1       8.642  -0.351  -2.141  0.00  0.00    +0.001 A 
ATOM     26  C   UNL     1       8.331  -0.153  -3.469  0.00  0.00    +0.010 A 
ATOM     27  C   UNL     1       7.355   0.778  -3.819  0.00  0.00    +0.008 A 
ATOM     28  C   UNL     1       6.795   1.223  -5.108  0.00  0.00    +0.008 A 
ATOM     29  C   UNL     1       5.830   2.196  -4.808  0.00  0.00    +0.050 A 
ATOM     30  C   UNL     1       5.128   2.802  -5.846  0.00  0.00    +0.026 A 
ATOM     31  C   UNL     1       5.383   2.444  -7.152  0.00  0.00    +0.002 A 
ATOM     32  C   UNL     1       6.337   1.482  -7.447  0.00  0.00    +0.001 A 
ATOM     33  C   UNL     1       7.043   0.871  -6.433  0.00  0.00    +0.010 A 
ENDBRANCH  20  21
ENDBRANCH   1  20
TORSDOF 6
