REMARK  Name = ZINC01507903
REMARK  10 active torsions:
REMARK  status: ('A' for Active; 'I' for Inactive)
REMARK    1  A    between atoms: C_1  and  C_2
REMARK    2  A    between atoms: C_2  and  C_28
REMARK    3  A    between atoms: C_4  and  N_9
REMARK    4  A    between atoms: C_6  and  C_7
REMARK    5  A    between atoms: C_6  and  C_8
REMARK    6  A    between atoms: C_10  and  C_12
REMARK    7  A    between atoms: C_12  and  N_13
REMARK    8  A    between atoms: N_13  and  C_14
REMARK    9  A    between atoms: N_13  and  S_20
REMARK   10  A    between atoms: S_20  and  C_23
REMARK                            x       y       z     vdW  Elec       q    Type
REMARK                         _______ _______ _______ _____ _____    ______ ____
ROOT
ATOM      1  N   UNL     1       1.237   3.038  -3.501  0.00  0.00    -0.311 N 
ATOM      2  C   UNL     1       0.779   4.126  -4.152  0.00  0.00    +0.229 C 
ATOM      3  O   UNL     1      -0.032   4.854  -3.619  0.00  0.00    -0.274 OA
ATOM      4  H   UNL     1       1.885   2.456  -3.926  0.00  0.00    +0.149 HD
ENDROOT
BRANCH   1   8
ATOM      5  C   UNL     1      -2.141   0.479  -1.025  0.00  0.00    -0.010 C 
ATOM      6  C   UNL     1      -1.041   1.551  -0.852  0.00  0.00    -0.072 C 
ATOM      7  C   UNL     1      -0.531   1.913  -2.245  0.00  0.00    +0.009 C 
ATOM      8  C   UNL     1       0.754   2.735  -2.148  0.00  0.00    +0.070 C 
ATOM      9  C   UNL     1       1.805   1.899  -1.415  0.00  0.00    +0.009 C 
ATOM     10  C   UNL     1       1.321   1.577  -0.002  0.00  0.00    -0.072 C 
ATOM     11  C   UNL     1       1.397   2.833   0.871  0.00  0.00    -0.010 C 
ATOM     12  C   UNL     1       2.295   0.539   0.598  0.00  0.00    -0.010 C 
ATOM     13  C   UNL     1      -1.703   2.778  -0.214  0.00  0.00    -0.010 C 
ATOM     14  N   UNL     1      -0.027   0.947   0.053  0.00  0.00    +0.386 N 
ATOM     15  H   UNL     1       0.074  -0.043  -0.198  0.00  0.00    -0.084 HD
ATOM     16  H   UNL     1      -0.375   1.022   1.016  0.00  0.00    -0.084 HD
ENDBRANCH   1   8
BRANCH   2  17
ATOM     17  C   UNL     1       1.275   4.438  -5.540  0.00  0.00    +0.205 C 
BRANCH  17  18
ATOM     18  N   UNL     1       0.631   5.661  -6.025  0.00  0.00    -0.164 NA
BRANCH  18  19
ATOM     19  C   UNL     1      -0.686   5.593  -6.663  0.00  0.00    +0.080 C 
ATOM     20  C   UNL     1      -1.700   5.008  -5.677  0.00  0.00    +0.020 C 
ATOM     21  C   UNL     1      -3.076   4.936  -6.343  0.00  0.00    +0.002 C 
ATOM     22  C   UNL     1      -2.996   4.043  -7.583  0.00  0.00    +0.000 C 
ATOM     23  C   UNL     1      -1.983   4.628  -8.569  0.00  0.00    +0.002 C 
ATOM     24  C   UNL     1      -0.607   4.700  -7.903  0.00  0.00    +0.020 C 
ENDBRANCH  18  19
BRANCH  18  25
ATOM     25  S   UNL     1       1.393   7.122  -5.853  0.00  0.00    +0.068 S 
ATOM     26  O   UNL     1       0.376   8.114  -5.871  0.00  0.00    -0.152 OA
ATOM     27  O   UNL     1       2.301   6.981  -4.769  0.00  0.00    -0.152 OA
BRANCH  25  28
ATOM     28  C   UNL     1       2.369   7.374  -7.298  0.00  0.00    +0.143 A 
ATOM     29  C   UNL     1       2.028   7.975  -8.464  0.00  0.00    +0.036 A 
ATOM     30  C   UNL     1       2.968   8.061  -9.474  0.00  0.00    +0.010 A 
ATOM     31  C   UNL     1       4.203   7.542  -9.268  0.00  0.00    +0.047 A 
ATOM     32  S   UNL     1       4.065   6.911  -7.604  0.00  0.00    -0.077 S 
ENDBRANCH  25  28
ENDBRANCH  18  25
ENDBRANCH  17  18
ENDBRANCH   2  17
TORSDOF 6
