REMARK  Name = ZINC39559541
REMARK  6 active torsions:
REMARK  status: ('A' for Active; 'I' for Inactive)
REMARK    1  A    between atoms: C_1  and  C_2
REMARK    2  A    between atoms: C_5  and  C_9
REMARK    3  A    between atoms: C_10  and  C_11
REMARK    4  A    between atoms: N_13  and  C_14
REMARK    5  A    between atoms: C_14  and  C_15
REMARK    6  A    between atoms: N_17  and  C_18
REMARK                            x       y       z     vdW  Elec       q    Type
REMARK                         _______ _______ _______ _____ _____    ______ ____
ROOT
ATOM      1  C   UNL     1       0.143  -9.049   3.703  0.00  0.00    +0.234 C 
ATOM      2  O   UNL     1       0.146  -8.266   4.629  0.00  0.00    -0.274 OA
ATOM      3  N   UNL     1       0.160 -10.375   3.941  0.00  0.00    -0.284 N 
ATOM      4  H   UNL     1       0.090 -11.001   3.203  0.00  0.00    +0.155 HD
ENDROOT
BRANCH   3   5
ATOM      5  C   UNL     1       0.278 -10.850   5.254  0.00  0.00    +0.036 A 
ATOM      6  C   UNL     1       0.998 -12.012   5.509  0.00  0.00    +0.025 A 
ATOM      7  C   UNL     1       1.118 -12.484   6.800  0.00  0.00    +0.029 A 
ATOM      8  C   UNL     1       0.520 -11.799   7.847  0.00  0.00    +0.067 A 
ATOM      9  C   UNL     1      -0.203 -10.631   7.594  0.00  0.00    +0.069 A 
ATOM     10  C   UNL     1      -0.317 -10.156   6.296  0.00  0.00    +0.051 A 
ATOM     11  N   UNL     1      -0.677 -10.176   8.822  0.00  0.00    -0.306 N 
ATOM     12  H   UNL     1      -1.214  -9.382   8.964  0.00  0.00    +0.170 HD
ATOM     13  C   UNL     1      -0.261 -11.027   9.779  0.00  0.00    +0.325 A 
ATOM     14  O   UNL     1      -0.504 -10.918  10.967  0.00  0.00    -0.247 OA
ATOM     15  N   UNL     1       0.463 -12.017   9.223  0.00  0.00    -0.306 N 
ATOM     16  H   UNL     1       0.875 -12.755   9.699  0.00  0.00    +0.170 HD
ENDBRANCH   3   5
BRANCH   1  17
ATOM     17  C   UNL     1       0.121  -8.538   2.285  0.00  0.00    +0.200 C 
BRANCH  17  20
ATOM     18  C   UNL     1       0.084  -6.392   1.131  0.00  0.00    +0.237 C 
ATOM     19  O   UNL     1       0.078  -6.995   0.073  0.00  0.00    -0.271 OA
ATOM     20  N   UNL     1       0.106  -7.073   2.294  0.00  0.00    -0.303 N 
ATOM     21  H   UNL     1       0.111  -6.593   3.137  0.00  0.00    +0.149 HD
BRANCH  18  23
ATOM     22  C   UNL     1       0.048  -4.247  -0.024  0.00  0.00    +0.013 C 
ATOM     23  C   UNL     1       0.069  -4.928   1.140  0.00  0.00    +0.068 C 
BRANCH  22  28
ATOM     24  C   UNL     1      -0.012   1.502   0.009  0.00  0.00    +0.045 C 
ATOM     25  C   UNL     1       0.004  -0.005   0.001  0.00  0.00    -0.032 A 
ATOM     26  C   UNL     1      -0.004  -0.687  -1.204  0.00  0.00    +0.005 A 
ATOM     27  C   UNL     1       0.011  -2.065  -1.219  0.00  0.00    +0.008 A 
ATOM     28  C   UNL     1       0.033  -2.775  -0.015  0.00  0.00    -0.023 A 
ATOM     29  C   UNL     1       0.040  -2.080   1.198  0.00  0.00    +0.028 A 
ATOM     30  C   UNL     1       0.031  -0.700   1.198  0.00  0.00    +0.044 A 
ATOM     31 CL   UNL     1       0.048   0.167   2.702  0.00  0.00    -0.083 Cl
ENDBRANCH  22  28
ENDBRANCH  18  23
ENDBRANCH  17  20
ENDBRANCH   1  17
TORSDOF 5
