REMARK  Name = ZINC40688664
REMARK  10 active torsions:
REMARK  status: ('A' for Active; 'I' for Inactive)
REMARK    1  A    between atoms: C_1  and  C_2
REMARK    2  A    between atoms: C_4  and  C_26
REMARK    3  A    between atoms: C_7  and  N_8
REMARK    4  A    between atoms: C_10  and  N_24
REMARK    5  A    between atoms: C_11  and  N_15
REMARK    6  A    between atoms: N_18  and  C_21
REMARK    7  A    between atoms: C_21  and  C_22
REMARK    8  A    between atoms: C_22  and  O_23
REMARK    9  A    between atoms: C_26  and  C_28
REMARK   10  A    between atoms: C_26  and  C_30
REMARK                            x       y       z     vdW  Elec       q    Type
REMARK                         _______ _______ _______ _____ _____    ______ ____
ROOT
ATOM      1  N   UNL     1       1.204  -0.423   2.465  0.00  0.00    -0.298 N 
ATOM      2  C   UNL     1       1.678  -1.052   3.611  0.00  0.00    +0.149 A 
ATOM      3  C   UNL     1       1.846  -0.333   4.796  0.00  0.00    +0.106 A 
ATOM      4  C   UNL     1       2.325  -1.013   5.917  0.00  0.00    +0.147 A 
ATOM      5  N   UNL     1       2.601  -2.312   5.815  0.00  0.00    -0.219 NA
ATOM      6  C   UNL     1       2.428  -2.953   4.677  0.00  0.00    +0.225 A 
ATOM      7  N   UNL     1       1.973  -2.350   3.597  0.00  0.00    -0.219 NA
ATOM      8  H   UNL     1       0.905   0.498   2.506  0.00  0.00    +0.154 HD
ENDROOT
BRANCH   1  15
ATOM      9  C   UNL     1      -0.776   0.322   0.563  0.00  0.00    +0.045 C 
ATOM     10  C   UNL     1       0.207  -0.789   0.297  0.00  0.00    -0.029 A 
ATOM     11  C   UNL     1       0.167  -1.475  -0.901  0.00  0.00    +0.011 A 
ATOM     12  C   UNL     1       1.069  -2.494  -1.147  0.00  0.00    -0.008 A 
ATOM     13  C   UNL     1       2.014  -2.831  -0.193  0.00  0.00    +0.047 A 
ATOM     14  C   UNL     1       2.059  -2.148   1.008  0.00  0.00    +0.043 A 
ATOM     15  C   UNL     1       1.158  -1.120   1.254  0.00  0.00    +0.037 A 
ATOM     16 CL   UNL     1       3.143  -4.112  -0.505  0.00  0.00    -0.083 Cl
BRANCH  12  17
ATOM     17  C   UNL     1       1.022  -3.240  -2.455  0.00  0.00    +0.153 C 
BRANCH  17  18
ATOM     18  C   UNL     1      -0.271  -4.009  -2.549  0.00  0.00    -0.026 A 
ATOM     19  C   UNL     1      -1.464  -3.334  -2.729  0.00  0.00    +0.006 A 
ATOM     20  C   UNL     1      -2.650  -4.039  -2.816  0.00  0.00    +0.020 A 
ATOM     21  C   UNL     1      -2.643  -5.419  -2.722  0.00  0.00    +0.041 A 
ATOM     22  C   UNL     1      -1.449  -6.094  -2.542  0.00  0.00    +0.020 A 
ATOM     23  C   UNL     1      -0.263  -5.389  -2.461  0.00  0.00    +0.006 A 
ATOM     24 CL   UNL     1      -4.133  -6.304  -2.830  0.00  0.00    -0.084 Cl
ENDBRANCH  17  18
BRANCH  17  25
ATOM     25  C   UNL     1       1.106  -2.283  -3.570  0.00  0.00    +0.075 C 
ATOM     26  N   UNL     1       1.170  -1.543  -4.430  0.00  0.00    -0.196 NA
ENDBRANCH  17  25
ENDBRANCH  12  17
ENDBRANCH   1  15
BRANCH   4  27
ATOM     27  N   UNL     1       2.511  -0.345   7.122  0.00  0.00    -0.311 N 
ATOM     28  C   UNL     1       1.467  -0.352   8.158  0.00  0.00    +0.122 C 
ATOM     29  C   UNL     1       2.103  -0.777   9.486  0.00  0.00    +0.103 C 
ATOM     30  N   UNL     1       3.256   0.086   9.772  0.00  0.00    -0.297 NA
ATOM     31  C   UNL     1       4.302  -0.067   8.752  0.00  0.00    +0.103 C 
ATOM     32  C   UNL     1       3.760   0.382   7.396  0.00  0.00    +0.122 C 
BRANCH  30  33
ATOM     33  C   UNL     1       3.789  -0.175  11.116  0.00  0.00    +0.112 C 
BRANCH  33  34
ATOM     34  C   UNL     1       4.818   0.899  11.474  0.00  0.00    +0.171 C 
BRANCH  34  35
ATOM     35  O   UNL     1       4.168   2.169  11.565  0.00  0.00    -0.394 OA
ATOM     36  H   UNL     1       4.761   2.899  11.790  0.00  0.00    +0.209 HD
ENDBRANCH  34  35
ENDBRANCH  33  34
ENDBRANCH  30  33
ENDBRANCH   4  27
BRANCH   3  37
ATOM     37  N   UNL     1       1.543   1.036   4.858  0.00  0.00    -0.353 N 
ATOM     38  H   UNL     1       1.284   1.513   4.054  0.00  0.00    +0.143 HD
ATOM     39  H   UNL     1       1.592   1.506   5.705  0.00  0.00    +0.143 HD
ENDBRANCH   3  37
TORSDOF 9
