REMARK  Name = ZINC39110544
REMARK  8 active torsions:
REMARK  status: ('A' for Active; 'I' for Inactive)
REMARK    1  A    between atoms: C_1  and  C_2
REMARK    2  A    between atoms: C_7  and  C_17
REMARK    3  A    between atoms: C_7  and  C_18
REMARK    4  A    between atoms: C_8  and  C_10
REMARK    5  A    between atoms: N_12  and  C_13
REMARK    6  A    between atoms: C_13  and  C_14
REMARK    7  A    between atoms: C_13  and  C_15
REMARK    8  A    between atoms: C_13  and  C_16
REMARK                            x       y       z     vdW  Elec       q    Type
REMARK                         _______ _______ _______ _____ _____    ______ ____
ROOT
ATOM      1  C   UNL     1      -0.097   1.533   0.020  0.00  0.00    +0.012 C 
ATOM      2  C   UNL     1      -0.059   0.004   0.028  0.00  0.00    +0.021 C 
ATOM      3  C   UNL     1       0.512  -0.487  -1.270  0.00  0.00    -0.027 C 
ATOM      4  C   UNL     1       1.370  -1.451  -1.367  0.00  0.00    -0.030 C 
ATOM      5  C   UNL     1       1.922  -2.206  -0.193  0.00  0.00    +0.034 C 
ATOM      6  C   UNL     1       1.042  -1.983   1.039  0.00  0.00    -0.020 C 
ATOM      7  C   UNL     1       0.805  -0.476   1.196  0.00  0.00    +0.087 C 
ATOM      8  C   UNL     1      -0.297  -2.699   0.850  0.00  0.00    +0.012 C 
ATOM      9  C   UNL     1       1.749  -2.526   2.282  0.00  0.00    +0.012 C 
ENDROOT
BRANCH   7  10
ATOM     10  C   UNL     1       0.092  -0.211   2.497  0.00  0.00    +0.218 C 
ATOM     11  O   UNL     1      -1.115  -0.306   2.556  0.00  0.00    -0.275 OA
ATOM     12  N   UNL     1       0.796   0.131   3.594  0.00  0.00    -0.310 N 
ATOM     13  H   UNL     1       1.766   0.138   3.565  0.00  0.00    +0.149 HD
BRANCH  12  14
ATOM     14  C   UNL     1       0.097   0.493   4.829  0.00  0.00    +0.026 C 
ATOM     15  C   UNL     1      -0.761  -0.685   5.294  0.00  0.00    +0.031 C 
ATOM     16  C   UNL     1       1.121   0.837   5.913  0.00  0.00    +0.031 C 
ATOM     17  C   UNL     1      -0.799   1.706   4.571  0.00  0.00    +0.031 C 
ENDBRANCH  12  14
ENDBRANCH   7  10
TORSDOF 2
