REMARK  Name = ZINC12464999
REMARK  6 active torsions:
REMARK  status: ('A' for Active; 'I' for Inactive)
REMARK    1  A    between atoms: C_1  and  C_2
REMARK    2  A    between atoms: C_2  and  N_3
REMARK    3  A    between atoms: N_12  and  C_13
REMARK    4  A    between atoms: C_13  and  C_15
REMARK    5  A    between atoms: N_20  and  S_21
REMARK    6  A    between atoms: S_21  and  C_24
REMARK                            x       y       z     vdW  Elec       q    Type
REMARK                         _______ _______ _______ _____ _____    ______ ____
ROOT
ATOM      1  C   UNL     1      -0.034  -0.994  -3.461  0.00  0.00    +0.257 C 
ATOM      2  O   UNL     1      -0.015  -2.198  -3.292  0.00  0.00    -0.272 OA
ENDROOT
BRANCH   1  12
ATOM      3  N   UNL     1       0.002  -0.004   0.002  0.00  0.00    -0.321 N 
ATOM      4  C   UNL     1       0.023  -0.701   1.196  0.00  0.00    +0.058 A 
ATOM      5  C   UNL     1       0.028  -0.188   2.503  0.00  0.00    +0.028 A 
ATOM      6  C   UNL     1       0.049  -1.031   3.589  0.00  0.00    +0.017 A 
ATOM      7  C   UNL     1       0.066  -2.408   3.429  0.00  0.00    +0.019 A 
ATOM      8  C   UNL     1       0.062  -2.940   2.151  0.00  0.00    +0.032 A 
ATOM      9  C   UNL     1       0.041  -2.097   1.065  0.00  0.00    +0.040 A 
ATOM     10  S   UNL     1       0.027  -2.341  -0.693  0.00  0.00    -0.052 S 
ATOM     11  C   UNL     1      -0.006  -0.676  -1.179  0.00  0.00    +0.166 A 
ATOM     12  N   UNL     1      -0.031  -0.177  -2.413  0.00  0.00    -0.155 NA
ATOM     13 BR   UNL     1       0.096  -3.546   4.939  0.00  0.00    -0.050 Br
BRANCH   3  15
ATOM     14  C   UNL     1       1.418   1.990  -0.001  0.00  0.00    +0.027 C 
ATOM     15  C   UNL     1      -0.018   1.461   0.010  0.00  0.00    +0.121 C 
ENDBRANCH   3  15
ENDBRANCH   1  12
BRANCH   1  16
ATOM     16  C   UNL     1      -0.062  -0.429  -4.857  0.00  0.00    +0.168 C 
ATOM     17  C   UNL     1       1.206   0.414  -5.108  0.00  0.00    +0.031 C 
ATOM     18  C   UNL     1       2.141  -0.578  -5.849  0.00  0.00    +0.019 C 
ATOM     19  C   UNL     1       1.128  -1.384  -6.700  0.00  0.00    +0.110 C 
ATOM     20  N   UNL     1      -0.061  -1.523  -5.840  0.00  0.00    -0.164 NA
BRANCH  20  21
ATOM     21  S   UNL     1      -1.206  -2.714  -5.959  0.00  0.00    +0.068 S 
ATOM     22  O   UNL     1      -0.579  -3.817  -6.599  0.00  0.00    -0.152 OA
ATOM     23  O   UNL     1      -1.816  -2.821  -4.680  0.00  0.00    -0.152 OA
BRANCH  21  24
ATOM     24  C   UNL     1      -2.450  -2.132  -7.063  0.00  0.00    +0.143 A 
ATOM     25  C   UNL     1      -2.526  -2.266  -8.410  0.00  0.00    +0.036 A 
ATOM     26  C   UNL     1      -3.609  -1.725  -9.077  0.00  0.00    +0.010 A 
ATOM     27  C   UNL     1      -4.557  -1.066  -8.366  0.00  0.00    +0.047 A 
ATOM     28  S   UNL     1      -3.932  -1.205  -6.700  0.00  0.00    -0.077 S 
ENDBRANCH  21  24
ENDBRANCH  20  21
ENDBRANCH   1  16
TORSDOF 5
