REMARK  Name = ZINC13482309
REMARK  8 active torsions:
REMARK  status: ('A' for Active; 'I' for Inactive)
REMARK    1  A    between atoms: C_1  and  C_2
REMARK    2  A    between atoms: C_7  and  C_17
REMARK    3  A    between atoms: C_21  and  O_24
REMARK    4  A    between atoms: C_22  and  O_23
REMARK    5  A    between atoms: O_24  and  C_25
REMARK    6  A    between atoms: C_28  and  C_30
REMARK    7  A    between atoms: C_30  and  O_32
REMARK    8  A    between atoms: O_32  and  C_33
REMARK                            x       y       z     vdW  Elec       q    Type
REMARK                         _______ _______ _______ _____ _____    ______ ____
ROOT
ATOM      1  C   UNL     1       1.199   8.726  -2.706  0.00  0.00    +0.009 C 
ATOM      2  C   UNL     1       1.391   7.541  -3.655  0.00  0.00    +0.013 C 
ATOM      3  C   UNL     1       2.845   7.075  -3.614  0.00  0.00    +0.055 C 
ATOM      4  C   UNL     1       3.215   6.654  -2.201  0.00  0.00    +0.017 C 
ATOM      5  C   UNL     1       2.296   6.093  -1.397  0.00  0.00    +0.037 C 
ATOM      6  C   UNL     1       2.534   5.596   0.009  0.00  0.00    +0.140 C 
ATOM      7  N   UNL     1       3.802   5.998   0.580  0.00  0.00    -0.331 N 
ATOM      8  C   UNL     1       5.008   5.556   0.039  0.00  0.00    +0.049 A 
ATOM      9  C   UNL     1       5.861   4.729   0.753  0.00  0.00    +0.025 A 
ATOM     10  C   UNL     1       7.027   4.278   0.158  0.00  0.00    +0.002 A 
ATOM     11  C   UNL     1       7.339   4.646  -1.138  0.00  0.00    +0.002 A 
ATOM     12  C   UNL     1       6.497   5.486  -1.848  0.00  0.00    +0.025 A 
ATOM     13  C   UNL     1       5.341   5.954  -1.247  0.00  0.00    +0.052 A 
ATOM     14  N   UNL     1       4.509   6.882  -1.862  0.00  0.00    -0.316 N 
ATOM     15  C   UNL     1       0.965   5.925  -1.846  0.00  0.00    +0.177 C 
ATOM     16  O   UNL     1       0.158   5.402  -1.102  0.00  0.00    -0.291 OA
ATOM     17  C   UNL     1       0.512   6.367  -3.205  0.00  0.00    +0.171 C 
ATOM     18  H   UNL     1       3.812   6.586   1.352  0.00  0.00    +0.147 HD
ATOM     19  H   UNL     1       4.880   7.755  -2.064  0.00  0.00    +0.152 HD
ENDROOT
BRANCH   6  20
ATOM     20  C   UNL     1       2.470   4.090   0.001  0.00  0.00    +0.022 A 
ATOM     21  C   UNL     1       2.676   3.396  -1.177  0.00  0.00    +0.009 A 
ATOM     22  C   UNL     1       2.618   2.015  -1.188  0.00  0.00    +0.004 A 
ATOM     23  C   UNL     1       2.353   1.322  -0.021  0.00  0.00    +0.049 A 
ATOM     24  C   UNL     1       2.145   2.011   1.163  0.00  0.00    +0.162 A 
ATOM     25  C   UNL     1       2.198   3.402   1.172  0.00  0.00    +0.164 A 
BRANCH  25  26
ATOM     26  O   UNL     1       1.989   4.084   2.330  0.00  0.00    -0.503 OA
ATOM     27  H   UNL     1       2.793   4.247   2.841  0.00  0.00    +0.292 HD
ENDBRANCH  25  26
BRANCH  24  28
ATOM     28  O   UNL     1       1.885   1.331   2.311  0.00  0.00    -0.491 OA
ATOM     29  C   UNL     1       1.841  -0.094   2.225  0.00  0.00    +0.277 C 
ENDBRANCH  24  28
ENDBRANCH   6  20
BRANCH  17  30
ATOM     30  C   UNL     1      -0.927   6.809  -3.140  0.00  0.00    +0.318 C 
ATOM     31  O   UNL     1      -1.224   7.945  -3.424  0.00  0.00    -0.250 OA
BRANCH  30  32
ATOM     32  O   UNL     1      -1.879   5.940  -2.767  0.00  0.00    -0.467 OA
ATOM     33  C   UNL     1      -3.244   6.434  -2.727  0.00  0.00    +0.280 C 
ENDBRANCH  30  32
ENDBRANCH  17  30
TORSDOF 5
