REMARK  Name = ZINC32789266
REMARK  7 active torsions:
REMARK  status: ('A' for Active; 'I' for Inactive)
REMARK    1  A    between atoms: C_1  and  C_2
REMARK    2  A    between atoms: C_12  and  O_13
REMARK    3  A    between atoms: O_13  and  C_14
REMARK    4  A    between atoms: C_14  and  C_15
REMARK    5  A    between atoms: N_17  and  C_18
REMARK    6  A    between atoms: C_21  and  S_24
REMARK    7  A    between atoms: S_24  and  N_27
REMARK                            x       y       z     vdW  Elec       q    Type
REMARK                         _______ _______ _______ _____ _____    ______ ____
ROOT
ATOM      1  C   UNL     1      -2.804   4.215   5.427  0.00  0.00    +0.255 C 
ATOM      2  O   UNL     1      -1.999   4.979   4.938  0.00  0.00    -0.272 OA
ATOM      3  N   UNL     1      -3.076   3.043   4.821  0.00  0.00    -0.283 N 
ATOM      4  H   UNL     1      -3.868   2.389   5.216  0.00  0.00    +0.155 HD
ENDROOT
BRANCH   3   5
ATOM      5  C   UNL     1      -2.350   2.656   3.688  0.00  0.00    +0.034 A 
ATOM      6  C   UNL     1      -1.014   3.011   3.564  0.00  0.00    +0.025 A 
ATOM      7  C   UNL     1      -0.300   2.629   2.445  0.00  0.00    +0.030 A 
ATOM      8  C   UNL     1      -0.916   1.893   1.448  0.00  0.00    +0.105 A 
ATOM      9  C   UNL     1      -2.248   1.543   1.567  0.00  0.00    +0.030 A 
ATOM     10  C   UNL     1      -2.966   1.917   2.686  0.00  0.00    +0.025 A 
BRANCH   8  11
ATOM     11  S   UNL     1      -0.003   1.408   0.022  0.00  0.00    +0.056 S 
ATOM     12  O   UNL     1       1.071   2.330  -0.105  0.00  0.00    -0.153 OA
ATOM     13  O   UNL     1      -0.951   1.196  -1.015  0.00  0.00    -0.153 OA
BRANCH  11  14
ATOM     14  N   UNL     1       0.675  -0.066   0.353  0.00  0.00    -0.204 NA
ATOM     15  H   UNL     1       1.257  -0.406  -0.517  0.00  0.00    +0.144 HD
ATOM     16  H   UNL     1      -0.120  -0.795   0.570  0.00  0.00    +0.144 HD
ENDBRANCH  11  14
ENDBRANCH   8  11
ENDBRANCH   3   5
BRANCH   1  17
ATOM     17  C   UNL     1      -3.502   4.577   6.713  0.00  0.00    +0.324 C 
BRANCH  17  18
ATOM     18  O   UNL     1      -3.049   5.858   7.156  0.00  0.00    -0.482 OA
BRANCH  18  29
ATOM     19  C   UNL     1      -4.269  10.475  10.357  0.00  0.00    +0.013 C 
ATOM     20  C   UNL     1      -3.159   9.422  10.317  0.00  0.00    +0.027 C 
ATOM     21  C   UNL     1      -2.166   9.745   9.192  0.00  0.00    +0.087 C 
ATOM     22  C   UNL     1      -2.216   8.557   8.262  0.00  0.00    +0.168 C 
ATOM     23  O   UNL     1      -1.572   8.423   7.243  0.00  0.00    -0.292 OA
ATOM     24  C   UNL     1      -3.177   7.589   8.807  0.00  0.00    +0.065 A 
ATOM     25  C   UNL     1      -3.740   8.067   9.992  0.00  0.00    +0.005 A 
ATOM     26  C   UNL     1      -4.676   7.307  10.667  0.00  0.00    +0.128 A 
ATOM     27  C   UNL     1      -5.065   6.071  10.172  0.00  0.00    +0.042 A 
ATOM     28  C   UNL     1      -4.521   5.587   8.999  0.00  0.00    +0.049 A 
ATOM     29  C   UNL     1      -3.582   6.335   8.309  0.00  0.00    +0.132 A 
ATOM     30  F   UNL     1      -5.216   7.770  11.815  0.00  0.00    -0.205 F 
ENDBRANCH  18  29
ENDBRANCH  17  18
ENDBRANCH   1  17
TORSDOF 6
