REMARK  Name = ZINC22941778
REMARK  14 active torsions:
REMARK  status: ('A' for Active; 'I' for Inactive)
REMARK    1  A    between atoms: C_1  and  C_2
REMARK    2  A    between atoms: C_4  and  C_38
REMARK    3  A    between atoms: C_5  and  C_9
REMARK    4  A    between atoms: C_6  and  C_8
REMARK    5  A    between atoms: C_9  and  C_37
REMARK    6  A    between atoms: C_11  and  C_13
REMARK    7  A    between atoms: C_13  and  C_28
REMARK    8  A    between atoms: N_14  and  O_15
REMARK    9  A    between atoms: O_15  and  C_16
REMARK   10  A    between atoms: C_16  and  C_17
REMARK   11  A    between atoms: C_17  and  C_19
REMARK   12  A    between atoms: C_17  and  O_27
REMARK   13  A    between atoms: C_19  and  N_20
REMARK   14  A    between atoms: N_23  and  C_26
REMARK                            x       y       z     vdW  Elec       q    Type
REMARK                         _______ _______ _______ _____ _____    ______ ____
ROOT
ATOM      1  C   UNL     1      -0.489   1.369   8.668  0.00  0.00    +0.125 C 
ATOM      2  N   UNL     1      -0.186   0.686   7.609  0.00  0.00    -0.086 NA
ENDROOT
BRANCH   1   3
ATOM      3  C   UNL     1       0.180   1.081   9.943  0.00  0.00    +0.154 A 
ATOM      4  C   UNL     1       1.129   0.128  10.131  0.00  0.00    +0.059 A 
ATOM      5  C   UNL     1       1.505   0.202  11.543  0.00  0.00    +0.021 A 
ATOM      6  C   UNL     1       2.410  -0.494  12.347  0.00  0.00    +0.011 A 
ATOM      7  C   UNL     1       2.527  -0.172  13.670  0.00  0.00    +0.001 A 
ATOM      8  C   UNL     1       1.753   0.842  14.218  0.00  0.00    +0.004 A 
ATOM      9  C   UNL     1       0.855   1.541  13.440  0.00  0.00    +0.047 A 
ATOM     10  C   UNL     1       0.719   1.231  12.093  0.00  0.00    +0.136 A 
ATOM     11  O   UNL     1      -0.051   1.729  11.104  0.00  0.00    -0.453 OA
ENDBRANCH   1   3
BRANCH   1  14
ATOM     12  C   UNL     1      -2.558   3.861   9.799  0.00  0.00    -0.005 C 
ATOM     13  C   UNL     1      -2.631   2.332   9.657  0.00  0.00    +0.021 C 
ATOM     14  C   UNL     1      -1.529   2.457   8.591  0.00  0.00    +0.046 C 
ATOM     15  C   UNL     1      -1.109   3.761   9.289  0.00  0.00    +0.021 C 
ATOM     16  C   UNL     1      -3.492   4.611   8.847  0.00  0.00    +0.016 C 
BRANCH  12  21
ATOM     17  C   UNL     1      -2.972   5.701  15.261  0.00  0.00    +0.044 C 
ATOM     18  C   UNL     1      -2.865   5.221  13.836  0.00  0.00    -0.050 A 
ATOM     19  C   UNL     1      -2.143   5.954  12.913  0.00  0.00    +0.007 A 
ATOM     20  C   UNL     1      -2.044   5.514  11.607  0.00  0.00    -0.046 A 
ATOM     21  C   UNL     1      -2.666   4.341  11.223  0.00  0.00    -0.036 A 
ATOM     22  C   UNL     1      -3.393   3.611  12.145  0.00  0.00    -0.046 A 
ATOM     23  C   UNL     1      -3.488   4.049  13.453  0.00  0.00    +0.007 A 
ATOM     24  C   UNL     1      -4.076   2.335  11.726  0.00  0.00    +0.044 C 
ATOM     25  C   UNL     1      -1.256   6.313  10.600  0.00  0.00    +0.044 C 
ENDBRANCH  12  21
ENDBRANCH   1  14
BRANCH   2  26
ATOM     26  O   UNL     1      -0.747   1.036   6.357  0.00  0.00    -0.391 OA
BRANCH  26  27
ATOM     27  C   UNL     1      -0.416   0.133   5.299  0.00  0.00    +0.295 C 
BRANCH  27  28
ATOM     28  C   UNL     1      -1.169   0.536   4.030  0.00  0.00    +0.168 C 
BRANCH  28  29
ATOM     29  O   UNL     1      -2.576   0.411   4.252  0.00  0.00    -0.387 OA
ATOM     30  H   UNL     1      -3.283   0.659   3.446  0.00  0.00    +0.210 HD
ENDBRANCH  28  29
BRANCH  28  31
ATOM     31  C   UNL     1      -0.752  -0.378   2.877  0.00  0.00    +0.119 C 
BRANCH  31  32
ATOM     32  N   UNL     1      -1.447   0.033   1.650  0.00  0.00    -0.303 NA
ATOM     33  C   UNL     1      -1.018  -0.781   0.503  0.00  0.00    +0.066 C 
ATOM     34  C   UNL     1      -1.820  -0.376  -0.735  0.00  0.00    -0.064 C 
ATOM     35  N   UNL     1      -1.616   1.054  -1.003  0.00  0.00    +0.379 N 
ATOM     36  C   UNL     1      -2.046   1.868   0.143  0.00  0.00    -0.064 C 
ATOM     37  C   UNL     1      -1.243   1.463   1.382  0.00  0.00    +0.066 C 
ATOM     38  C   UNL     1      -2.311   1.465  -2.230  0.00  0.00    -0.096 C 
ATOM     39  H   UNL     1      -0.539   1.222  -1.153  0.00  0.00    -0.082 HD
ENDBRANCH  31  32
ENDBRANCH  28  31
ENDBRANCH  27  28
ENDBRANCH  26  27
ENDBRANCH   2  26
TORSDOF 9
