REMARK  Name = ZINC65206572
REMARK  7 active torsions:
REMARK  status: ('A' for Active; 'I' for Inactive)
REMARK    1  A    between atoms: C_1  and  C_2
REMARK    2  A    between atoms: C_2  and  C_25
REMARK    3  A    between atoms: C_9  and  O_13
REMARK    4  A    between atoms: O_13  and  C_14
REMARK    5  A    between atoms: C_14  and  C_15
REMARK    6  A    between atoms: N_21  and  C_22
REMARK    7  A    between atoms: N_21  and  C_23
REMARK                            x       y       z     vdW  Elec       q    Type
REMARK                         _______ _______ _______ _____ _____    ______ ____
ROOT
ATOM      1  O   UNL     1       2.639  -4.254   3.270  0.00  0.00    -0.484 OA
ENDROOT
BRANCH   1  10
ATOM      2  C   UNL     1      -0.019   1.526   0.010  0.00  0.00    +0.056 C 
ATOM      3  C   UNL     1       0.002  -0.004   0.002  0.00  0.00    +0.112 C 
ATOM      4  C   UNL     1      -1.438  -0.536   0.016  0.00  0.00    +0.127 C 
ATOM      5  C   UNL     1      -1.357  -2.052   0.041  0.00  0.00    +0.170 C 
ATOM      6  O   UNL     1      -2.113  -2.743  -0.610  0.00  0.00    -0.292 OA
ATOM      7  C   UNL     1      -0.314  -2.640   0.895  0.00  0.00    +0.059 A 
ATOM      8  C   UNL     1      -0.315  -4.008   1.183  0.00  0.00    +0.018 A 
ATOM      9  C   UNL     1       0.667  -4.536   1.972  0.00  0.00    +0.046 A 
ATOM     10  C   UNL     1       1.667  -3.717   2.490  0.00  0.00    +0.125 A 
ATOM     11  C   UNL     1       1.679  -2.358   2.215  0.00  0.00    +0.092 A 
ATOM     12  C   UNL     1       0.690  -1.806   1.419  0.00  0.00    +0.135 A 
ATOM     13  O   UNL     1       0.692  -0.477   1.158  0.00  0.00    -0.485 OA
ATOM     14  C   UNL     1       0.717  -0.498  -1.257  0.00  0.00    +0.056 C 
ENDBRANCH   1  10
BRANCH   1  15
ATOM     15  C   UNL     1       2.570  -5.660   3.516  0.00  0.00    +0.305 C 
BRANCH  15  16
ATOM     16  C   UNL     1       3.723  -6.073   4.395  0.00  0.00    +0.173 A 
ATOM     17  N   UNL     1       4.868  -6.443   3.850  0.00  0.00    -0.196 NA
ATOM     18  C   UNL     1       5.888  -6.808   4.623  0.00  0.00    +0.217 A 
ATOM     19  N   UNL     1       5.754  -6.800   5.944  0.00  0.00    -0.181 NA
ATOM     20  C   UNL     1       4.601  -6.428   6.489  0.00  0.00    +0.222 A 
ATOM     21  N   UNL     1       3.587  -6.060   5.710  0.00  0.00    -0.196 NA
ATOM     22  N   UNL     1       4.456  -6.420   7.862  0.00  0.00    -0.306 N 
ATOM     23  C   UNL     1       5.574  -6.820   8.719  0.00  0.00    +0.132 C 
ATOM     24  C   UNL     1       3.184  -6.009   8.461  0.00  0.00    +0.132 C 
ATOM     25  N   UNL     1       7.084  -7.194   4.052  0.00  0.00    -0.327 N 
ATOM     26  H   UNL     1       7.182  -7.199   3.087  0.00  0.00    +0.145 HD
ATOM     27  H   UNL     1       7.827  -7.459   4.616  0.00  0.00    +0.145 HD
ENDBRANCH  15  16
ENDBRANCH   1  15
TORSDOF 3
