REMARK  Name = ZINC02297904
REMARK  4 active torsions:
REMARK  status: ('A' for Active; 'I' for Inactive)
REMARK    1  A    between atoms: C_1  and  C_2
REMARK    2  A    between atoms: C_2  and  C_4
REMARK    3  A    between atoms: C_2  and  N_15
REMARK    4  A    between atoms: C_16  and  C_18
REMARK                            x       y       z     vdW  Elec       q    Type
REMARK                         _______ _______ _______ _____ _____    ______ ____
ROOT
ATOM      1  C   UNL     1       1.608   2.092  -1.439  0.00  0.00    +0.032 C 
ATOM      2  C   UNL     1       1.248   1.716  -0.001  0.00  0.00    +0.114 C 
ENDROOT
BRANCH   2   3
ATOM      3  C   UNL     1       2.361   0.850   0.594  0.00  0.00    +0.231 C 
ATOM      4  C   UNL     1       1.943   0.353   1.985  0.00  0.00    +0.275 C 
ATOM      5  O   UNL     1       2.999  -0.462   2.505  0.00  0.00    -0.485 OA
ATOM      6  C   UNL     1       3.528  -1.389   1.661  0.00  0.00    +0.162 A 
ATOM      7  C   UNL     1       4.282  -2.431   2.182  0.00  0.00    +0.049 A 
ATOM      8  C   UNL     1       4.830  -3.378   1.337  0.00  0.00    +0.004 A 
ATOM      9  C   UNL     1       4.627  -3.291  -0.027  0.00  0.00    +0.004 A 
ATOM     10  C   UNL     1       3.875  -2.257  -0.552  0.00  0.00    +0.049 A 
ATOM     11  C   UNL     1       3.323  -1.303   0.290  0.00  0.00    +0.163 A 
ATOM     12  O   UNL     1       2.583  -0.291  -0.242  0.00  0.00    -0.480 OA
ENDBRANCH   2   3
BRANCH   2  13
ATOM     13  N   UNL     1      -0.011   0.966   0.007  0.00  0.00    -0.305 N 
ATOM     14  C   UNL     1      -1.187   1.624   0.017  0.00  0.00    +0.245 C 
ATOM     15  O   UNL     1      -1.204   2.839   0.023  0.00  0.00    -0.270 OA
ATOM     16  H   UNL     1       0.002  -0.004   0.002  0.00  0.00    +0.149 HD
BRANCH  14  17
ATOM     17  C   UNL     1      -2.457   0.868   0.018  0.00  0.00    +0.051 A 
ATOM     18  C   UNL     1      -2.442  -0.528   0.005  0.00  0.00    +0.014 A 
ATOM     19  C   UNL     1      -3.630  -1.228   0.012  0.00  0.00    +0.001 A 
ATOM     20  C   UNL     1      -4.837  -0.550   0.021  0.00  0.00    +0.001 A 
ATOM     21  C   UNL     1      -4.860   0.833   0.029  0.00  0.00    +0.016 A 
ATOM     22  C   UNL     1      -3.678   1.546   0.028  0.00  0.00    +0.030 A 
ATOM     23 BR   UNL     1      -3.711   3.437   0.040  0.00  0.00    -0.050 Br
ENDBRANCH  14  17
ENDBRANCH   2  13
TORSDOF 3
