REMARK  Name = ZINC00865579
REMARK  8 active torsions:
REMARK  status: ('A' for Active; 'I' for Inactive)
REMARK    1  A    between atoms: C_1  and  O_2
REMARK    2  A    between atoms: O_2  and  C_3
REMARK    3  A    between atoms: C_5  and  C_10
REMARK    4  A    between atoms: C_8  and  O_9
REMARK    5  A    between atoms: N_11  and  N_12
REMARK    6  A    between atoms: C_13  and  C_15
REMARK    7  A    between atoms: C_15  and  O_16
REMARK    8  A    between atoms: O_16  and  C_17
REMARK                            x       y       z     vdW  Elec       q    Type
REMARK                         _______ _______ _______ _____ _____    ______ ____
ROOT
ATOM      1  N   UNL     1      -6.109   3.245   0.078  0.00  0.00    -0.204 N 
ATOM      2  C   UNL     1      -4.883   3.803   0.069  0.00  0.00    +0.270 C 
ATOM      3  O   UNL     1      -4.766   5.011   0.074  0.00  0.00    -0.270 OA
ATOM      4  H   UNL     1      -6.203   2.279   0.074  0.00  0.00    +0.177 HD
ENDROOT
BRANCH   1   6
ATOM      5  C   UNL     1      -8.431   3.521   0.101  0.00  0.00    +0.138 C 
ATOM      6  N   UNL     1      -7.249   4.059   0.093  0.00  0.00    -0.188 NA
BRANCH   5   9
ATOM      7  C   UNL     1     -12.024   4.609   0.141  0.00  0.00    +0.162 A 
ATOM      8  C   UNL     1     -10.903   3.801   0.126  0.00  0.00    +0.058 A 
ATOM      9  C   UNL     1      -9.630   4.378   0.117  0.00  0.00    -0.002 A 
ATOM     10  C   UNL     1      -9.498   5.769   0.128  0.00  0.00    +0.013 A 
ATOM     11  C   UNL     1     -10.621   6.568   0.137  0.00  0.00    +0.050 A 
ATOM     12  C   UNL     1     -11.884   5.995   0.145  0.00  0.00    +0.158 A 
BRANCH   7  14
ATOM     13  C   UNL     1     -13.333   2.623   0.144  0.00  0.00    +0.277 C 
ATOM     14  O   UNL     1     -13.264   4.050   0.150  0.00  0.00    -0.491 OA
ENDBRANCH   7  14
BRANCH  12  15
ATOM     15  O   UNL     1     -12.989   6.787   0.159  0.00  0.00    -0.503 OA
ATOM     16  H   UNL     1     -13.300   7.013   1.046  0.00  0.00    +0.292 HD
ENDBRANCH  12  15
ENDBRANCH   5   9
ENDBRANCH   1   6
BRANCH   2  17
ATOM     17  C   UNL     1      -3.656   2.927   0.053  0.00  0.00    +0.326 C 
BRANCH  17  18
ATOM     18  O   UNL     1      -2.486   3.747   0.046  0.00  0.00    -0.482 OA
BRANCH  18  19
ATOM     19  C   UNL     1      -1.287   3.110   0.032  0.00  0.00    +0.129 A 
ATOM     20  C   UNL     1      -1.234   1.744   0.017  0.00  0.00    +0.046 A 
ATOM     21  C   UNL     1      -0.013   1.076   0.008  0.00  0.00    +0.004 A 
ATOM     22  C   UNL     1       1.164   1.762   0.000  0.00  0.00    +0.009 A 
ATOM     23  C   UNL     1       1.152   3.167   0.008  0.00  0.00    -0.014 A 
ATOM     24  C   UNL     1      -0.088   3.852   0.024  0.00  0.00    +0.024 A 
ATOM     25  C   UNL     1      -0.100   5.256   0.030  0.00  0.00    +0.012 A 
ATOM     26  C   UNL     1       1.077   5.940   0.022  0.00  0.00    +0.001 A 
ATOM     27  C   UNL     1       2.297   5.267   0.007  0.00  0.00    +0.001 A 
ATOM     28  C   UNL     1       2.347   3.907   0.000  0.00  0.00    +0.008 A 
ENDBRANCH  18  19
ENDBRANCH  17  18
ENDBRANCH   2  17
TORSDOF 7
