REMARK  Name = ZINC20735937
REMARK  5 active torsions:
REMARK  status: ('A' for Active; 'I' for Inactive)
REMARK    1  A    between atoms: C_4  and  C_7
REMARK    2  A    between atoms: C_12  and  C_17
REMARK    3  A    between atoms: C_17  and  C_18
REMARK    4  A    between atoms: N_20  and  C_21
REMARK    5  A    between atoms: C_26  and  C_27
REMARK                            x       y       z     vdW  Elec       q    Type
REMARK                         _______ _______ _______ _____ _____    ______ ____
ROOT
ATOM      1  C   UNL     1      10.381   3.071   0.454  0.00  0.00    +0.183 A 
ATOM      2  N   UNL     1      10.222   2.333   1.561  0.00  0.00    -0.193 NA
ATOM      3  C   UNL     1       9.080   1.673   1.499  0.00  0.00    +0.221 A 
ATOM      4  N   UNL     1       8.492   1.994   0.329  0.00  0.00    -0.220 N 
ATOM      5  N   UNL     1       9.341   2.892  -0.329  0.00  0.00    -0.148 NA
ATOM      6  C   UNL     1       7.222   1.264   0.256  0.00  0.00    +0.205 C 
ATOM      7  C   UNL     1       7.168   0.480   1.551  0.00  0.00    +0.245 C 
ATOM      8  O   UNL     1       6.285  -0.268   1.914  0.00  0.00    -0.273 OA
ATOM      9  N   UNL     1       8.298   0.782   2.217  0.00  0.00    -0.253 N 
ATOM     10  H   UNL     1       8.638   0.420   3.199  0.00  0.00    +0.158 HD
ENDROOT
BRANCH   1  14
ATOM     11  C   UNL     1      13.708   5.582  -0.387  0.00  0.00    +0.000 A 
ATOM     12  C   UNL     1      13.664   4.870   0.798  0.00  0.00    +0.001 A 
ATOM     13  C   UNL     1      12.587   4.054   1.076  0.00  0.00    +0.011 A 
ATOM     14  C   UNL     1      11.542   3.948   0.161  0.00  0.00    +0.021 A 
ATOM     15  C   UNL     1      11.593   4.663  -1.034  0.00  0.00    +0.011 A 
ATOM     16  C   UNL     1      12.673   5.481  -1.299  0.00  0.00    +0.001 A 
ENDBRANCH   1  14
BRANCH   6  17
ATOM     17  C   UNL     1       6.047   2.240   0.172  0.00  0.00    +0.132 C 
BRANCH  17  18
ATOM     18  C   UNL     1       4.758   1.467   0.066  0.00  0.00    +0.220 C 
ATOM     19  O   UNL     1       4.777   0.255   0.059  0.00  0.00    -0.275 OA
ATOM     20  N   UNL     1       3.584   2.123  -0.020  0.00  0.00    -0.285 N 
ATOM     21  H   UNL     1       3.571   3.221  -0.089  0.00  0.00    +0.155 HD
BRANCH  20  22
ATOM     22  C   UNL     1       2.381   1.408  -0.023  0.00  0.00    +0.045 A 
ATOM     23  C   UNL     1       2.313   0.163  -0.635  0.00  0.00    +0.024 A 
ATOM     24  C   UNL     1       1.125  -0.540  -0.637  0.00  0.00    +0.002 A 
ATOM     25  C   UNL     1       0.003  -0.006  -0.029  0.00  0.00    +0.001 A 
ATOM     26  C   UNL     1       0.067   1.233   0.581  0.00  0.00    +0.014 A 
ATOM     27  C   UNL     1       1.253   1.942   0.585  0.00  0.00    +0.076 A 
BRANCH  27  28
ATOM     28  C   UNL     1       1.322   3.293   1.250  0.00  0.00    +0.419 C 
ATOM     29  F   UNL     1       0.070   3.613   1.787  0.00  0.00    -0.166 F 
ATOM     30  F   UNL     1       2.274   3.261   2.274  0.00  0.00    -0.166 F 
ATOM     31  F   UNL     1       1.685   4.259   0.305  0.00  0.00    -0.166 F 
ENDBRANCH  27  28
ENDBRANCH  20  22
ENDBRANCH  17  18
ENDBRANCH   6  17
TORSDOF 5
