REMARK  Name = ZINC37124463
REMARK  5 active torsions:
REMARK  status: ('A' for Active; 'I' for Inactive)
REMARK    1  A    between atoms: C_1  and  C_2
REMARK    2  A    between atoms: C_2  and  C_7
REMARK    3  A    between atoms: C_7  and  N_9
REMARK    4  A    between atoms: N_16  and  C_19
REMARK    5  A    between atoms: C_19  and  C_20
REMARK                            x       y       z     vdW  Elec       q    Type
REMARK                         _______ _______ _______ _____ _____    ______ ____
ROOT
ATOM      1  N   UNL     1      -0.489  -0.078  -2.403  0.00  0.00    -0.156 NA
ATOM      2  C   UNL     1      -0.401  -0.646  -3.608  0.00  0.00    +0.163 A 
ATOM      3  N   UNL     1       0.236  -1.796  -3.955  0.00  0.00    -0.339 N 
ATOM      4  C   UNL     1       0.209  -2.215  -5.256  0.00  0.00    +0.024 A 
ATOM      5  C   UNL     1      -0.468  -1.421  -6.102  0.00  0.00    -0.004 A 
ATOM      6  S   UNL     1      -1.060  -0.117  -5.064  0.00  0.00    -0.059 S 
ATOM      7  C   UNL     1      -0.656  -1.630  -7.568  0.00  0.00    -0.033 C 
ATOM      8  N   UNL     1       0.322  -2.636  -8.024  0.00  0.00    +0.386 N 
ATOM      9  C   UNL     1       0.261  -3.811  -7.144  0.00  0.00    -0.072 C 
ATOM     10  C   UNL     1       0.875  -3.482  -5.779  0.00  0.00    +0.035 C 
ATOM     11  H   UNL     1       0.706  -2.315  -3.285  0.00  0.00    +0.167 HD
ATOM     12  H   UNL     1       1.250  -2.241  -7.994  0.00  0.00    -0.081 HD
ENDROOT
BRANCH   1  13
ATOM     13  C   UNL     1       0.101  -0.645  -1.358  0.00  0.00    +0.247 C 
ATOM     14  O   UNL     1       0.720  -1.683  -1.498  0.00  0.00    -0.273 OA
BRANCH  13  16
ATOM     15  C   UNL     1      -0.019   1.526   0.010  0.00  0.00    +0.024 C 
ATOM     16  C   UNL     1       0.002  -0.004   0.002  0.00  0.00    +0.081 C 
ATOM     17  C   UNL     1      -0.825  -0.728   1.066  0.00  0.00    +0.058 C 
ATOM     18  C   UNL     1       0.701  -0.708   1.167  0.00  0.00    +0.133 C 
ATOM     19 CL   UNL     1       1.580  -2.240   0.807  0.00  0.00    -0.100 Cl
ATOM     20 CL   UNL     1       1.438   0.330   2.445  0.00  0.00    -0.100 Cl
ENDBRANCH  13  16
ENDBRANCH   1  13
BRANCH   8  21
ATOM     21  C   UNL     1       0.005  -3.039  -9.400  0.00  0.00    -0.043 C 
BRANCH  21  22
ATOM     22  C   UNL     1       0.186  -1.861 -10.322  0.00  0.00    -0.064 A 
ATOM     23  C   UNL     1      -0.872  -1.006 -10.569  0.00  0.00    +0.002 A 
ATOM     24  C   UNL     1      -0.706   0.074 -11.415  0.00  0.00    +0.000 A 
ATOM     25  C   UNL     1       0.519   0.301 -12.014  0.00  0.00    +0.000 A 
ATOM     26  C   UNL     1       1.578  -0.553 -11.767  0.00  0.00    +0.000 A 
ATOM     27  C   UNL     1       1.413  -1.631 -10.918  0.00  0.00    +0.002 A 
ENDBRANCH  21  22
ENDBRANCH   8  21
TORSDOF 4
