REMARK  Name = ZINC00815917
REMARK  6 active torsions:
REMARK  status: ('A' for Active; 'I' for Inactive)
REMARK    1  A    between atoms: C_1  and  C_2
REMARK    2  A    between atoms: C_10  and  C_13
REMARK    3  A    between atoms: C_18  and  C_28
REMARK    4  A    between atoms: C_20  and  C_24
REMARK    5  A    between atoms: C_24  and  O_26
REMARK    6  A    between atoms: O_26  and  C_27
REMARK                            x       y       z     vdW  Elec       q    Type
REMARK                         _______ _______ _______ _____ _____    ______ ____
ROOT
ATOM      1  C   UNL     1       3.830   1.812  -0.712  0.00  0.00    +0.143 C 
ATOM      2  C   UNL     1       2.377   1.429  -0.566  0.00  0.00    +0.037 C 
ATOM      3  C   UNL     1       1.431   2.148   0.062  0.00  0.00    +0.017 C 
ATOM      4  C   UNL     1      -0.002   1.648   0.128  0.00  0.00    +0.055 C 
ATOM      5  C   UNL     1      -0.022   0.121   0.159  0.00  0.00    +0.013 C 
ATOM      6  C   UNL     1       0.663  -0.381  -1.117  0.00  0.00    +0.171 C 
ATOM      7  C   UNL     1       2.048   0.192  -1.170  0.00  0.00    +0.177 C 
ATOM      8  O   UNL     1       2.917  -0.427  -1.751  0.00  0.00    -0.291 OA
ATOM      9  C   UNL     1      -1.468  -0.378   0.202  0.00  0.00    +0.009 C 
ATOM     10  N   UNL     1       1.644   3.346   0.662  0.00  0.00    -0.316 N 
ATOM     11  C   UNL     1       2.702   3.632   1.517  0.00  0.00    +0.052 A 
ATOM     12  C   UNL     1       2.508   3.993   2.839  0.00  0.00    +0.025 A 
ATOM     13  C   UNL     1       3.596   4.379   3.603  0.00  0.00    +0.002 A 
ATOM     14  C   UNL     1       4.864   4.402   3.051  0.00  0.00    +0.002 A 
ATOM     15  C   UNL     1       5.062   4.019   1.736  0.00  0.00    +0.025 A 
ATOM     16  C   UNL     1       3.978   3.616   0.973  0.00  0.00    +0.049 A 
ATOM     17  N   UNL     1       4.133   3.178  -0.341  0.00  0.00    -0.331 N 
ATOM     18  H   UNL     1       1.009   4.057   0.481  0.00  0.00    +0.152 HD
ATOM     19  H   UNL     1       4.448   3.798  -1.017  0.00  0.00    +0.147 HD
ENDROOT
BRANCH   1  29
ATOM     20  C   UNL     1      10.311  -1.408   1.393  0.00  0.00    +0.044 C 
ATOM     21  C   UNL     1       8.824  -1.204   1.528  0.00  0.00    -0.050 A 
ATOM     22  C   UNL     1       8.119  -1.895   2.503  0.00  0.00    +0.007 A 
ATOM     23  C   UNL     1       6.759  -1.722   2.644  0.00  0.00    +0.047 A 
ATOM     24  C   UNL     1       6.081  -0.847   1.802  0.00  0.00    +0.138 A 
ATOM     25  C   UNL     1       6.796  -0.149   0.816  0.00  0.00    +0.065 A 
ATOM     26  C   UNL     1       8.172  -0.333   0.684  0.00  0.00    +0.018 A 
ATOM     27  C   UNL     1       6.053   0.769  -0.068  0.00  0.00    +0.198 A 
ATOM     28  O   UNL     1       6.616   1.401  -0.946  0.00  0.00    -0.287 OA
ATOM     29  C   UNL     1       4.655   0.890   0.149  0.00  0.00    +0.059 A 
ATOM     30  C   UNL     1       4.070   0.172   1.125  0.00  0.00    +0.205 A 
ATOM     31  O   UNL     1       4.750  -0.662   1.919  0.00  0.00    -0.462 OA
ENDBRANCH   1  29
BRANCH   6  32
ATOM     32  C   UNL     1       0.739  -1.886  -1.092  0.00  0.00    +0.318 C 
ATOM     33  O   UNL     1       0.291  -2.498  -0.152  0.00  0.00    -0.250 OA
BRANCH  32  34
ATOM     34  O   UNL     1       1.304  -2.546  -2.115  0.00  0.00    -0.467 OA
ATOM     35  C   UNL     1       1.342  -3.995  -2.024  0.00  0.00    +0.280 C 
ENDBRANCH  32  34
ENDBRANCH   6  32
TORSDOF 3
