REMARK  Name = ZINC22146786
REMARK  4 active torsions:
REMARK  status: ('A' for Active; 'I' for Inactive)
REMARK    1  A    between atoms: C_6  and  N_7
REMARK    2  A    between atoms: N_7  and  S_8
REMARK    3  A    between atoms: S_8  and  C_11
REMARK    4  A    between atoms: C_15  and  N_17
REMARK                            x       y       z     vdW  Elec       q    Type
REMARK                         _______ _______ _______ _____ _____    ______ ____
ROOT
ATOM      1  S   UNL     1       5.215  -1.288   3.742  0.00  0.00    +0.072 S 
ATOM      2  O   UNL     1       6.585  -1.171   4.099  0.00  0.00    -0.150 OA
ATOM      3  O   UNL     1       4.173  -0.713   4.519  0.00  0.00    -0.150 OA
ENDROOT
BRANCH   1   4
ATOM      4  C   UNL     1       4.868  -3.011   3.631  0.00  0.00    +0.110 A 
ATOM      5  C   UNL     1       3.564  -3.462   3.737  0.00  0.00    +0.030 A 
ATOM      6  C   UNL     1       3.287  -4.813   3.646  0.00  0.00    +0.024 A 
ATOM      7  C   UNL     1       4.313  -5.720   3.459  0.00  0.00    +0.062 A 
ATOM      8  C   UNL     1       5.624  -5.271   3.357  0.00  0.00    +0.045 A 
ATOM      9  C   UNL     1       5.898  -3.912   3.444  0.00  0.00    +0.053 A 
ATOM     10 CL   UNL     1       3.965  -7.417   3.351  0.00  0.00    -0.082 Cl
BRANCH   8  11
ATOM     11  N   UNL     1       6.665  -6.184   3.167  0.00  0.00    -0.357 N 
ATOM     12  H   UNL     1       7.702  -5.827   3.087  0.00  0.00    +0.142 HD
ATOM     13  H   UNL     1       6.446  -7.260   3.099  0.00  0.00    +0.142 HD
ENDBRANCH   8  11
ENDBRANCH   1   4
BRANCH   1  14
ATOM     14  N   UNL     1       5.069  -0.660   2.216  0.00  0.00    -0.216 N 
ATOM     15  H   UNL     1       5.946  -0.227   1.713  0.00  0.00    +0.174 HD
BRANCH  14  21
ATOM     16  C   UNL     1       2.831   0.205   1.950  0.00  0.00    +0.028 A 
ATOM     17  C   UNL     1       1.606   0.186   1.310  0.00  0.00    +0.051 A 
ATOM     18  C   UNL     1       1.371  -0.716   0.285  0.00  0.00    +0.166 A 
ATOM     19  C   UNL     1       2.371  -1.605  -0.101  0.00  0.00    +0.168 A 
ATOM     20  C   UNL     1       3.598  -1.586   0.540  0.00  0.00    +0.074 A 
ATOM     21  C   UNL     1       3.829  -0.680   1.567  0.00  0.00    +0.052 A 
ATOM     22  O   UNL     1       1.896  -2.381  -1.119  0.00  0.00    -0.453 OA
ATOM     23  C   UNL     1       0.742  -1.685  -1.627  0.00  0.00    +0.466 C 
ATOM     24  O   UNL     1       0.269  -0.934  -0.493  0.00  0.00    -0.453 OA
ENDBRANCH  14  21
ENDBRANCH   1  14
TORSDOF 4
