REMARK  Name = ZINC00649794
REMARK  6 active torsions:
REMARK  status: ('A' for Active; 'I' for Inactive)
REMARK    1  A    between atoms: C_1  and  C_2
REMARK    2  A    between atoms: C_2  and  C_4
REMARK    3  A    between atoms: C_2  and  O_21
REMARK    4  A    between atoms: N_6  and  N_7
REMARK    5  A    between atoms: C_8  and  C_10
REMARK    6  A    between atoms: O_21  and  C_22
REMARK                            x       y       z     vdW  Elec       q    Type
REMARK                         _______ _______ _______ _____ _____    ______ ____
ROOT
ATOM      1  C   UNL     1       5.919   7.444  -0.177  0.00  0.00    +0.270 C 
ATOM      2  O   UNL     1       4.930   8.116   0.031  0.00  0.00    -0.270 OA
ATOM      3  N   UNL     1       5.804   6.114  -0.357  0.00  0.00    -0.231 N 
ATOM      4  H   UNL     1       6.594   5.577  -0.523  0.00  0.00    +0.173 HD
ENDROOT
BRANCH   3   5
ATOM      5  N   UNL     1       4.543   5.506  -0.303  0.00  0.00    -0.230 N 
ATOM      6  C   UNL     1       4.428   4.175  -0.483  0.00  0.00    +0.267 C 
ATOM      7  O   UNL     1       5.419   3.502  -0.692  0.00  0.00    -0.268 OA
ATOM      8  H   UNL     1       3.752   6.043  -0.137  0.00  0.00    +0.173 HD
BRANCH   6   9
ATOM      9  C   UNL     1       3.102   3.536  -0.427  0.00  0.00    +0.123 A 
ATOM     10  C   UNL     1       1.966   4.290  -0.190  0.00  0.00    +0.031 A 
ATOM     11  C   UNL     1       0.710   3.634  -0.144  0.00  0.00    +0.018 A 
ATOM     12  C   UNL     1      -0.462   4.368   0.094  0.00  0.00    +0.011 A 
ATOM     13  C   UNL     1      -1.667   3.729   0.136  0.00  0.00    +0.001 A 
ATOM     14  C   UNL     1      -1.744   2.357  -0.059  0.00  0.00    +0.004 A 
ATOM     15  C   UNL     1      -0.605   1.615  -0.288  0.00  0.00    +0.047 A 
ATOM     16  C   UNL     1       0.635   2.242  -0.337  0.00  0.00    +0.139 A 
ATOM     17  O   UNL     1       1.749   1.514  -0.567  0.00  0.00    -0.422 OA
ATOM     18  C   UNL     1       2.962   2.088  -0.621  0.00  0.00    +0.350 A 
ATOM     19  O   UNL     1       3.948   1.406  -0.830  0.00  0.00    -0.244 OA
ENDBRANCH   6   9
ENDBRANCH   3   5
BRANCH   1  21
ATOM     20  C   UNL     1       8.135   7.591   0.924  0.00  0.00    +0.062 C 
ATOM     21  C   UNL     1       7.275   8.098  -0.235  0.00  0.00    +0.257 C 
BRANCH  21  22
ATOM     22  O   UNL     1       7.125   9.516  -0.132  0.00  0.00    -0.479 OA
BRANCH  22  23
ATOM     23  C   UNL     1       8.113  10.280  -0.665  0.00  0.00    +0.129 A 
ATOM     24  C   UNL     1       9.242   9.695  -1.166  0.00  0.00    +0.046 A 
ATOM     25  C   UNL     1      10.263  10.465  -1.716  0.00  0.00    +0.004 A 
ATOM     26  C   UNL     1      10.167  11.822  -1.772  0.00  0.00    +0.009 A 
ATOM     27  C   UNL     1       9.023  12.462  -1.267  0.00  0.00    -0.014 A 
ATOM     28  C   UNL     1       7.978  11.683  -0.712  0.00  0.00    +0.024 A 
ATOM     29  C   UNL     1       6.837  12.323  -0.203  0.00  0.00    +0.012 A 
ATOM     30  C   UNL     1       6.744  13.680  -0.260  0.00  0.00    +0.001 A 
ATOM     31  C   UNL     1       7.768  14.447  -0.810  0.00  0.00    +0.001 A 
ATOM     32  C   UNL     1       8.891  13.861  -1.308  0.00  0.00    +0.008 A 
ENDBRANCH  22  23
ENDBRANCH  21  22
ENDBRANCH   1  21
TORSDOF 5
