REMARK  Name = ZINC36805096
REMARK  3 active torsions:
REMARK  status: ('A' for Active; 'I' for Inactive)
REMARK    1  A    between atoms: C_3  and  O_8
REMARK    2  A    between atoms: O_8  and  C_9
REMARK    3  A    between atoms: C_12  and  C_15
REMARK                            x       y       z     vdW  Elec       q    Type
REMARK                         _______ _______ _______ _____ _____    ______ ____
ROOT
ATOM      1  O   UNL     1       3.548   2.104  -0.021  0.00  0.00    -0.456 OA
ENDROOT
BRANCH   1   4
ATOM      2  C   UNL     1       2.933   2.228   3.563  0.00  0.00    +0.005 A 
ATOM      3  C   UNL     1       3.555   1.978   2.355  0.00  0.00    +0.046 A 
ATOM      4  C   UNL     1       2.938   2.349   1.168  0.00  0.00    +0.129 A 
ATOM      5  C   UNL     1       1.698   2.971   1.198  0.00  0.00    +0.060 A 
ATOM      6  C   UNL     1       1.081   3.220   2.409  0.00  0.00    +0.017 A 
ATOM      7  C   UNL     1       1.698   2.849   3.591  0.00  0.00    +0.014 A 
ATOM      8  I   UNL     1      -0.791   4.160   2.456  0.00  0.00    -0.044 I 
ENDBRANCH   1   4
BRANCH   1   9
ATOM      9  C   UNL     1       4.757   1.486  -0.002  0.00  0.00    +0.129 A 
ATOM     10  C   UNL     1       4.827   0.099  -0.053  0.00  0.00    +0.047 A 
ATOM     11  C   UNL     1       6.051  -0.532  -0.034  0.00  0.00    +0.022 A 
ATOM     12  C   UNL     1       7.224   0.225   0.036  0.00  0.00    +0.052 A 
ATOM     13  C   UNL     1       7.149   1.620   0.086  0.00  0.00    +0.022 A 
ATOM     14  C   UNL     1       5.921   2.243   0.062  0.00  0.00    +0.047 A 
BRANCH  12  15
ATOM     15  C   UNL     1       8.499  -0.427   0.056  0.00  0.00    +0.099 C 
ATOM     16  N   UNL     1       9.510  -0.944   0.071  0.00  0.00    -0.191 NA
ENDBRANCH  12  15
ENDBRANCH   1   9
TORSDOF 3
