REMARK  Name = ZINC44452706
REMARK  6 active torsions:
REMARK  status: ('A' for Active; 'I' for Inactive)
REMARK    1  A    between atoms: C_1  and  N_2
REMARK    2  A    between atoms: N_2  and  C_3
REMARK    3  A    between atoms: C_7  and  C_9
REMARK    4  A    between atoms: C_13  and  N_14
REMARK    5  A    between atoms: C_15  and  C_17
REMARK    6  A    between atoms: C_18  and  C_19
REMARK                            x       y       z     vdW  Elec       q    Type
REMARK                         _______ _______ _______ _____ _____    ______ ____
ROOT
ATOM      1  C   UNL     1       0.036  -4.151  -2.355  0.00  0.00    +0.069 A 
ATOM      2  C   UNL     1      -1.202  -4.930  -2.353  0.00  0.00    -0.023 A 
ATOM      3  C   UNL     1      -1.012  -6.261  -2.360  0.00  0.00    -0.004 A 
ATOM      4  S   UNL     1       0.751  -6.464  -2.372  0.00  0.00    -0.077 S 
ATOM      5  C   UNL     1       1.227  -4.856  -2.371  0.00  0.00    +0.085 A 
ATOM      6  C   UNL     1      -2.316  -7.013  -2.353  0.00  0.00    +0.043 C 
ATOM      7  C   UNL     1      -3.365  -5.971  -1.908  0.00  0.00    +0.010 C 
ATOM      8  C   UNL     1      -2.703  -4.649  -2.347  0.00  0.00    +0.037 C 
ENDROOT
BRANCH   1  15
ATOM      9  C   UNL     1      -0.018   1.461   0.010  0.00  0.00    +0.133 C 
ATOM     10  N   UNL     1       0.002  -0.004   0.002  0.00  0.00    -0.291 N 
ATOM     11  C   UNL     1       0.024  -0.743   1.267  0.00  0.00    +0.133 C 
ATOM     12  C   UNL     1       0.000  -0.672  -1.169  0.00  0.00    +0.308 C 
ATOM     13  O   UNL     1      -0.018  -0.058  -2.218  0.00  0.00    -0.252 OA
ATOM     14  N   UNL     1       0.018  -2.019  -1.176  0.00  0.00    -0.236 N 
ATOM     15  C   UNL     1       0.016  -2.687  -2.347  0.00  0.00    +0.254 C 
ATOM     16  O   UNL     1      -0.002  -2.073  -3.397  0.00  0.00    -0.270 OA
ATOM     17  H   UNL     1       0.033  -2.509  -0.339  0.00  0.00    +0.159 HD
ENDBRANCH   1  15
BRANCH   5  18
ATOM     18  N   UNL     1       2.516  -4.350  -2.381  0.00  0.00    -0.276 N 
ATOM     19  C   UNL     1       3.570  -5.190  -2.396  0.00  0.00    +0.241 C 
ATOM     20  O   UNL     1       3.389  -6.393  -2.401  0.00  0.00    -0.270 OA
ATOM     21  H   UNL     1       2.660  -3.391  -2.376  0.00  0.00    +0.156 HD
BRANCH  19  22
ATOM     22  C   UNL     1       4.932  -4.655  -2.406  0.00  0.00    +0.068 C 
ATOM     23  C   UNL     1       5.986  -5.495  -2.421  0.00  0.00    +0.013 C 
BRANCH  23  24
ATOM     24  C   UNL     1       7.356  -4.957  -2.431  0.00  0.00    -0.025 A 
ATOM     25  C   UNL     1       7.569  -3.575  -2.420  0.00  0.00    +0.008 A 
ATOM     26  C   UNL     1       8.855  -3.079  -2.429  0.00  0.00    +0.001 A 
ATOM     27  C   UNL     1       9.935  -3.945  -2.450  0.00  0.00    +0.000 A 
ATOM     28  C   UNL     1       9.733  -5.314  -2.462  0.00  0.00    +0.001 A 
ATOM     29  C   UNL     1       8.452  -5.826  -2.447  0.00  0.00    +0.008 A 
ENDBRANCH  23  24
ENDBRANCH  19  22
ENDBRANCH   5  18
TORSDOF 4
