REMARK  Name = ZINC34876069
REMARK  7 active torsions:
REMARK  status: ('A' for Active; 'I' for Inactive)
REMARK    1  A    between atoms: C_1  and  O_2
REMARK    2  A    between atoms: O_2  and  C_3
REMARK    3  A    between atoms: C_6  and  C_9
REMARK    4  A    between atoms: N_15  and  C_22
REMARK    5  A    between atoms: C_17  and  C_18
REMARK    6  A    between atoms: C_29  and  N_33
REMARK    7  A    between atoms: C_30  and  C_31
REMARK                            x       y       z     vdW  Elec       q    Type
REMARK                         _______ _______ _______ _____ _____    ______ ____
ROOT
ATOM      1  C   UNL     1       2.587  -2.550   4.310  0.00  0.00    +0.079 C 
ATOM      2  C   UNL     1       3.740  -3.352   3.780  0.00  0.00    +0.118 C 
ATOM      3  C   UNL     1       3.362  -4.758   3.285  0.00  0.00    +0.294 C 
ATOM      4  N   UNL     1       4.688  -5.429   3.458  0.00  0.00    -0.185 N 
ATOM      5  N   UNL     1       5.319  -4.777   4.528  0.00  0.00    -0.176 NA
ATOM      6  C   UNL     1       4.845  -3.624   4.758  0.00  0.00    +0.148 C 
ATOM      7  O   UNL     1       2.482  -5.404   4.206  0.00  0.00    -0.455 OA
ATOM      8  C   UNL     1       1.563  -4.725   4.894  0.00  0.00    +0.194 C 
ATOM      9  C   UNL     1       1.589  -3.398   5.043  0.00  0.00    +0.094 C 
ENDROOT
BRANCH   1  13
ATOM     10  C   UNL     1       0.626  -0.618   1.042  0.00  0.00    +0.120 A 
ATOM     11  C   UNL     1       1.202   0.138   2.051  0.00  0.00    +0.046 A 
ATOM     12  C   UNL     1       1.835  -0.488   3.107  0.00  0.00    +0.008 A 
ATOM     13  C   UNL     1       1.895  -1.869   3.158  0.00  0.00    -0.038 A 
ATOM     14  C   UNL     1       1.322  -2.625   2.152  0.00  0.00    +0.008 A 
ATOM     15  C   UNL     1       0.682  -2.003   1.098  0.00  0.00    +0.046 A 
BRANCH  10  17
ATOM     16  C   UNL     1      -0.017   1.425   0.010  0.00  0.00    +0.277 C 
ATOM     17  O   UNL     1       0.002  -0.004   0.002  0.00  0.00    -0.495 OA
ENDBRANCH  10  17
ENDBRANCH   1  13
BRANCH   4  18
ATOM     18  C   UNL     1       5.195  -6.490   2.706  0.00  0.00    +0.055 A 
ATOM     19  C   UNL     1       4.445  -7.029   1.667  0.00  0.00    +0.025 A 
ATOM     20  C   UNL     1       4.950  -8.078   0.926  0.00  0.00    +0.002 A 
ATOM     21  C   UNL     1       6.200  -8.594   1.216  0.00  0.00    +0.000 A 
ATOM     22  C   UNL     1       6.949  -8.061   2.249  0.00  0.00    +0.002 A 
ATOM     23  C   UNL     1       6.453  -7.008   2.992  0.00  0.00    +0.025 A 
ENDBRANCH   4  18
BRANCH   6  24
ATOM     24  C   UNL     1       5.331  -2.683   5.829  0.00  0.00    +0.432 C 
ATOM     25  F   UNL     1       6.373  -3.286   6.543  0.00  0.00    -0.165 F 
ATOM     26  F   UNL     1       5.794  -1.502   5.238  0.00  0.00    -0.165 F 
ATOM     27  F   UNL     1       4.279  -2.386   6.702  0.00  0.00    -0.165 F 
ENDBRANCH   6  24
BRANCH   8  28
ATOM     28  N   UNL     1       0.563  -5.429   5.516  0.00  0.00    -0.329 N 
ATOM     29  H   UNL     1       0.536  -6.396   5.448  0.00  0.00    +0.145 HD
ATOM     30  H   UNL     1      -0.117  -4.959   6.023  0.00  0.00    +0.145 HD
ENDBRANCH   8  28
BRANCH   9  31
ATOM     31  C   UNL     1       0.617  -2.771   5.887  0.00  0.00    +0.100 C 
ATOM     32  N   UNL     1      -0.154  -2.273   6.556  0.00  0.00    -0.191 NA
ENDBRANCH   9  31
TORSDOF 6
