REMARK  Name = ZINC54163256
REMARK  8 active torsions:
REMARK  status: ('A' for Active; 'I' for Inactive)
REMARK    1  A    between atoms: C_1  and  C_2
REMARK    2  A    between atoms: C_2  and  C_3
REMARK    3  A    between atoms: C_3  and  C_5
REMARK    4  A    between atoms: C_3  and  N_10
REMARK    5  A    between atoms: C_5  and  C_6
REMARK    6  A    between atoms: N_7  and  O_8
REMARK    7  A    between atoms: C_11  and  C_13
REMARK    8  A    between atoms: C_17  and  C_22
REMARK                            x       y       z     vdW  Elec       q    Type
REMARK                         _______ _______ _______ _____ _____    ______ ____
ROOT
ATOM      1  N   UNL     1       2.125  -0.091  -1.209  0.00  0.00    -0.306 N 
ATOM      2  C   UNL     1       2.487   1.134  -1.640  0.00  0.00    +0.280 C 
ATOM      3  O   UNL     1       1.646   1.902  -2.067  0.00  0.00    -0.267 OA
ATOM      4  H   UNL     1       2.795  -0.703  -0.868  0.00  0.00    +0.149 HD
ENDROOT
BRANCH   2   5
ATOM      5  C   UNL     1       3.899   1.541  -1.592  0.00  0.00    +0.190 A 
ATOM      6  C   UNL     1       4.378   2.748  -1.992  0.00  0.00    +0.063 A 
ATOM      7  C   UNL     1       5.822   2.706  -1.764  0.00  0.00    +0.021 A 
ATOM      8  C   UNL     1       6.866   3.612  -1.965  0.00  0.00    +0.015 A 
ATOM      9  C   UNL     1       8.144   3.256  -1.639  0.00  0.00    -0.050 A 
ATOM     10  C   UNL     1       8.411   2.000  -1.111  0.00  0.00    +0.007 A 
ATOM     11  C   UNL     1       7.395   1.091  -0.906  0.00  0.00    +0.047 A 
ATOM     12  C   UNL     1       6.087   1.432  -1.229  0.00  0.00    +0.136 A 
ATOM     13  O   UNL     1       4.913   0.776  -1.139  0.00  0.00    -0.450 OA
ATOM     14  C   UNL     1       9.271   4.232  -1.855  0.00  0.00    +0.044 C 
ENDBRANCH   2   5
BRANCH   1  15
ATOM     15  C   UNL     1       0.718  -0.497  -1.257  0.00  0.00    +0.080 C 
BRANCH  15  17
ATOM     16  C   UNL     1      -0.019   1.526   0.010  0.00  0.00    +0.006 C 
ATOM     17  C   UNL     1       0.002  -0.004   0.002  0.00  0.00    +0.019 C 
ENDBRANCH  15  17
BRANCH  15  18
ATOM     18  C   UNL     1       0.630  -2.023  -1.329  0.00  0.00    +0.096 C 
BRANCH  18  19
ATOM     19  C   UNL     1       1.227  -2.500  -2.628  0.00  0.00    +0.133 C 
ATOM     20  N   UNL     1       1.708  -1.647  -3.470  0.00  0.00    -0.077 NA
ATOM     21  N   UNL     1       1.260  -3.846  -2.917  0.00  0.00    -0.344 N 
ATOM     22  H   UNL     1       0.899  -4.487  -2.285  0.00  0.00    +0.144 HD
ATOM     23  H   UNL     1       1.644  -4.153  -3.753  0.00  0.00    +0.144 HD
BRANCH  20  24
ATOM     24  O   UNL     1       2.268  -2.095  -4.690  0.00  0.00    -0.408 OA
ATOM     25  H   UNL     1       2.602  -1.384  -5.254  0.00  0.00    +0.328 HD
ENDBRANCH  20  24
ENDBRANCH  18  19
ENDBRANCH  15  18
ENDBRANCH   1  15
TORSDOF 6
