REMARK  Name = ZINC65135032
REMARK  9 active torsions:
REMARK  status: ('A' for Active; 'I' for Inactive)
REMARK    1  A    between atoms: C_1  and  C_2
REMARK    2  A    between atoms: C_2  and  C_3
REMARK    3  A    between atoms: C_2  and  C_4
REMARK    4  A    between atoms: C_4  and  C_5
REMARK    5  A    between atoms: C_5  and  N_6
REMARK    6  A    between atoms: N_9  and  N_10
REMARK    7  A    between atoms: C_11  and  C_13
REMARK    8  A    between atoms: C_18  and  S_19
REMARK    9  A    between atoms: S_19  and  N_22
REMARK                            x       y       z     vdW  Elec       q    Type
REMARK                         _______ _______ _______ _____ _____    ______ ____
ROOT
ATOM      1  N   UNL     1       1.726  -1.980   5.926  0.00  0.00    -0.229 N 
ATOM      2  C   UNL     1       2.543  -2.148   6.984  0.00  0.00    +0.262 C 
ATOM      3  O   UNL     1       2.221  -1.719   8.075  0.00  0.00    -0.269 OA
ATOM      4  H   UNL     1       1.983  -2.323   5.056  0.00  0.00    +0.173 HD
ENDROOT
BRANCH   1   8
ATOM      5  N   UNL     1       0.044  -1.619   3.816  0.00  0.00    -0.298 N 
ATOM      6  C   UNL     1      -0.312  -1.143   5.025  0.00  0.00    +0.316 C 
ATOM      7  O   UNL     1      -1.372  -0.562   5.161  0.00  0.00    -0.251 OA
ATOM      8  N   UNL     1       0.505  -1.311   6.083  0.00  0.00    -0.218 N 
ATOM      9  H   UNL     1       0.890  -2.082   3.707  0.00  0.00    +0.150 HD
ATOM     10  H   UNL     1       0.248  -0.969   6.954  0.00  0.00    +0.174 HD
BRANCH   5  11
ATOM     11  C   UNL     1      -0.844  -1.436   2.665  0.00  0.00    +0.106 C 
BRANCH  11  12
ATOM     12  C   UNL     1      -0.207  -2.064   1.424  0.00  0.00    +0.022 C 
BRANCH  12  14
ATOM     13  C   UNL     1      -1.257  -0.382  -0.096  0.00  0.00    +0.007 C 
ATOM     14  C   UNL     1      -1.135  -1.874   0.223  0.00  0.00    -0.016 C 
ATOM     15  C   UNL     1      -0.559  -2.608  -0.989  0.00  0.00    +0.007 C 
ENDBRANCH  12  14
ENDBRANCH  11  12
ENDBRANCH   5  11
ENDBRANCH   1   8
BRANCH   2  16
ATOM     16  C   UNL     1       3.831  -2.855   6.819  0.00  0.00    +0.064 A 
ATOM     17  C   UNL     1       4.269  -3.226   5.546  0.00  0.00    +0.015 A 
ATOM     18  C   UNL     1       5.472  -3.884   5.398  0.00  0.00    +0.001 A 
ATOM     19  C   UNL     1       6.245  -4.177   6.508  0.00  0.00    +0.002 A 
ATOM     20  C   UNL     1       5.817  -3.813   7.772  0.00  0.00    +0.029 A 
ATOM     21  C   UNL     1       4.618  -3.148   7.933  0.00  0.00    +0.118 A 
BRANCH  21  22
ATOM     22  S   UNL     1       4.079  -2.678   9.543  0.00  0.00    +0.062 S 
ATOM     23  O   UNL     1       4.395  -1.300   9.691  0.00  0.00    -0.153 OA
ATOM     24  O   UNL     1       2.756  -3.176   9.690  0.00  0.00    -0.153 OA
BRANCH  22  25
ATOM     25  N   UNL     1       5.018  -3.499  10.633  0.00  0.00    -0.177 NA
ATOM     26  C   UNL     1       4.706  -4.889  10.992  0.00  0.00    +0.109 C 
ATOM     27  C   UNL     1       5.957  -5.746  10.776  0.00  0.00    +0.017 C 
ATOM     28  C   UNL     1       7.126  -5.142  11.558  0.00  0.00    +0.003 C 
ATOM     29  C   UNL     1       7.412  -3.730  11.040  0.00  0.00    +0.017 C 
ATOM     30  C   UNL     1       6.181  -2.852  11.255  0.00  0.00    +0.109 C 
ENDBRANCH  22  25
ENDBRANCH  21  22
ENDBRANCH   2  16
TORSDOF 7
