REMARK  Name = ZINC28402848
REMARK  9 active torsions:
REMARK  status: ('A' for Active; 'I' for Inactive)
REMARK    1  A    between atoms: C_1  and  C_2
REMARK    2  A    between atoms: C_2  and  C_3
REMARK    3  A    between atoms: C_2  and  C_4
REMARK    4  A    between atoms: C_2  and  C_5
REMARK    5  A    between atoms: C_8  and  C_11
REMARK    6  A    between atoms: C_11  and  C_13
REMARK    7  A    between atoms: C_11  and  N_28
REMARK    8  A    between atoms: C_13  and  N_14
REMARK    9  A    between atoms: C_15  and  C_17
REMARK                            x       y       z     vdW  Elec       q    Type
REMARK                         _______ _______ _______ _____ _____    ______ ____
ROOT
ATOM      1  C   UNL     1      -0.105   0.970   2.427  0.00  0.00    -0.020 C 
ENDROOT
BRANCH   1   2
ATOM      2  N   UNL     1      -1.065   1.106   1.324  0.00  0.00    +0.385 N 
ATOM      3  C   UNL     1      -0.946   2.420   0.681  0.00  0.00    -0.078 C 
ATOM      4  C   UNL     1      -1.854   2.472  -0.550  0.00  0.00    -0.019 C 
ATOM      5  C   UNL     1      -3.303   2.224  -0.119  0.00  0.00    -0.004 C 
ATOM      6  C   UNL     1      -3.391   0.870   0.591  0.00  0.00    -0.019 C 
ATOM      7  C   UNL     1      -2.437   0.865   1.788  0.00  0.00    -0.078 C 
ATOM      8  H   UNL     1      -0.827   0.341   0.570  0.00  0.00    -0.081 HD
ENDBRANCH   1   2
BRANCH   1  12
ATOM      9  C   UNL     1      -1.898   2.342   6.053  0.00  0.00    -0.042 A 
ATOM     10  C   UNL     1      -1.465   1.033   5.948  0.00  0.00    +0.004 A 
ATOM     11  C   UNL     1      -0.885   0.589   4.774  0.00  0.00    +0.002 A 
ATOM     12  C   UNL     1      -0.738   1.454   3.706  0.00  0.00    -0.059 A 
ATOM     13  C   UNL     1      -1.165   2.764   3.813  0.00  0.00    +0.002 A 
ATOM     14  C   UNL     1      -1.750   3.207   4.985  0.00  0.00    +0.004 A 
BRANCH   9  16
ATOM     15  C   UNL     1      -1.535   2.672   8.484  0.00  0.00    +0.015 C 
ATOM     16  C   UNL     1      -2.530   2.826   7.332  0.00  0.00    -0.013 C 
ATOM     17  C   UNL     1      -2.916   4.299   7.185  0.00  0.00    +0.015 C 
ATOM     18  C   UNL     1      -3.783   1.998   7.627  0.00  0.00    +0.015 C 
ENDBRANCH   9  16
ENDBRANCH   1  12
BRANCH   1  19
ATOM     19  C   UNL     1       1.140   1.806   2.125  0.00  0.00    +0.094 C 
BRANCH  19  20
ATOM     20  N   UNL     1       1.681   1.423   0.819  0.00  0.00    -0.310 N 
ATOM     21  C   UNL     1       2.733   2.090   0.303  0.00  0.00    +0.279 C 
ATOM     22  O   UNL     1       3.233   3.008   0.922  0.00  0.00    -0.267 OA
ATOM     23  H   UNL     1       1.229   0.592   0.259  0.00  0.00    +0.149 HD
BRANCH  21  24
ATOM     24  C   UNL     1       3.281   1.702  -1.018  0.00  0.00    +0.193 A 
ATOM     25  C   UNL     1       4.338   2.389  -1.511  0.00  0.00    +0.103 A 
ATOM     26  C   UNL     1       4.883   2.006  -2.823  0.00  0.00    +0.193 A 
ATOM     27  O   UNL     1       5.833   2.588  -3.315  0.00  0.00    -0.287 OA
ATOM     28  C   UNL     1       4.223   0.881  -3.514  0.00  0.00    +0.064 A 
ATOM     29  C   UNL     1       4.661   0.440  -4.762  0.00  0.00    +0.015 A 
ATOM     30  C   UNL     1       4.025  -0.606  -5.372  0.00  0.00    +0.001 A 
ATOM     31  C   UNL     1       2.948  -1.228  -4.756  0.00  0.00    +0.004 A 
ATOM     32  C   UNL     1       2.501  -0.805  -3.523  0.00  0.00    +0.047 A 
ATOM     33  C   UNL     1       3.133   0.257  -2.884  0.00  0.00    +0.139 A 
ATOM     34  O   UNL     1       2.713   0.681  -1.676  0.00  0.00    -0.450 OA
ENDBRANCH  21  24
ENDBRANCH  19  20
ENDBRANCH   1  19
TORSDOF 6
