REMARK  Name = ZINC64046762
REMARK  7 active torsions:
REMARK  status: ('A' for Active; 'I' for Inactive)
REMARK    1  A    between atoms: C_4  and  C_7
REMARK    2  A    between atoms: C_7  and  C_9
REMARK    3  A    between atoms: C_7  and  N_20
REMARK    4  A    between atoms: C_9  and  C_11
REMARK    5  A    between atoms: N_20  and  C_21
REMARK    6  A    between atoms: C_25  and  S_27
REMARK    7  A    between atoms: S_27  and  N_30
REMARK                            x       y       z     vdW  Elec       q    Type
REMARK                         _______ _______ _______ _____ _____    ______ ____
ROOT
ATOM      1  C   UNL     1       3.711  -0.707  -0.038  0.00  0.00    +0.172 C 
ENDROOT
BRANCH   1   5
ATOM      2  C   UNL     1      -0.017   1.378   0.010  0.00  0.00    +0.000 A 
ATOM      3  C   UNL     1       1.171   2.086   0.002  0.00  0.00    +0.000 A 
ATOM      4  C   UNL     1       2.377   1.411  -0.013  0.00  0.00    +0.006 A 
ATOM      5  C   UNL     1       2.396   0.029  -0.020  0.00  0.00    -0.020 A 
ATOM      6  C   UNL     1       1.208  -0.679  -0.012  0.00  0.00    +0.006 A 
ATOM      7  C   UNL     1       0.002  -0.004   0.002  0.00  0.00    +0.000 A 
ENDBRANCH   1   5
BRANCH   1   8
ATOM      8  C   UNL     1       4.014  -1.161  -1.442  0.00  0.00    +0.186 C 
ATOM      9  O   UNL     1       3.797  -2.310  -1.770  0.00  0.00    -0.290 OA
BRANCH   8  10
ATOM     10  C   UNL     1       4.551  -0.250  -2.377  0.00  0.00    +0.025 C 
ATOM     11  C   UNL     1       4.879  -0.502  -3.697  0.00  0.00    +0.006 A 
ATOM     12  C   UNL     1       4.798  -1.662  -4.505  0.00  0.00    +0.010 A 
ATOM     13  C   UNL     1       5.198  -1.623  -5.795  0.00  0.00    +0.001 A 
ATOM     14  C   UNL     1       5.704  -0.457  -6.392  0.00  0.00    +0.002 A 
ATOM     15  C   UNL     1       5.823   0.702  -5.710  0.00  0.00    +0.026 A 
ATOM     16  C   UNL     1       5.409   0.747  -4.297  0.00  0.00    +0.043 A 
ATOM     17  N   UNL     1       5.414   1.709  -3.420  0.00  0.00    -0.380 N 
ATOM     18  C   UNL     1       4.884   1.208  -2.147  0.00  0.00    +0.152 C 
ATOM     19  H   UNL     1       5.717   2.615  -3.583  0.00  0.00    +0.160 HD
ENDBRANCH   8  10
ENDBRANCH   1   8
BRANCH   1  20
ATOM     20  N   UNL     1       3.630  -1.873   0.845  0.00  0.00    -0.330 N 
ATOM     21  H   UNL     1       3.403  -2.743   0.480  0.00  0.00    +0.147 HD
BRANCH  20  22
ATOM     22  C   UNL     1       3.880  -1.733   2.212  0.00  0.00    +0.030 A 
ATOM     23  C   UNL     1       4.199  -0.487   2.737  0.00  0.00    +0.023 A 
ATOM     24  C   UNL     1       4.445  -0.352   4.090  0.00  0.00    +0.004 A 
ATOM     25  C   UNL     1       4.373  -1.455   4.921  0.00  0.00    +0.028 A 
ATOM     26  C   UNL     1       4.056  -2.696   4.402  0.00  0.00    +0.107 A 
ATOM     27  C   UNL     1       3.803  -2.838   3.051  0.00  0.00    +0.051 A 
BRANCH  26  28
ATOM     28  S   UNL     1       3.968  -4.099   5.465  0.00  0.00    +0.056 S 
ATOM     29  O   UNL     1       4.188  -5.241   4.649  0.00  0.00    -0.153 OA
ATOM     30  O   UNL     1       4.776  -3.802   6.596  0.00  0.00    -0.153 OA
BRANCH  28  31
ATOM     31  N   UNL     1       2.408  -4.201   6.011  0.00  0.00    -0.204 NA
ATOM     32  H   UNL     1       1.750  -3.547   5.727  0.00  0.00    +0.144 HD
ATOM     33  H   UNL     1       2.152  -4.915   6.616  0.00  0.00    +0.144 HD
ENDBRANCH  28  31
ENDBRANCH  26  28
ENDBRANCH  20  22
ENDBRANCH   1  20
TORSDOF 7
