REMARK  Name = ZINC00822556
REMARK  7 active torsions:
REMARK  status: ('A' for Active; 'I' for Inactive)
REMARK    1  A    between atoms: C_1  and  C_2
REMARK    2  A    between atoms: C_2  and  O_3
REMARK    3  A    between atoms: O_3  and  C_4
REMARK    4  A    between atoms: C_6  and  C_11
REMARK    5  A    between atoms: C_9  and  O_10
REMARK    6  A    between atoms: C_23  and  S_26
REMARK    7  A    between atoms: S_26  and  C_27
REMARK                            x       y       z     vdW  Elec       q    Type
REMARK                         _______ _______ _______ _____ _____    ______ ____
ROOT
ATOM      1  C   UNL     1       5.106   3.325  -0.024  0.00  0.00    +0.294 C 
ATOM      2  N   UNL     1       5.196   4.276   1.079  0.00  0.00    -0.305 N 
ATOM      3  C   UNL     1       5.373   3.785   2.377  0.00  0.00    +0.039 A 
ATOM      4  C   UNL     1       4.368   3.873   3.323  0.00  0.00    +0.024 A 
ATOM      5  C   UNL     1       4.568   3.354   4.589  0.00  0.00    +0.002 A 
ATOM      6  C   UNL     1       5.768   2.747   4.917  0.00  0.00    +0.001 A 
ATOM      7  C   UNL     1       6.784   2.659   3.985  0.00  0.00    +0.012 A 
ATOM      8  C   UNL     1       6.599   3.182   2.711  0.00  0.00    +0.028 A 
ATOM      9  C   UNL     1       7.664   3.124   1.688  0.00  0.00    +0.156 A 
ATOM     10  C   UNL     1       7.354   2.681   0.381  0.00  0.00    +0.248 A 
ATOM     11  N   UNL     1       8.318   2.647  -0.523  0.00  0.00    -0.184 NA
ATOM     12  C   UNL     1       9.546   3.024  -0.179  0.00  0.00    +0.212 A 
ATOM     13  N   UNL     1       9.818   3.432   1.054  0.00  0.00    -0.122 NA
ATOM     14  N   UNL     1       8.908   3.483   1.966  0.00  0.00    -0.141 NA
ATOM     15  O   UNL     1       6.090   2.301   0.080  0.00  0.00    -0.449 OA
ATOM     16  H   UNL     1       5.133   5.230   0.916  0.00  0.00    +0.150 HD
ENDROOT
BRANCH   1  19
ATOM     17  C   UNL     1       2.335   0.778  -0.347  0.00  0.00    +0.162 A 
ATOM     18  C   UNL     1       3.593   1.360  -0.352  0.00  0.00    +0.058 A 
ATOM     19  C   UNL     1       3.738   2.693  -0.018  0.00  0.00    +0.015 A 
ATOM     20  C   UNL     1       2.631   3.449   0.321  0.00  0.00    +0.013 A 
ATOM     21  C   UNL     1       1.373   2.876   0.322  0.00  0.00    +0.049 A 
ATOM     22  C   UNL     1       1.221   1.538  -0.006  0.00  0.00    +0.158 A 
BRANCH  22  23
ATOM     23  O   UNL     1      -0.015   0.971   0.001  0.00  0.00    -0.503 OA
ATOM     24  H   UNL     1      -0.266   0.584   0.850  0.00  0.00    +0.292 HD
ENDBRANCH  22  23
BRANCH  17  25
ATOM     25  O   UNL     1       2.191  -0.534  -0.675  0.00  0.00    -0.489 OA
BRANCH  25  27
ATOM     26  C   UNL     1       3.019  -2.702  -1.351  0.00  0.00    +0.048 C 
ATOM     27  C   UNL     1       3.378  -1.253  -1.014  0.00  0.00    +0.226 C 
ENDBRANCH  25  27
ENDBRANCH  17  25
ENDBRANCH   1  19
BRANCH  12  28
ATOM     28  S   UNL     1      10.835   2.982  -1.381  0.00  0.00    -0.088 S 
ATOM     29  C   UNL     1      12.219   3.579  -0.379  0.00  0.00    +0.093 C 
ENDBRANCH  12  28
TORSDOF 5
