REMARK  Name = ZINC13460561
REMARK  8 active torsions:
REMARK  status: ('A' for Active; 'I' for Inactive)
REMARK    1  A    between atoms: C_1  and  C_2
REMARK    2  A    between atoms: C_2  and  O_3
REMARK    3  A    between atoms: O_3  and  C_4
REMARK    4  A    between atoms: C_4  and  C_6
REMARK    5  A    between atoms: C_7  and  C_29
REMARK    6  A    between atoms: N_8  and  C_22
REMARK    7  A    between atoms: C_12  and  C_14
REMARK    8  A    between atoms: C_17  and  C_20
REMARK                            x       y       z     vdW  Elec       q    Type
REMARK                         _______ _______ _______ _____ _____    ______ ____
ROOT
ATOM      1  C   UNL     1       0.860  -2.432  -3.028  0.00  0.00    +0.078 C 
ATOM      2  C   UNL     1       1.161  -3.744  -3.148  0.00  0.00    +0.027 C 
ATOM      3  N   UNL     1       2.329  -4.149  -3.728  0.00  0.00    -0.255 N 
ATOM      4  C   UNL     1       3.248  -3.305  -4.215  0.00  0.00    +0.142 C 
ATOM      5  S   UNL     1       4.671  -3.946  -4.918  0.00  0.00    -0.018 S 
ATOM      6  N   UNL     1       3.089  -1.967  -4.168  0.00  0.00    -0.315 N 
ATOM      7  C   UNL     1       1.859  -1.427  -3.566  0.00  0.00    +0.141 C 
ATOM      8  C   UNL     1       0.192  -4.777  -2.632  0.00  0.00    +0.062 C 
ATOM      9  H   UNL     1       3.768  -1.374  -4.527  0.00  0.00    +0.149 HD
ENDROOT
BRANCH   3  10
ATOM     10  C   UNL     1       2.579  -5.524  -3.821  0.00  0.00    +0.040 A 
ATOM     11  C   UNL     1       2.159  -6.234  -4.938  0.00  0.00    +0.025 A 
ATOM     12  C   UNL     1       2.412  -7.588  -5.030  0.00  0.00    +0.022 A 
ATOM     13  C   UNL     1       3.074  -8.240  -4.004  0.00  0.00    +0.041 A 
ATOM     14  C   UNL     1       3.489  -7.537  -2.888  0.00  0.00    +0.022 A 
ATOM     15  C   UNL     1       3.244  -6.181  -2.794  0.00  0.00    +0.025 A 
ATOM     16 CL   UNL     1       3.384  -9.945  -4.119  0.00  0.00    -0.084 Cl
ENDBRANCH   3  10
BRANCH   7  17
ATOM     17  C   UNL     1       2.262  -0.520  -2.432  0.00  0.00    -0.023 A 
ATOM     18  C   UNL     1       3.200  -0.947  -1.509  0.00  0.00    +0.006 A 
ATOM     19  C   UNL     1       3.578  -0.119  -0.472  0.00  0.00    +0.015 A 
ATOM     20  C   UNL     1       3.002   1.147  -0.348  0.00  0.00    +0.063 A 
ATOM     21  C   UNL     1       2.051   1.568  -1.279  0.00  0.00    +0.015 A 
ATOM     22  C   UNL     1       1.687   0.733  -2.315  0.00  0.00    +0.006 A 
BRANCH  20  23
ATOM     23  C   UNL     1       3.396   2.035   0.764  0.00  0.00    +0.387 C 
ATOM     24  O   UNL     1       2.893   3.136   0.870  0.00  0.00    -0.241 OA
ATOM     25  O   UNL     1       4.314   1.625   1.661  0.00  0.00    -0.241 OA
ENDBRANCH  20  23
ENDBRANCH   7  17
BRANCH   1  26
ATOM     26  C   UNL     1      -0.349  -2.011  -2.426  0.00  0.00    +0.339 C 
ATOM     27  O   UNL     1      -1.146  -2.836  -2.020  0.00  0.00    -0.245 OA
BRANCH  26  28
ATOM     28  O   UNL     1      -0.618  -0.694  -2.303  0.00  0.00    -0.462 OA
BRANCH  28  30
ATOM     29  C   UNL     1      -1.986   1.183  -1.635  0.00  0.00    +0.048 C 
ATOM     30  C   UNL     1      -1.858  -0.341  -1.686  0.00  0.00    +0.229 C 
ENDBRANCH  28  30
ENDBRANCH  26  28
ENDBRANCH   1  26
TORSDOF 6
