REMARK  Name = ZINC41308724
REMARK  10 active torsions:
REMARK  status: ('A' for Active; 'I' for Inactive)
REMARK    1  A    between atoms: C_1  and  C_2
REMARK    2  A    between atoms: C_3  and  C_14
REMARK    3  A    between atoms: C_5  and  C_7
REMARK    4  A    between atoms: C_14  and  C_15
REMARK    5  A    between atoms: N_17  and  C_18
REMARK    6  A    between atoms: C_18  and  C_19
REMARK    7  A    between atoms: C_19  and  C_21
REMARK    8  A    between atoms: C_19  and  N_26
REMARK    9  A    between atoms: N_26  and  C_27
REMARK   10  A    between atoms: N_26  and  C_28
REMARK                            x       y       z     vdW  Elec       q    Type
REMARK                         _______ _______ _______ _____ _____    ______ ____
ROOT
ATOM      1  C   UNL     1      -3.127  -0.266  -1.249  0.00  0.00    +0.219 C 
ATOM      2  O   UNL     1      -2.384  -0.636  -2.133  0.00  0.00    -0.275 OA
ATOM      3  N   UNL     1      -4.367   0.169  -1.548  0.00  0.00    -0.316 N 
ATOM      4  H   UNL     1      -4.961   0.465  -0.841  0.00  0.00    +0.149 HD
ENDROOT
BRANCH   1   5
ATOM      5  C   UNL     1      -2.663  -0.292   0.185  0.00  0.00    +0.154 C 
BRANCH   5   8
ATOM      6  C   UNL     1      -0.052   1.418   0.017  0.00  0.00    +0.088 C 
ATOM      7  C   UNL     1      -0.129  -0.078   0.175  0.00  0.00    +0.126 A 
ATOM      8  C   UNL     1      -1.252  -0.816   0.247  0.00  0.00    +0.091 A 
ATOM      9  N   UNL     1      -0.891  -2.101   0.385  0.00  0.00    -0.213 NA
ATOM     10  C   UNL     1       0.419  -2.170   0.399  0.00  0.00    +0.230 A 
ATOM     11  O   UNL     1       0.914  -0.927   0.265  0.00  0.00    -0.440 OA
BRANCH  10  12
ATOM     12  C   UNL     1       1.217  -3.407   0.533  0.00  0.00    +0.072 A 
ATOM     13  C   UNL     1       0.580  -4.643   0.654  0.00  0.00    +0.016 A 
ATOM     14  C   UNL     1       1.330  -5.793   0.779  0.00  0.00    +0.001 A 
ATOM     15  C   UNL     1       2.713  -5.726   0.785  0.00  0.00    +0.003 A 
ATOM     16  C   UNL     1       3.353  -4.506   0.666  0.00  0.00    +0.039 A 
ATOM     17  C   UNL     1       2.614  -3.345   0.534  0.00  0.00    +0.136 A 
ATOM     18  F   UNL     1       3.239  -2.154   0.412  0.00  0.00    -0.205 F 
ENDBRANCH  10  12
ENDBRANCH   5   8
ENDBRANCH   1   5
BRANCH   3  19
ATOM     19  C   UNL     1      -4.817   0.194  -2.942  0.00  0.00    +0.094 C 
BRANCH  19  20
ATOM     20  C   UNL     1      -6.287   0.618  -2.995  0.00  0.00    -0.014 C 
BRANCH  20  21
ATOM     21  C   UNL     1      -6.420   2.033  -2.495  0.00  0.00    -0.022 A 
ATOM     22  C   UNL     1      -6.808   2.473  -1.273  0.00  0.00    +0.009 A 
ATOM     23  C   UNL     1      -6.856   3.834  -1.035  0.00  0.00    +0.008 A 
ATOM     24  C   UNL     1      -6.514   4.688  -2.031  0.00  0.00    +0.045 A 
ATOM     25  S   UNL     1      -6.101   3.564  -3.355  0.00  0.00    -0.103 S 
ENDBRANCH  20  21
BRANCH  20  26
ATOM     26  N   UNL     1      -6.768   0.541  -4.381  0.00  0.00    +0.382 N 
ATOM     27  C   UNL     1      -6.670  -0.845  -4.858  0.00  0.00    -0.096 C 
ATOM     28  C   UNL     1      -8.169   0.980  -4.438  0.00  0.00    -0.096 C 
ATOM     29  H   UNL     1      -6.205   1.139  -4.967  0.00  0.00    -0.082 HD
ENDBRANCH  20  26
ENDBRANCH  19  20
ENDBRANCH   3  19
TORSDOF 7
