REMARK  Name = ZINC11936577
REMARK  6 active torsions:
REMARK  status: ('A' for Active; 'I' for Inactive)
REMARK    1  A    between atoms: C_8  and  C_10
REMARK    2  A    between atoms: C_11  and  C_16
REMARK    3  A    between atoms: C_16  and  N_48
REMARK    4  A    between atoms: C_17  and  C_18
REMARK    5  A    between atoms: C_17  and  N_48
REMARK    6  A    between atoms: C_18  and  C_19
REMARK                            x       y       z     vdW  Elec       q    Type
REMARK                         _______ _______ _______ _____ _____    ______ ____
ROOT
ATOM      1  C   UNL     1      -0.630   7.949   1.525  0.00  0.00    -0.043 C 
ENDROOT
BRANCH   1   3
ATOM      2  C   UNL     1      -2.346   6.657   0.059  0.00  0.00    +0.129 A 
ATOM      3  C   UNL     1      -1.894   7.821   0.715  0.00  0.00    -0.016 A 
ATOM      4  C   UNL     1      -2.795   8.800   0.487  0.00  0.00    +0.107 A 
ATOM      5  N   UNL     1      -3.783   8.289  -0.281  0.00  0.00    -0.284 N 
ATOM      6  H   UNL     1      -4.589   8.784  -0.605  0.00  0.00    +0.188 HD
ATOM      7  N   UNL     1      -3.481   6.947  -0.544  0.00  0.00    -0.171 NA
BRANCH   2  15
ATOM      8  C   UNL     1      -0.013   1.076   0.008  0.00  0.00    +0.001 A 
ATOM      9  C   UNL     1       1.182   1.782   0.000  0.00  0.00    +0.004 A 
ATOM     10  C   UNL     1       1.185   3.160   0.007  0.00  0.00    +0.047 A 
ATOM     11  C   UNL     1      -0.018   3.855   0.021  0.00  0.00    +0.136 A 
ATOM     12  C   UNL     1      -1.225   3.134   0.030  0.00  0.00    +0.021 A 
ATOM     13  C   UNL     1      -1.208   1.739   0.017  0.00  0.00    +0.011 A 
ATOM     14  C   UNL     1      -2.287   4.143   0.045  0.00  0.00    +0.060 A 
ATOM     15  C   UNL     1      -1.663   5.345   0.045  0.00  0.00    +0.156 A 
ATOM     16  O   UNL     1      -0.328   5.167   0.031  0.00  0.00    -0.453 OA
ENDBRANCH   2  15
ENDBRANCH   1   3
BRANCH   1  17
ATOM     17  N   UNL     1       0.514   8.128   0.611  0.00  0.00    +0.382 N 
ATOM     18  H   UNL     1       0.371   8.977   0.052  0.00  0.00    -0.085 HD
ATOM     19  H   UNL     1       0.580   7.314  -0.012  0.00  0.00    -0.085 HD
BRANCH  17  20
ATOM     20  C   UNL     1       1.767   8.256   1.379  0.00  0.00    -0.078 C 
BRANCH  20  21
ATOM     21  C   UNL     1       2.934   8.440   0.406  0.00  0.00    +0.029 C 
BRANCH  21  22
ATOM     22  C   UNL     1       4.239   8.574   1.194  0.00  0.00    +0.209 C 
ATOM     23  C   UNL     1       5.423   8.664   0.223  0.00  0.00    +0.273 C 
ATOM     24  O   UNL     1       6.623   8.802   0.991  0.00  0.00    -0.485 OA
ATOM     25  C   UNL     1       6.599   9.710   2.005  0.00  0.00    +0.162 A 
ATOM     26  C   UNL     1       7.795  10.154   2.549  0.00  0.00    +0.049 A 
ATOM     27  C   UNL     1       7.787  11.073   3.582  0.00  0.00    +0.004 A 
ATOM     28  C   UNL     1       6.587  11.551   4.075  0.00  0.00    +0.004 A 
ATOM     29  C   UNL     1       5.392  11.114   3.536  0.00  0.00    +0.049 A 
ATOM     30  C   UNL     1       5.393  10.192   2.499  0.00  0.00    +0.162 A 
ATOM     31  O   UNL     1       4.209   9.773   1.977  0.00  0.00    -0.482 OA
ENDBRANCH  21  22
ENDBRANCH  20  21
ENDBRANCH  17  20
ENDBRANCH   1  17
TORSDOF 6
