REMARK  Name = ZINC03443669
REMARK  12 active torsions:
REMARK  status: ('A' for Active; 'I' for Inactive)
REMARK    1  A    between atoms: C_1  and  C_2
REMARK    2  A    between atoms: C_9  and  C_11
REMARK    3  A    between atoms: C_14  and  N_17
REMARK    4  A    between atoms: C_18  and  C_20
REMARK    5  A    between atoms: C_20  and  O_21
REMARK    6  A    between atoms: O_21  and  C_22
REMARK    7  A    between atoms: C_22  and  C_24
REMARK    8  A    between atoms: C_24  and  S_25
REMARK    9  A    between atoms: S_25  and  C_26
REMARK   10  A    between atoms: C_26  and  C_27
REMARK   11  A    between atoms: C_28  and  C_33
REMARK   12  A    between atoms: C_31  and  C_32
REMARK                            x       y       z     vdW  Elec       q    Type
REMARK                         _______ _______ _______ _____ _____    ______ ____
ROOT
ATOM      1  N   UNL     1      -1.191   1.867   0.018  0.00  0.00    -0.283 N 
ATOM      2  C   UNL     1      -0.027   1.206   0.178  0.00  0.00    +0.255 C 
ATOM      3  O   UNL     1      -0.029   0.002   0.329  0.00  0.00    -0.272 OA
ATOM      4  H   UNL     1      -1.196   2.836  -0.026  0.00  0.00    +0.155 HD
ENDROOT
BRANCH   1   8
ATOM      5  C   UNL     1      -4.766  -0.252  -0.292  0.00  0.00    +0.007 A 
ATOM      6  C   UNL     1      -4.747   1.001   0.324  0.00  0.00    +0.012 A 
ATOM      7  C   UNL     1      -3.563   1.698   0.425  0.00  0.00    +0.024 A 
ATOM      8  C   UNL     1      -2.389   1.156  -0.086  0.00  0.00    +0.034 A 
ATOM      9  C   UNL     1      -2.406  -0.088  -0.705  0.00  0.00    +0.024 A 
ATOM     10  C   UNL     1      -3.586  -0.794  -0.804  0.00  0.00    +0.012 A 
BRANCH   5  19
ATOM     11  C   UNL     1     -11.471  -4.302  -0.916  0.00  0.00    +0.044 C 
ATOM     12  C   UNL     1     -10.362  -3.314  -0.657  0.00  0.00    -0.049 A 
ATOM     13  C   UNL     1     -10.628  -2.116  -0.009  0.00  0.00    +0.005 A 
ATOM     14  C   UNL     1      -9.649  -1.206   0.240  0.00  0.00    +0.029 A 
ATOM     15  C   UNL     1      -8.312  -1.452  -0.157  0.00  0.00    +0.079 A 
ATOM     16  C   UNL     1      -8.073  -2.681  -0.816  0.00  0.00    +0.040 A 
ATOM     17  C   UNL     1      -9.070  -3.594  -1.062  0.00  0.00    +0.020 A 
ATOM     18  S   UNL     1      -6.328  -2.606  -1.137  0.00  0.00    -0.067 S 
ATOM     19  C   UNL     1      -6.035  -1.003  -0.403  0.00  0.00    +0.109 A 
ATOM     20  N   UNL     1      -7.234  -0.664   0.018  0.00  0.00    -0.239 NA
ENDBRANCH   5  19
ENDBRANCH   1   8
BRANCH   2  21
ATOM     21  C   UNL     1       1.277   1.961   0.165  0.00  0.00    +0.328 C 
BRANCH  21  22
ATOM     22  O   UNL     1       2.377   1.031   0.349  0.00  0.00    -0.455 OA
BRANCH  22  23
ATOM     23  C   UNL     1       3.616   1.547   0.362  0.00  0.00    +0.317 C 
ATOM     24  O   UNL     1       3.776   2.737   0.223  0.00  0.00    -0.250 OA
BRANCH  23  25
ATOM     25  C   UNL     1       4.807   0.643   0.549  0.00  0.00    +0.189 C 
BRANCH  25  26
ATOM     26  S   UNL     1       6.327   1.633   0.519  0.00  0.00    -0.145 S 
BRANCH  26  27
ATOM     27  C   UNL     1       7.649   0.413   0.754  0.00  0.00    +0.110 C 
BRANCH  27  28
ATOM     28  C   UNL     1       8.984   1.112   0.749  0.00  0.00    +0.027 A 
ATOM     29  C   UNL     1       9.687   1.654   1.850  0.00  0.00    +0.085 A 
ATOM     30  N   UNL     1      10.789   2.155   1.371  0.00  0.00    -0.083 NA
ATOM     31  O   UNL     1      10.863   2.005   0.174  0.00  0.00    -0.359 OA
ATOM     32  C   UNL     1       9.791   1.361  -0.309  0.00  0.00    +0.138 A 
ATOM     33  C   UNL     1       9.534   0.990  -1.747  0.00  0.00    +0.089 C 
ATOM     34  C   UNL     1       9.248   1.651   3.292  0.00  0.00    +0.069 C 
ENDBRANCH  27  28
ENDBRANCH  26  27
ENDBRANCH  25  26
ENDBRANCH  23  25
ENDBRANCH  22  23
ENDBRANCH  21  22
ENDBRANCH   2  21
TORSDOF 9
