REMARK  Name = ZINC67342241
REMARK  4 active torsions:
REMARK  status: ('A' for Active; 'I' for Inactive)
REMARK    1  A    between atoms: C_4  and  N_17
REMARK    2  A    between atoms: C_5  and  C_7
REMARK    3  A    between atoms: C_7  and  N_8
REMARK    4  A    between atoms: C_9  and  C_11
REMARK                            x       y       z     vdW  Elec       q    Type
REMARK                         _______ _______ _______ _____ _____    ______ ____
ROOT
ATOM      1  C   UNL     1      -0.017   1.378   0.010  0.00  0.00    +0.000 A 
ATOM      2  C   UNL     1       1.170   2.089   0.002  0.00  0.00    +0.002 A 
ATOM      3  C   UNL     1       2.377   1.419  -0.013  0.00  0.00    +0.028 A 
ATOM      4  C   UNL     1       2.399   0.031  -0.021  0.00  0.00    +0.070 A 
ATOM      5  C   UNL     1       1.207  -0.680  -0.013  0.00  0.00    -0.005 A 
ATOM      6  C   UNL     1       0.002  -0.004   0.002  0.00  0.00    +0.007 A 
ENDROOT
BRANCH   4   7
ATOM      7  N   UNL     1       3.624  -0.652  -0.037  0.00  0.00    -0.240 N 
ATOM      8  C   UNL     1       4.851  -0.085  -0.042  0.00  0.00    +0.114 A 
ATOM      9  C   UNL     1       5.765  -1.083  -0.058  0.00  0.00    +0.041 A 
ATOM     10  C   UNL     1       5.075  -2.300  -0.064  0.00  0.00    +0.135 A 
ATOM     11  N   UNL     1       3.792  -2.043  -0.046  0.00  0.00    -0.175 NA
ENDBRANCH   4   7
BRANCH   5  12
ATOM     12  C   UNL     1       1.226  -2.187  -0.022  0.00  0.00    +0.142 C 
BRANCH  12  13
ATOM     13  N   UNL     1       1.486  -2.680   1.333  0.00  0.00    -0.307 N 
ATOM     14  C   UNL     1       1.549  -4.005   1.567  0.00  0.00    +0.252 C 
ATOM     15  O   UNL     1       1.389  -4.793   0.653  0.00  0.00    -0.270 OA
ATOM     16  H   UNL     1       1.613  -2.052   2.061  0.00  0.00    +0.149 HD
BRANCH  14  17
ATOM     17  C   UNL     1       1.809  -4.498   2.922  0.00  0.00    +0.088 A 
ATOM     18  C   UNL     1       1.917  -5.807   3.371  0.00  0.00    +0.037 A 
ATOM     19  C   UNL     1       2.168  -5.957   4.715  0.00  0.00    +0.023 A 
ATOM     20  C   UNL     1       2.290  -4.852   5.490  0.00  0.00    +0.047 A 
ATOM     21  S   UNL     1       2.076  -3.573   4.422  0.00  0.00    -0.091 S 
ATOM     22 BR   UNL     1       1.730  -7.288   2.210  0.00  0.00    -0.049 Br
ENDBRANCH  14  17
ENDBRANCH  12  13
ENDBRANCH   5  12
TORSDOF 4
