REMARK  Name = ZINC10000938
REMARK  11 active torsions:
REMARK  status: ('A' for Active; 'I' for Inactive)
REMARK    1  A    between atoms: C_1  and  C_2
REMARK    2  A    between atoms: C_2  and  C_3
REMARK    3  A    between atoms: C_2  and  C_4
REMARK    4  A    between atoms: C_4  and  C_6
REMARK    5  A    between atoms: C_4  and  N_21
REMARK    6  A    between atoms: N_8  and  N_9
REMARK    7  A    between atoms: C_10  and  C_11
REMARK    8  A    between atoms: C_15  and  O_18
REMARK    9  A    between atoms: C_16  and  O_17
REMARK   10  A    between atoms: O_18  and  C_19
REMARK   11  A    between atoms: C_22  and  C_24
REMARK                            x       y       z     vdW  Elec       q    Type
REMARK                         _______ _______ _______ _____ _____    ______ ____
ROOT
ATOM      1  C   UNL     1       3.432   6.311   0.002  0.00  0.00    +0.253 C 
ATOM      2  O   UNL     1       4.489   5.716  -0.011  0.00  0.00    -0.272 OA
ATOM      3  N   UNL     1       2.272   5.625   0.010  0.00  0.00    -0.205 N 
ATOM      4  H   UNL     1       1.427   6.102   0.020  0.00  0.00    +0.177 HD
ENDROOT
BRANCH   3   5
ATOM      5  N   UNL     1       2.286   4.224   0.002  0.00  0.00    -0.188 NA
ATOM      6  C   UNL     1       1.169   3.564   0.009  0.00  0.00    +0.142 C 
BRANCH   6   7
ATOM      7  C   UNL     1       1.185   2.090   0.002  0.00  0.00    +0.041 A 
ATOM      8  C   UNL     1      -0.017   1.375   0.010  0.00  0.00    +0.028 A 
ATOM      9  C   UNL     1       0.002  -0.004   0.002  0.00  0.00    +0.022 A 
ATOM     10  C   UNL     1       1.207  -0.687  -0.013  0.00  0.00    +0.064 A 
ATOM     11  C   UNL     1       2.405   0.010  -0.021  0.00  0.00    +0.163 A 
ATOM     12  C   UNL     1       2.402   1.400  -0.014  0.00  0.00    +0.167 A 
ATOM     13 BR   UNL     1      -1.625  -0.968   0.013  0.00  0.00    -0.050 Br
BRANCH  12  14
ATOM     14  O   UNL     1       3.575   2.085  -0.021  0.00  0.00    -0.503 OA
ATOM     15  H   UNL     1       3.907   2.288  -0.907  0.00  0.00    +0.292 HD
ENDBRANCH  12  14
BRANCH  11  16
ATOM     16  O   UNL     1       3.585  -0.667  -0.037  0.00  0.00    -0.491 OA
ATOM     17  C   UNL     1       3.514  -2.094  -0.044  0.00  0.00    +0.277 C 
ENDBRANCH  11  16
ENDBRANCH   6   7
ENDBRANCH   3   5
BRANCH   1  18
ATOM     18  C   UNL     1       3.416   7.818   0.010  0.00  0.00    +0.163 C 
BRANCH  18  19
ATOM     19  N   UNL     1       4.792   8.321  -0.000  0.00  0.00    -0.300 N 
ATOM     20  C   UNL     1       5.066   9.543   0.497  0.00  0.00    +0.245 C 
ATOM     21  O   UNL     1       4.172  10.229   0.953  0.00  0.00    -0.270 OA
ATOM     22  H   UNL     1       5.505   7.774  -0.365  0.00  0.00    +0.150 HD
BRANCH  20  23
ATOM     23  C   UNL     1       6.454  10.050   0.486  0.00  0.00    +0.037 A 
ATOM     24  C   UNL     1       7.484   9.263  -0.033  0.00  0.00    +0.016 A 
ATOM     25  C   UNL     1       8.776   9.744  -0.046  0.00  0.00    +0.039 A 
ATOM     26  C   UNL     1       9.056  11.001   0.466  0.00  0.00    +0.123 A 
ATOM     27  C   UNL     1       8.038  11.785   0.988  0.00  0.00    +0.039 A 
ATOM     28  C   UNL     1       6.741  11.317   1.000  0.00  0.00    +0.016 A 
ATOM     29  F   UNL     1      10.324  11.465   0.456  0.00  0.00    -0.205 F 
ENDBRANCH  20  23
ENDBRANCH  18  19
BRANCH  18  31
ATOM     30  C   UNL     1       2.662   9.857  -1.222  0.00  0.00    +0.009 C 
ATOM     31  C   UNL     1       2.678   8.327  -1.230  0.00  0.00    +0.012 C 
ATOM     32  C   UNL     1       3.393   7.831  -2.488  0.00  0.00    +0.009 C 
ENDBRANCH  18  31
ENDBRANCH   1  18
TORSDOF 8
