REMARK  Name = ZINC00262386
REMARK  6 active torsions:
REMARK  status: ('A' for Active; 'I' for Inactive)
REMARK    1  A    between atoms: C_1  and  C_2
REMARK    2  A    between atoms: C_2  and  C_22
REMARK    3  A    between atoms: C_3  and  N_10
REMARK    4  A    between atoms: N_5  and  N_9
REMARK    5  A    between atoms: N_10  and  O_21
REMARK    6  A    between atoms: N_13  and  C_14
REMARK                            x       y       z     vdW  Elec       q    Type
REMARK                         _______ _______ _______ _____ _____    ______ ____
ROOT
ATOM      1  N   UNL     1      -1.144   3.398   0.100  0.00  0.00    -0.144 N 
ATOM      2  C   UNL     1      -0.680   2.838   1.235  0.00  0.00    +0.331 C 
ATOM      3  O   UNL     1       0.071   1.884   1.179  0.00  0.00    -0.250 OA
ATOM      4  N   UNL     1      -1.049   3.336   2.432  0.00  0.00    -0.268 N 
ATOM      5  H   UNL     1      -1.708   4.046   2.479  0.00  0.00    +0.156 HD
ENDROOT
BRANCH   1   8
ATOM      6  C   UNL     1       1.175   4.111  -2.495  0.00  0.00    +0.026 C 
ATOM      7  C   UNL     1      -0.293   4.152  -2.067  0.00  0.00    +0.056 C 
ATOM      8  C   UNL     1      -0.658   2.929  -1.200  0.00  0.00    +0.224 C 
ATOM      9  N   UNL     1      -1.669   2.088  -1.797  0.00  0.00    -0.233 N 
ATOM     10  C   UNL     1      -2.206   2.397  -2.986  0.00  0.00    +0.125 C 
ATOM     11  S   UNL     1      -3.410   1.523  -3.834  0.00  0.00    -0.027 S 
ATOM     12  S   UNL     1      -1.407   3.903  -3.501  0.00  0.00    -0.092 S 
ATOM     13  C   UNL     1      -0.615   5.457  -1.337  0.00  0.00    +0.026 C 
BRANCH   9  14
ATOM     14  N   UNL     1      -2.087   0.966  -1.139  0.00  0.00    -0.251 NA
ATOM     15  H   UNL     1      -2.795   0.479  -1.669  0.00  0.00    +0.141 HD
ATOM     16  H   UNL     1      -1.309   0.358  -0.931  0.00  0.00    +0.141 HD
ENDBRANCH   9  14
ENDBRANCH   1   8
BRANCH   4  17
ATOM     17  C   UNL     1      -0.482   2.828   3.606  0.00  0.00    +0.036 A 
ATOM     18  C   UNL     1      -1.236   2.760   4.770  0.00  0.00    +0.023 A 
ATOM     19  C   UNL     1      -0.675   2.254   5.926  0.00  0.00    +0.003 A 
ATOM     20  C   UNL     1       0.639   1.824   5.929  0.00  0.00    +0.020 A 
ATOM     21  C   UNL     1       1.395   1.895   4.772  0.00  0.00    +0.043 A 
ATOM     22  C   UNL     1       0.838   2.396   3.611  0.00  0.00    +0.043 A 
ATOM     23 CL   UNL     1       3.045   1.356   4.780  0.00  0.00    -0.083 Cl
ENDBRANCH   4  17
BRANCH   1  24
ATOM     24  O   UNL     1      -2.101   4.440   0.165  0.00  0.00    -0.289 OA
ATOM     25  H   UNL     1      -2.303   4.734   1.063  0.00  0.00    +0.242 HD
ENDBRANCH   1  24
TORSDOF 4
