REMARK  Name = ZINC05501426
REMARK  6 active torsions:
REMARK  status: ('A' for Active; 'I' for Inactive)
REMARK    1  A    between atoms: C_1  and  C_2
REMARK    2  A    between atoms: C_3  and  C_20
REMARK    3  A    between atoms: C_15  and  C_16
REMARK    4  A    between atoms: C_15  and  C_17
REMARK    5  A    between atoms: C_17  and  C_18
REMARK    6  A    between atoms: C_18  and  O_19
REMARK                            x       y       z     vdW  Elec       q    Type
REMARK                         _______ _______ _______ _____ _____    ______ ____
ROOT
ATOM      1  C   UNL     1      -2.508   1.343  -0.038  0.00  0.00    +0.041 C 
ATOM      2  C   UNL     1      -1.201   2.092  -0.010  0.00  0.00    -0.037 C 
ATOM      3  C   UNL     1      -0.028   1.434  -0.018  0.00  0.00    +0.094 C 
ATOM      4  C   UNL     1       1.257   2.168   0.004  0.00  0.00    +0.159 A 
ATOM      5  N   UNL     1       2.487   1.699  -0.005  0.00  0.00    -0.226 NA
ATOM      6  C   UNL     1       3.374   2.722   0.021  0.00  0.00    +0.090 A 
ATOM      7  C   UNL     1       4.772   2.781   0.026  0.00  0.00    +0.030 A 
ATOM      8  C   UNL     1       5.404   4.003   0.056  0.00  0.00    +0.002 A 
ATOM      9  C   UNL     1       4.667   5.177   0.083  0.00  0.00    +0.002 A 
ATOM     10  C   UNL     1       3.288   5.137   0.080  0.00  0.00    +0.028 A 
ATOM     11  C   UNL     1       2.634   3.915   0.049  0.00  0.00    +0.077 A 
ATOM     12  N   UNL     1       1.296   3.540   0.037  0.00  0.00    -0.261 N 
ATOM     13  C   UNL     1       0.173   4.285   0.053  0.00  0.00    +0.243 C 
ATOM     14  O   UNL     1       0.245   5.495   0.082  0.00  0.00    -0.271 OA
ATOM     15  C   UNL     1      -1.175   3.604   0.032  0.00  0.00    +0.071 C 
ATOM     16  C   UNL     1      -1.937   4.115  -1.192  0.00  0.00    +0.026 C 
ENDROOT
BRANCH   3  17
ATOM     17  C   UNL     1      -0.022   0.002  -0.053  0.00  0.00    +0.103 C 
ATOM     18  N   UNL     1      -0.018  -1.134  -0.081  0.00  0.00    -0.191 NA
ENDBRANCH   3  17
BRANCH  15  19
ATOM     19  C   UNL     1      -1.944   4.053   1.276  0.00  0.00    +0.048 C 
BRANCH  19  20
ATOM     20  C   UNL     1      -1.209   3.575   2.530  0.00  0.00    +0.157 C 
BRANCH  20  21
ATOM     21  O   UNL     1      -1.977   3.908   3.688  0.00  0.00    -0.395 OA
ATOM     22  H   UNL     1      -1.571   3.634   4.522  0.00  0.00    +0.209 HD
ENDBRANCH  20  21
ENDBRANCH  19  20
ENDBRANCH  15  19
TORSDOF 4
