REMARK  Name = ZINC61510613
REMARK  6 active torsions:
REMARK  status: ('A' for Active; 'I' for Inactive)
REMARK    1  A    between atoms: C_1  and  C_2
REMARK    2  A    between atoms: C_2  and  C_3
REMARK    3  A    between atoms: C_3  and  C_21
REMARK    4  A    between atoms: N_6  and  N_10
REMARK    5  A    between atoms: C_11  and  C_13
REMARK    6  A    between atoms: C_13  and  C_14
REMARK                            x       y       z     vdW  Elec       q    Type
REMARK                         _______ _______ _______ _____ _____    ______ ____
ROOT
ATOM      1  C   UNL     1      -1.365  -0.668  -0.251  0.00  0.00    +0.139 C 
ATOM      2  C   UNL     1      -2.159  -0.114  -1.418  0.00  0.00    +0.268 C 
ATOM      3  O   UNL     1      -1.936  -0.277  -2.598  0.00  0.00    -0.271 OA
ATOM      4  N   UNL     1      -3.164   0.597  -0.870  0.00  0.00    -0.137 N 
ATOM      5  C   UNL     1      -3.116   0.569   0.467  0.00  0.00    +0.327 C 
ATOM      6  O   UNL     1      -3.917   1.136   1.183  0.00  0.00    -0.251 OA
ATOM      7  N   UNL     1      -2.082  -0.157   0.929  0.00  0.00    -0.280 N 
ATOM      8  H   UNL     1      -1.854  -0.314   1.859  0.00  0.00    +0.152 HD
ENDROOT
BRANCH   1   9
ATOM      9  C   UNL     1      -1.375  -2.175  -0.267  0.00  0.00    -0.015 A 
ATOM     10  C   UNL     1      -0.354  -2.866  -0.891  0.00  0.00    +0.006 A 
ATOM     11  C   UNL     1      -0.363  -4.249  -0.905  0.00  0.00    +0.000 A 
ATOM     12  C   UNL     1      -1.393  -4.939  -0.295  0.00  0.00    +0.000 A 
ATOM     13  C   UNL     1      -2.413  -4.248   0.331  0.00  0.00    +0.000 A 
ATOM     14  C   UNL     1      -2.402  -2.865   0.348  0.00  0.00    +0.006 A 
ENDBRANCH   1   9
BRANCH   4  15
ATOM     15  N   UNL     1      -4.138   1.280  -1.609  0.00  0.00    -0.224 N 
ATOM     16  C   UNL     1      -5.386   0.780  -1.704  0.00  0.00    +0.230 C 
ATOM     17  O   UNL     1      -5.666  -0.262  -1.149  0.00  0.00    -0.274 OA
ATOM     18  H   UNL     1      -3.915   2.114  -2.052  0.00  0.00    +0.174 HD
BRANCH  16  19
ATOM     19  C   UNL     1      -6.435   1.516  -2.498  0.00  0.00    +0.101 C 
BRANCH  19  20
ATOM     20  C   UNL     1      -7.752   0.740  -2.445  0.00  0.00    +0.001 C 
ATOM     21  C   UNL     1      -7.651  -0.553  -3.287  0.00  0.00    +0.007 C 
ATOM     22  C   UNL     1      -8.740  -0.391  -4.390  0.00  0.00    -0.010 C 
ATOM     23  C   UNL     1      -8.188   0.730  -5.323  0.00  0.00    +0.004 C 
ATOM     24  C   UNL     1      -8.290   2.023  -4.481  0.00  0.00    +0.004 C 
ATOM     25  C   UNL     1      -8.894   1.561  -3.120  0.00  0.00    -0.007 C 
ATOM     26  C   UNL     1      -9.839   0.403  -3.600  0.00  0.00    +0.007 C 
ENDBRANCH  19  20
ENDBRANCH  16  19
ENDBRANCH   4  15
BRANCH   1  28
ATOM     27  C   UNL     1       0.055   1.387  -0.190  0.00  0.00    +0.007 C 
ATOM     28  C   UNL     1       0.071  -0.140  -0.279  0.00  0.00    +0.037 C 
ENDBRANCH   1  28
TORSDOF 5
