REMARK  Name = ZINC40760898
REMARK  9 active torsions:
REMARK  status: ('A' for Active; 'I' for Inactive)
REMARK    1  A    between atoms: C_1  and  C_2
REMARK    2  A    between atoms: C_2  and  C_29
REMARK    3  A    between atoms: C_4  and  N_10
REMARK    4  A    between atoms: C_6  and  C_8
REMARK    5  A    between atoms: C_6  and  C_9
REMARK    6  A    between atoms: C_12  and  N_28
REMARK    7  A    between atoms: C_13  and  N_17
REMARK    8  A    between atoms: N_17  and  C_18
REMARK    9  A    between atoms: C_21  and  C_24
REMARK                            x       y       z     vdW  Elec       q    Type
REMARK                         _______ _______ _______ _____ _____    ______ ____
ROOT
ATOM      1  N   UNL     1       2.856  -1.085  -2.415  0.00  0.00    -0.325 N 
ATOM      2  C   UNL     1       3.921  -0.445  -3.039  0.00  0.00    +0.145 A 
ATOM      3  C   UNL     1       4.440  -0.938  -4.238  0.00  0.00    +0.105 A 
ATOM      4  C   UNL     1       5.510  -0.258  -4.822  0.00  0.00    +0.149 A 
ATOM      5  N   UNL     1       5.990   0.827  -4.219  0.00  0.00    -0.219 NA
ATOM      6  C   UNL     1       5.471   1.259  -3.088  0.00  0.00    +0.225 A 
ATOM      7  N   UNL     1       4.457   0.650  -2.506  0.00  0.00    -0.219 NA
ATOM      8  H   UNL     1       2.471  -1.882  -2.810  0.00  0.00    +0.148 HD
ENDROOT
BRANCH   1  12
ATOM      9  C   UNL     1       0.006   1.023   0.199  0.00  0.00    -0.010 C 
ATOM     10  C   UNL     1       0.279  -0.481   0.304  0.00  0.00    -0.072 C 
ATOM     11  C   UNL     1       0.858  -0.994  -1.010  0.00  0.00    +0.009 C 
ATOM     12  C   UNL     1       2.315  -0.553  -1.158  0.00  0.00    +0.069 C 
ATOM     13  C   UNL     1       3.108  -1.128   0.015  0.00  0.00    +0.009 C 
ATOM     14  C   UNL     1       2.546  -0.617   1.338  0.00  0.00    -0.072 C 
ATOM     15  N   UNL     1       1.109  -0.788   1.456  0.00  0.00    +0.386 N 
ATOM     16  C   UNL     1       2.952   0.846   1.543  0.00  0.00    -0.010 C 
ATOM     17  C   UNL     1       3.212  -1.435   2.469  0.00  0.00    -0.010 C 
ATOM     18  C   UNL     1      -1.087  -1.177   0.509  0.00  0.00    -0.010 C 
ATOM     19  H   UNL     1       0.782  -0.222   2.246  0.00  0.00    -0.084 HD
ATOM     20  H   UNL     1       0.923  -1.756   1.736  0.00  0.00    -0.084 HD
ENDBRANCH   1  12
BRANCH   3  21
ATOM     21  N   UNL     1       3.902  -2.087  -4.839  0.00  0.00    -0.353 N 
ATOM     22  H   UNL     1       3.159  -2.550  -4.421  0.00  0.00    +0.143 HD
ATOM     23  H   UNL     1       4.273  -2.418  -5.671  0.00  0.00    +0.143 HD
ENDBRANCH   3  21
BRANCH   4  24
ATOM     24  N   UNL     1       6.065  -0.707  -6.015  0.00  0.00    -0.298 N 
ATOM     25  H   UNL     1       5.658  -1.447  -6.491  0.00  0.00    +0.154 HD
BRANCH  24  26
ATOM     26  C   UNL     1       7.210  -0.091  -6.528  0.00  0.00    +0.032 A 
ATOM     27  C   UNL     1       7.366   0.054  -7.901  0.00  0.00    +0.024 A 
ATOM     28  C   UNL     1       8.498   0.663  -8.405  0.00  0.00    +0.014 A 
ATOM     29  C   UNL     1       9.476   1.129  -7.545  0.00  0.00    +0.055 A 
ATOM     30  C   UNL     1       9.324   0.986  -6.178  0.00  0.00    +0.014 A 
ATOM     31  C   UNL     1       8.191   0.383  -5.667  0.00  0.00    +0.024 A 
BRANCH  29  32
ATOM     32  C   UNL     1      10.711   1.792  -8.098  0.00  0.00    +0.417 C 
ATOM     33  F   UNL     1      10.488   3.168  -8.215  0.00  0.00    -0.166 F 
ATOM     34  F   UNL     1      11.788   1.566  -7.235  0.00  0.00    -0.166 F 
ATOM     35  F   UNL     1      11.002   1.258  -9.358  0.00  0.00    -0.166 F 
ENDBRANCH  29  32
ENDBRANCH  24  26
ENDBRANCH   4  24
TORSDOF 5
