REMARK  Name = ZINC65139349
REMARK  10 active torsions:
REMARK  status: ('A' for Active; 'I' for Inactive)
REMARK    1  A    between atoms: C_1  and  C_2
REMARK    2  A    between atoms: C_2  and  C_3
REMARK    3  A    between atoms: C_3  and  C_4
REMARK    4  A    between atoms: C_3  and  N_5
REMARK    5  A    between atoms: C_6  and  C_8
REMARK    6  A    between atoms: C_11  and  N_14
REMARK    7  A    between atoms: C_15  and  C_17
REMARK    8  A    between atoms: C_18  and  C_28
REMARK    9  A    between atoms: C_23  and  C_27
REMARK   10  A    between atoms: C_25  and  C_26
REMARK                            x       y       z     vdW  Elec       q    Type
REMARK                         _______ _______ _______ _____ _____    ______ ____
ROOT
ATOM      1  N   UNL     1      -5.919   1.379   6.185  0.00  0.00    -0.281 N 
ATOM      2  C   UNL     1      -5.404   0.959   7.358  0.00  0.00    +0.254 C 
ATOM      3  O   UNL     1      -4.350   0.349   7.376  0.00  0.00    -0.270 OA
ATOM      4  H   UNL     1      -6.723   1.922   6.176  0.00  0.00    +0.155 HD
ENDROOT
BRANCH   2   5
ATOM      5  C   UNL     1      -6.111   1.238   8.611  0.00  0.00    +0.104 A 
ATOM      6  C   UNL     1      -7.073   0.420   9.229  0.00  0.00    +0.075 A 
ATOM      7  N   UNL     1      -7.476   1.002  10.327  0.00  0.00    -0.169 NA
ATOM      8  N   UNL     1      -6.805   2.219  10.485  0.00  0.00    -0.218 N 
ATOM      9  C   UNL     1      -5.952   2.373   9.429  0.00  0.00    +0.168 A 
ATOM     10  N   UNL     1      -5.177   3.454   9.329  0.00  0.00    -0.232 NA
ATOM     11  C   UNL     1      -5.213   4.397  10.245  0.00  0.00    +0.042 A 
ATOM     12  C   UNL     1      -6.071   4.275  11.344  0.00  0.00    +0.046 A 
ATOM     13  C   UNL     1      -6.868   3.181  11.448  0.00  0.00    +0.044 A 
ATOM     14  C   UNL     1      -7.799   3.025  12.623  0.00  0.00    +0.066 C 
ATOM     15  C   UNL     1      -4.329   5.610  10.111  0.00  0.00    +0.066 C 
ATOM     16  C   UNL     1      -7.561  -0.909   8.710  0.00  0.00    +0.068 C 
ENDBRANCH   2   5
BRANCH   1  20
ATOM     17  C   UNL     1      -4.061   0.343   2.605  0.00  0.00    +0.037 A 
ATOM     18  C   UNL     1      -3.293   0.597   3.744  0.00  0.00    +0.015 A 
ATOM     19  C   UNL     1      -3.910   0.939   4.926  0.00  0.00    +0.024 A 
ATOM     20  C   UNL     1      -5.298   1.032   4.987  0.00  0.00    +0.034 A 
ATOM     21  C   UNL     1      -6.065   0.780   3.854  0.00  0.00    +0.024 A 
ATOM     22  C   UNL     1      -5.454   0.444   2.668  0.00  0.00    +0.015 A 
BRANCH  17  24
ATOM     23  N   UNL     1      -2.060  -0.120   1.277  0.00  0.00    -0.309 N 
ATOM     24  C   UNL     1      -3.403  -0.024   1.336  0.00  0.00    +0.244 C 
ATOM     25  O   UNL     1      -4.072  -0.239   0.344  0.00  0.00    -0.270 OA
ATOM     26  H   UNL     1      -1.526   0.052   2.068  0.00  0.00    +0.149 HD
BRANCH  23  27
ATOM     27  C   UNL     1      -1.407  -0.484   0.017  0.00  0.00    +0.070 C 
ATOM     28  C   UNL     1      -1.375  -2.007  -0.119  0.00  0.00    +0.028 C 
BRANCH  27  30
ATOM     29  C   UNL     1      -0.010   1.588   0.020  0.00  0.00    +0.005 C 
ATOM     30  C   UNL     1       0.024   0.058   0.009  0.00  0.00    +0.018 C 
ENDBRANCH  27  30
ENDBRANCH  23  27
ENDBRANCH  17  24
ENDBRANCH   1  20
TORSDOF 5
