REMARK  Name = ZINC36043399
REMARK  13 active torsions:
REMARK  status: ('A' for Active; 'I' for Inactive)
REMARK    1  A    between atoms: C_1  and  C_2
REMARK    2  A    between atoms: C_5  and  S_8
REMARK    3  A    between atoms: S_8  and  N_11
REMARK    4  A    between atoms: N_11  and  C_12
REMARK    5  A    between atoms: C_12  and  C_14
REMARK    6  A    between atoms: C_12  and  C_15
REMARK    7  A    between atoms: C_19  and  O_36
REMARK    8  A    between atoms: C_20  and  O_34
REMARK    9  A    between atoms: N_25  and  C_26
REMARK   10  A    between atoms: C_26  and  C_27
REMARK   11  A    between atoms: C_32  and  C_33
REMARK   12  A    between atoms: O_34  and  C_35
REMARK   13  A    between atoms: O_36  and  C_37
REMARK                            x       y       z     vdW  Elec       q    Type
REMARK                         _______ _______ _______ _____ _____    ______ ____
ROOT
ATOM      1  C   UNL     1       5.085  -5.141   0.630  0.00  0.00    -0.018 C 
ATOM      2  C   UNL     1       5.589  -3.834   0.077  0.00  0.00    -0.053 A 
ATOM      3  C   UNL     1       5.624  -3.669  -1.300  0.00  0.00    +0.051 A 
ATOM      4  C   UNL     1       6.082  -2.486  -1.852  0.00  0.00    +0.162 A 
ATOM      5  C   UNL     1       6.511  -1.456  -1.019  0.00  0.00    +0.162 A 
ATOM      6  C   UNL     1       6.473  -1.625   0.354  0.00  0.00    +0.053 A 
ATOM      7  C   UNL     1       6.012  -2.812   0.901  0.00  0.00    -0.044 A 
ATOM      8  C   UNL     1       5.981  -2.950   2.402  0.00  0.00    +0.017 C 
ATOM      9  C   UNL     1       5.834  -4.424   2.784  0.00  0.00    -0.073 C 
ATOM     10  N   UNL     1       4.701  -4.990   2.037  0.00  0.00    +0.388 N 
ATOM     11  H   UNL     1       3.907  -4.372   2.106  0.00  0.00    -0.080 HD
ENDROOT
BRANCH   1  12
ATOM     12  C   UNL     1       3.868  -5.595  -0.179  0.00  0.00    +0.064 C 
ATOM     13  C   UNL     1       2.797  -4.503  -0.147  0.00  0.00    +0.024 C 
BRANCH  12  14
ATOM     14  N   UNL     1       3.327  -6.827   0.403  0.00  0.00    -0.188 NA
ATOM     15  H   UNL     1       2.909  -6.807   1.278  0.00  0.00    +0.148 HD
BRANCH  14  16
ATOM     16  S   UNL     1       3.431  -8.252  -0.433  0.00  0.00    +0.059 S 
ATOM     17  O   UNL     1       2.835  -8.023  -1.703  0.00  0.00    -0.153 OA
ATOM     18  O   UNL     1       2.980  -9.273   0.447  0.00  0.00    -0.153 OA
BRANCH  16  23
ATOM     19  C   UNL     1       9.285  -9.311  -1.442  0.00  0.00    +0.044 C 
ATOM     20  C   UNL     1       7.823  -9.046  -1.190  0.00  0.00    -0.050 A 
ATOM     21  C   UNL     1       7.248  -9.428   0.007  0.00  0.00    +0.005 A 
ATOM     22  C   UNL     1       5.907  -9.185   0.239  0.00  0.00    +0.029 A 
ATOM     23  C   UNL     1       5.141  -8.560  -0.728  0.00  0.00    +0.105 A 
ATOM     24  C   UNL     1       5.716  -8.178  -1.925  0.00  0.00    +0.029 A 
ATOM     25  C   UNL     1       7.058  -8.416  -2.154  0.00  0.00    +0.005 A 
ENDBRANCH  16  23
ENDBRANCH  14  16
ENDBRANCH  12  14
ENDBRANCH   1  12
BRANCH   5  26
ATOM     26  O   UNL     1       6.964  -0.290  -1.552  0.00  0.00    -0.491 OA
ATOM     27  C   UNL     1       7.387   0.721  -0.635  0.00  0.00    +0.277 C 
ENDBRANCH   5  26
BRANCH   4  28
ATOM     28  O   UNL     1       6.114  -2.330  -3.203  0.00  0.00    -0.491 OA
ATOM     29  C   UNL     1       5.557  -3.384  -3.991  0.00  0.00    +0.277 C 
ENDBRANCH   4  28
BRANCH  10  30
ATOM     30  C   UNL     1       4.353  -6.304   2.595  0.00  0.00    -0.042 C 
BRANCH  30  31
ATOM     31  C   UNL     1       4.950  -6.439   3.972  0.00  0.00    -0.061 A 
ATOM     32  C   UNL     1       6.175  -7.059   4.137  0.00  0.00    +0.002 A 
ATOM     33  C   UNL     1       6.722  -7.182   5.400  0.00  0.00    +0.000 A 
ATOM     34  C   UNL     1       6.045  -6.686   6.499  0.00  0.00    +0.000 A 
ATOM     35  C   UNL     1       4.821  -6.066   6.333  0.00  0.00    +0.003 A 
ATOM     36  C   UNL     1       4.275  -5.938   5.069  0.00  0.00    -0.049 A 
ATOM     37  C   UNL     1       2.943  -5.257   4.889  0.00  0.00    +0.044 C 
ENDBRANCH  30  31
ENDBRANCH  10  30
TORSDOF 8
