REMARK  Name = ZINC09935976
REMARK  11 active torsions:
REMARK  status: ('A' for Active; 'I' for Inactive)
REMARK    1  A    between atoms: C_1  and  C_2
REMARK    2  A    between atoms: C_3  and  S_25
REMARK    3  A    between atoms: N_9  and  C_12
REMARK    4  A    between atoms: C_12  and  C_13
REMARK    5  A    between atoms: N_15  and  C_16
REMARK    6  A    between atoms: C_19  and  C_22
REMARK    7  A    between atoms: C_22  and  C_23
REMARK    8  A    between atoms: C_22  and  C_24
REMARK    9  A    between atoms: S_25  and  N_28
REMARK   10  A    between atoms: C_30  and  C_37
REMARK   11  A    between atoms: C_33  and  C_36
REMARK                            x       y       z     vdW  Elec       q    Type
REMARK                         _______ _______ _______ _____ _____    ______ ____
ROOT
ATOM      1  C   UNL     1      -1.101   6.955  -3.123  0.00  0.00    +0.053 C 
ATOM      2  C   UNL     1      -1.874   5.797  -3.701  0.00  0.00    +0.016 A 
ATOM      3  C   UNL     1      -2.310   4.692  -3.076  0.00  0.00    +0.130 A 
ATOM      4  C   UNL     1      -3.048   3.696  -3.830  0.00  0.00    +0.099 A 
ATOM      5  C   UNL     1      -3.234   3.997  -5.191  0.00  0.00    +0.117 A 
ATOM      6  S   UNL     1      -2.427   5.566  -5.380  0.00  0.00    -0.072 S 
ATOM      7  N   UNL     1      -3.891   3.180  -6.008  0.00  0.00    -0.230 NA
ATOM      8  C   UNL     1      -4.394   2.055  -5.575  0.00  0.00    +0.203 A 
ATOM      9  N   UNL     1      -4.262   1.681  -4.276  0.00  0.00    -0.290 N 
ATOM     10  C   UNL     1      -3.611   2.454  -3.388  0.00  0.00    +0.264 A 
ATOM     11  O   UNL     1      -3.502   2.104  -2.225  0.00  0.00    -0.267 OA
ENDROOT
BRANCH   3  12
ATOM     12  S   UNL     1      -1.994   4.457  -1.358  0.00  0.00    +0.062 S 
ATOM     13  O   UNL     1      -0.972   5.377  -1.003  0.00  0.00    -0.153 OA
ATOM     14  O   UNL     1      -1.862   3.056  -1.157  0.00  0.00    -0.153 OA
BRANCH  12  15
ATOM     15  N   UNL     1      -3.357   4.925  -0.542  0.00  0.00    -0.176 NA
ATOM     16  C   UNL     1      -3.521   6.315  -0.095  0.00  0.00    +0.112 C 
ATOM     17  C   UNL     1      -3.826   6.317   1.407  0.00  0.00    +0.002 C 
ATOM     18  C   UNL     1      -5.037   5.423   1.678  0.00  0.00    +0.009 C 
ATOM     19  C   UNL     1      -4.720   3.987   1.252  0.00  0.00    +0.002 C 
ATOM     20  C   UNL     1      -4.425   3.959  -0.251  0.00  0.00    +0.112 C 
ATOM     21  C   UNL     1      -3.497   3.485   2.022  0.00  0.00    +0.009 C 
ATOM     22  C   UNL     1      -4.133   7.745   1.863  0.00  0.00    +0.009 C 
ENDBRANCH  12  15
ENDBRANCH   3  12
BRANCH   9  23
ATOM     23  C   UNL     1      -4.841   0.410  -3.833  0.00  0.00    +0.222 C 
BRANCH  23  24
ATOM     24  C   UNL     1      -3.824  -0.689  -3.996  0.00  0.00    +0.237 C 
ATOM     25  O   UNL     1      -2.723  -0.436  -4.438  0.00  0.00    -0.274 OA
ATOM     26  N   UNL     1      -4.137  -1.953  -3.649  0.00  0.00    -0.284 N 
ATOM     27  H   UNL     1      -5.040  -2.170  -3.369  0.00  0.00    +0.155 HD
BRANCH  26  28
ATOM     28  C   UNL     1      -3.159  -2.954  -3.695  0.00  0.00    +0.033 A 
ATOM     29  C   UNL     1      -3.509  -4.253  -4.041  0.00  0.00    +0.023 A 
ATOM     30  C   UNL     1      -2.540  -5.236  -4.092  0.00  0.00    +0.006 A 
ATOM     31  C   UNL     1      -1.226  -4.931  -3.786  0.00  0.00    -0.045 A 
ATOM     32  C   UNL     1      -0.876  -3.640  -3.436  0.00  0.00    +0.006 A 
ATOM     33  C   UNL     1      -1.839  -2.651  -3.389  0.00  0.00    +0.023 A 
BRANCH  31  34
ATOM     34  C   UNL     1      -0.174  -6.008  -3.836  0.00  0.00    +0.013 C 
ATOM     35  C   UNL     1      -0.535  -7.120  -2.849  0.00  0.00    +0.012 C 
ATOM     36  C   UNL     1      -0.101  -6.586  -5.251  0.00  0.00    +0.012 C 
ENDBRANCH  31  34
ENDBRANCH  26  28
ENDBRANCH  23  24
ENDBRANCH   9  23
TORSDOF 6
