REMARK  Name = ZINC64091224
REMARK  7 active torsions:
REMARK  status: ('A' for Active; 'I' for Inactive)
REMARK    1  A    between atoms: C_1  and  C_2
REMARK    2  A    between atoms: C_2  and  C_4
REMARK    3  A    between atoms: C_2  and  N_18
REMARK    4  A    between atoms: C_4  and  N_6
REMARK    5  A    between atoms: N_15  and  C_16
REMARK    6  A    between atoms: N_18  and  S_19
REMARK    7  A    between atoms: S_19  and  C_22
REMARK                            x       y       z     vdW  Elec       q    Type
REMARK                         _______ _______ _______ _____ _____    ______ ____
ROOT
ATOM      1  C   UNL     1       0.714  -0.478  -1.237  0.00  0.00    +0.257 C 
ATOM      2  O   UNL     1       1.718  -1.157  -1.138  0.00  0.00    -0.272 OA
ENDROOT
BRANCH   1   3
ATOM      3  N   UNL     1       0.237  -0.169  -2.439  0.00  0.00    -0.145 NA
ATOM      4  C   UNL     1       0.914  -0.513  -3.532  0.00  0.00    +0.201 A 
ATOM      5  N   UNL     1       2.037  -1.278  -3.554  0.00  0.00    -0.326 N 
ATOM      6  C   UNL     1       2.446  -1.414  -4.877  0.00  0.00    +0.067 A 
ATOM      7  C   UNL     1       3.509  -2.075  -5.476  0.00  0.00    +0.047 A 
ATOM      8  C   UNL     1       3.661  -2.030  -6.849  0.00  0.00    +0.043 A 
ATOM      9  C   UNL     1       2.756  -1.328  -7.629  0.00  0.00    +0.022 A 
ATOM     10  C   UNL     1       1.696  -0.667  -7.042  0.00  0.00    +0.029 A 
ATOM     11  C   UNL     1       1.534  -0.707  -5.664  0.00  0.00    +0.068 A 
ATOM     12  N   UNL     1       0.588  -0.160  -4.803  0.00  0.00    -0.315 N 
ATOM     13  C   UNL     1      -0.561   0.659  -5.199  0.00  0.00    +0.152 C 
ATOM     14 CL   UNL     1       4.991  -2.857  -7.598  0.00  0.00    -0.083 Cl
ATOM     15  H   UNL     1       2.478  -1.662  -2.781  0.00  0.00    +0.169 HD
ENDBRANCH   1   3
BRANCH   1  17
ATOM     16  C   UNL     1      -0.019   1.543  -0.002  0.00  0.00    +0.035 C 
ATOM     17  C   UNL     1       0.011   0.013   0.002  0.00  0.00    +0.161 C 
BRANCH  17  18
ATOM     18  N   UNL     1       0.728  -0.458   1.189  0.00  0.00    -0.178 NA
ATOM     19  H   UNL     1       1.695  -0.532   1.175  0.00  0.00    +0.149 HD
BRANCH  18  20
ATOM     20  S   UNL     1      -0.114  -0.866   2.556  0.00  0.00    +0.059 S 
ATOM     21  O   UNL     1       0.846  -1.304   3.508  0.00  0.00    -0.153 OA
ATOM     22  O   UNL     1      -1.010   0.206   2.816  0.00  0.00    -0.153 OA
BRANCH  20  23
ATOM     23  C   UNL     1      -1.105  -2.267   2.159  0.00  0.00    +0.105 A 
ATOM     24  C   UNL     1      -2.385  -2.091   1.666  0.00  0.00    +0.028 A 
ATOM     25  C   UNL     1      -3.163  -3.190   1.354  0.00  0.00    +0.002 A 
ATOM     26  C   UNL     1      -2.662  -4.465   1.536  0.00  0.00    +0.000 A 
ATOM     27  C   UNL     1      -1.382  -4.642   2.029  0.00  0.00    +0.002 A 
ATOM     28  C   UNL     1      -0.602  -3.542   2.336  0.00  0.00    +0.028 A 
ENDBRANCH  20  23
ENDBRANCH  18  20
ENDBRANCH  17  18
ENDBRANCH   1  17
TORSDOF 5
