REMARK  Name = ZINC39354238
REMARK  5 active torsions:
REMARK  status: ('A' for Active; 'I' for Inactive)
REMARK    1  A    between atoms: C_7  and  C_10
REMARK    2  A    between atoms: N_11  and  N_12
REMARK    3  A    between atoms: C_17  and  C_20
REMARK    4  A    between atoms: C_20  and  C_21
REMARK    5  A    between atoms: N_23  and  C_24
REMARK                            x       y       z     vdW  Elec       q    Type
REMARK                         _______ _______ _______ _____ _____    ______ ____
ROOT
ATOM      1  N   UNL     1       0.315  -5.363  -0.021  0.00  0.00    -0.127 NA
ATOM      2  C   UNL     1       0.792  -6.605  -0.038  0.00  0.00    +0.183 C 
ATOM      3  N   UNL     1       2.104  -6.983  -0.055  0.00  0.00    -0.263 N 
ATOM      4  C   UNL     1       2.477  -8.255  -0.071  0.00  0.00    +0.233 C 
ATOM      5  O   UNL     1       3.636  -8.610  -0.085  0.00  0.00    -0.274 OA
ATOM      6  C   UNL     1       1.304  -9.224  -0.068  0.00  0.00    +0.149 C 
ATOM      7  S   UNL     1      -0.096  -8.033  -0.036  0.00  0.00    -0.075 S 
ATOM      8  H   UNL     1       2.788  -6.295  -0.055  0.00  0.00    +0.157 HD
ENDROOT
BRANCH   1  10
ATOM      9  C   UNL     1       0.652  -3.126  -0.008  0.00  0.00    +0.141 C 
ATOM     10  N   UNL     1       1.126  -4.360  -0.025  0.00  0.00    -0.155 NA
BRANCH   9  17
ATOM     11  C   UNL     1      -0.068   1.351   0.037  0.00  0.00    +0.001 A 
ATOM     12  C   UNL     1       1.107   2.102   0.025  0.00  0.00    +0.002 A 
ATOM     13  C   UNL     1       2.331   1.515   0.002  0.00  0.00    +0.026 A 
ATOM     14  C   UNL     1       2.434   0.101  -0.010  0.00  0.00    +0.043 A 
ATOM     15  N   UNL     1       3.486  -0.697  -0.033  0.00  0.00    -0.380 N 
ATOM     16  C   UNL     1       3.038  -2.092  -0.036  0.00  0.00    +0.150 C 
ATOM     17  C   UNL     1       1.526  -2.046  -0.013  0.00  0.00    +0.000 C 
ATOM     18  C   UNL     1       1.192  -0.685   0.003  0.00  0.00    +0.004 A 
ATOM     19  C   UNL     1      -0.043  -0.009   0.026  0.00  0.00    +0.010 A 
ATOM     20  H   UNL     1       4.411  -0.405  -0.045  0.00  0.00    +0.160 HD
ENDBRANCH   9  17
ENDBRANCH   1  10
BRANCH   6  21
ATOM     21  C   UNL     1       1.286 -10.077  -1.338  0.00  0.00    +0.120 C 
BRANCH  21  22
ATOM     22  C   UNL     1       0.185 -11.102  -1.238  0.00  0.00    +0.219 C 
ATOM     23  O   UNL     1      -0.515 -11.146  -0.249  0.00  0.00    -0.275 OA
ATOM     24  N   UNL     1      -0.020 -11.970  -2.249  0.00  0.00    -0.285 N 
ATOM     25  H   UNL     1       0.495 -11.893  -3.067  0.00  0.00    +0.155 HD
BRANCH  24  26
ATOM     26  C   UNL     1      -0.977 -12.983  -2.117  0.00  0.00    +0.033 A 
ATOM     27  C   UNL     1      -0.754 -14.229  -2.688  0.00  0.00    +0.025 A 
ATOM     28  C   UNL     1      -1.700 -15.227  -2.557  0.00  0.00    +0.022 A 
ATOM     29  C   UNL     1      -2.869 -14.986  -1.856  0.00  0.00    +0.041 A 
ATOM     30  C   UNL     1      -3.094 -13.746  -1.286  0.00  0.00    +0.022 A 
ATOM     31  C   UNL     1      -2.149 -12.746  -1.410  0.00  0.00    +0.025 A 
ATOM     32 CL   UNL     1      -4.056 -16.243  -1.694  0.00  0.00    -0.084 Cl
ENDBRANCH  24  26
ENDBRANCH  21  22
ENDBRANCH   6  21
TORSDOF 5
