REMARK  Name = ZINC65912713
REMARK  6 active torsions:
REMARK  status: ('A' for Active; 'I' for Inactive)
REMARK    1  A    between atoms: C_1  and  C_2
REMARK    2  A    between atoms: C_3  and  C_26
REMARK    3  A    between atoms: C_9  and  C_12
REMARK    4  A    between atoms: N_14  and  C_15
REMARK    5  A    between atoms: C_15  and  C_16
REMARK    6  A    between atoms: C_18  and  C_21
REMARK                            x       y       z     vdW  Elec       q    Type
REMARK                         _______ _______ _______ _____ _____    ______ ____
ROOT
ATOM      1  C   UNL     1       0.069  -1.528   4.877  0.00  0.00    +0.244 C 
ATOM      2  O   UNL     1       0.058  -0.396   5.321  0.00  0.00    -0.270 OA
ATOM      3  N   UNL     1       0.091  -2.581   5.718  0.00  0.00    -0.303 N 
ATOM      4  H   UNL     1       0.100  -3.484   5.364  0.00  0.00    +0.150 HD
ENDROOT
BRANCH   1  13
ATOM      5  C   UNL     1      -0.018   1.503   0.010  0.00  0.00    +0.046 C 
ATOM      6  C   UNL     1       0.002  -0.004   0.002  0.00  0.00    -0.022 A 
ATOM      7  C   UNL     1       0.009  -0.797  -1.081  0.00  0.00    +0.017 A 
ATOM      8  N   UNL     1       0.028  -2.111  -0.697  0.00  0.00    -0.358 N 
ATOM      9  H   UNL     1       0.037  -2.868  -1.304  0.00  0.00    +0.166 HD
ATOM     10  C   UNL     1       0.035  -2.200   0.674  0.00  0.00    +0.047 A 
ATOM     11  C   UNL     1       0.025  -0.883   1.175  0.00  0.00    +0.004 A 
ATOM     12  C   UNL     1       0.035  -0.661   2.549  0.00  0.00    +0.023 A 
ATOM     13  C   UNL     1       0.058  -1.749   3.417  0.00  0.00    +0.037 A 
ATOM     14  C   UNL     1       0.071  -3.054   2.906  0.00  0.00    +0.015 A 
ATOM     15  C   UNL     1       0.054  -3.275   1.561  0.00  0.00    +0.027 A 
ATOM     16  C   UNL     1      -0.004  -0.313  -2.507  0.00  0.00    +0.063 C 
ENDBRANCH   1  13
BRANCH   3  17
ATOM     17  C   UNL     1       0.102  -2.362   7.166  0.00  0.00    +0.203 C 
BRANCH  17  18
ATOM     18  C   UNL     1       0.127  -3.691   7.875  0.00  0.00    +0.245 A 
ATOM     19  N   UNL     1       1.196  -4.345   8.227  0.00  0.00    -0.190 NA
ATOM     20  C   UNL     1       0.854  -5.495   8.839  0.00  0.00    +0.209 A 
ATOM     21  N   UNL     1      -0.456  -5.574   8.877  0.00  0.00    -0.055 NA
ATOM     22  O   UNL     1      -0.947  -4.396   8.254  0.00  0.00    -0.336 OA
BRANCH  20  23
ATOM     23  C   UNL     1       1.794  -6.499   9.378  0.00  0.00    +0.060 A 
ATOM     24  C   UNL     1       1.523  -7.687  10.004  0.00  0.00    +0.019 A 
ATOM     25  C   UNL     1       2.575  -8.469  10.425  0.00  0.00    +0.008 A 
ATOM     26  C   UNL     1       3.846  -8.040  10.208  0.00  0.00    +0.046 A 
ATOM     27  S   UNL     1       3.579  -6.484   9.375  0.00  0.00    -0.093 S 
ENDBRANCH  20  23
ENDBRANCH  17  18
ENDBRANCH   3  17
TORSDOF 4
