REMARK  Name = ZINC09102461
REMARK  11 active torsions:
REMARK  status: ('A' for Active; 'I' for Inactive)
REMARK    1  A    between atoms: C_1  and  C_2
REMARK    2  A    between atoms: C_2  and  C_4
REMARK    3  A    between atoms: C_2  and  N_59
REMARK    4  A    between atoms: C_7  and  S_16
REMARK    5  A    between atoms: N_8  and  C_9
REMARK    6  A    between atoms: S_16  and  C_17
REMARK    7  A    between atoms: C_17  and  C_19
REMARK    8  A    between atoms: C_17  and  C_20
REMARK    9  A    between atoms: N_22  and  C_23
REMARK   10  A    between atoms: C_33  and  N_59
REMARK   11  A    between atoms: C_34  and  N_59
REMARK                            x       y       z     vdW  Elec       q    Type
REMARK                         _______ _______ _______ _____ _____    ______ ____
ROOT
ATOM      1  C   UNL     1       3.576  13.956   1.527  0.00  0.00    +0.125 A 
ATOM      2  N   UNL     1       2.397  13.683   1.042  0.00  0.00    -0.135 NA
ATOM      3  N   UNL     1       2.306  12.428   0.783  0.00  0.00    -0.122 NA
ATOM      4  C   UNL     1       3.427  11.823   1.099  0.00  0.00    +0.197 A 
ATOM      5  N   UNL     1       4.276  12.780   1.582  0.00  0.00    -0.275 N 
ENDROOT
BRANCH   5   6
ATOM      6  C   UNL     1       5.590  12.596   2.037  0.00  0.00    +0.050 A 
ATOM      7  C   UNL     1       5.904  12.832   3.369  0.00  0.00    +0.028 A 
ATOM      8  C   UNL     1       7.197  12.646   3.816  0.00  0.00    +0.022 A 
ATOM      9  C   UNL     1       8.182  12.235   2.935  0.00  0.00    +0.041 A 
ATOM     10  C   UNL     1       7.873  12.004   1.606  0.00  0.00    +0.022 A 
ATOM     11  C   UNL     1       6.580  12.184   1.156  0.00  0.00    +0.028 A 
ATOM     12 CL   UNL     1       9.808  12.007   3.499  0.00  0.00    -0.084 Cl
ENDBRANCH   5   6
BRANCH   1  14
ATOM     13  C   UNL     1       4.395  16.149   0.710  0.00  0.00    -0.005 C 
ATOM     14  C   UNL     1       4.075  15.313   1.951  0.00  0.00    -0.003 C 
BRANCH  14  17
ATOM     15  C   UNL     1       2.639  15.172   3.895  0.00  0.00    -0.096 C 
ATOM     16  C   UNL     1       3.493  17.320   3.175  0.00  0.00    -0.096 C 
ATOM     17  N   UNL     1       3.017  15.994   2.727  0.00  0.00    +0.382 N 
ATOM     18  H   UNL     1       2.193  16.120   2.127  0.00  0.00    -0.082 HD
ENDBRANCH  14  17
ENDBRANCH   1  14
BRANCH   4  19
ATOM     19  S   UNL     1       3.775  10.104   0.927  0.00  0.00    -0.073 S 
BRANCH  19  20
ATOM     20  C   UNL     1       2.200   9.531   0.243  0.00  0.00    +0.137 C 
ATOM     21  C   UNL     1       1.989  10.151  -1.140  0.00  0.00    +0.029 C 
BRANCH  20  22
ATOM     22  C   UNL     1       2.221   8.029   0.122  0.00  0.00    +0.230 C 
ATOM     23  O   UNL     1       3.279   7.437   0.109  0.00  0.00    -0.274 OA
ATOM     24  N   UNL     1       1.064   7.345   0.028  0.00  0.00    -0.285 N 
ATOM     25  H   UNL     1       0.222   7.822  -0.039  0.00  0.00    +0.155 HD
BRANCH  24  26
ATOM     26  C   UNL     1       1.077   5.946   0.027  0.00  0.00    +0.034 A 
ATOM     27  C   UNL     1       2.039   5.262   0.780  0.00  0.00    +0.024 A 
ATOM     28  C   UNL     1       2.075   3.903   0.798  0.00  0.00    +0.010 A 
ATOM     29  C   UNL     1       1.138   3.167   0.052  0.00  0.00    -0.018 A 
ATOM     30  C   UNL     1       1.152   1.762   0.052  0.00  0.00    +0.008 A 
ATOM     31  C   UNL     1       0.230   1.079  -0.681  0.00  0.00    +0.001 A 
ATOM     32  C   UNL     1      -0.727   1.752  -1.438  0.00  0.00    +0.001 A 
ATOM     33  C   UNL     1      -0.775   3.112  -1.457  0.00  0.00    +0.008 A 
ATOM     34  C   UNL     1       0.160   3.852  -0.713  0.00  0.00    -0.016 A 
ATOM     35  C   UNL     1       0.144   5.256  -0.714  0.00  0.00    +0.031 A 
ENDBRANCH  24  26
ENDBRANCH  20  22
ENDBRANCH  19  20
ENDBRANCH   4  19
TORSDOF 7
