REMARK  Name = ZINC20707104
REMARK  7 active torsions:
REMARK  status: ('A' for Active; 'I' for Inactive)
REMARK    1  A    between atoms: C_1  and  C_2
REMARK    2  A    between atoms: C_2  and  C_3
REMARK    3  A    between atoms: C_2  and  N_4
REMARK    4  A    between atoms: N_4  and  S_5
REMARK    5  A    between atoms: S_5  and  C_8
REMARK    6  A    between atoms: C_21  and  C_24
REMARK    7  A    between atoms: C_29  and  O_30
REMARK                            x       y       z     vdW  Elec       q    Type
REMARK                         _______ _______ _______ _____ _____    ______ ____
ROOT
ATOM      1  C   UNL     1      -2.190  -0.006   3.807  0.00  0.00    +0.106 A 
ATOM      2  C   UNL     1      -0.948  -0.252   4.364  0.00  0.00    +0.030 A 
ATOM      3  C   UNL     1      -0.729  -0.009   5.705  0.00  0.00    +0.025 A 
ATOM      4  C   UNL     1      -1.756   0.474   6.507  0.00  0.00    +0.031 A 
ATOM      5  C   UNL     1      -3.007   0.729   5.935  0.00  0.00    -0.018 A 
ATOM      6  C   UNL     1      -3.216   0.481   4.595  0.00  0.00    +0.034 A 
ATOM      7  C   UNL     1      -4.060   1.282   6.814  0.00  0.00    +0.049 C 
ATOM      8  C   UNL     1      -5.520   1.102   6.550  0.00  0.00    -0.023 C 
ATOM      9  C   UNL     1      -6.168   1.041   7.708  0.00  0.00    -0.030 C 
ATOM     10  C   UNL     1      -5.179   1.167   8.868  0.00  0.00    +0.033 C 
ATOM     11  C   UNL     1      -3.884   0.652   8.227  0.00  0.00    +0.029 C 
ATOM     12  C   UNL     1      -2.577   1.211   8.761  0.00  0.00    +0.108 C 
ATOM     13  N   UNL     1      -1.522   0.676   7.873  0.00  0.00    -0.336 N 
ATOM     14  H   UNL     1      -0.531   0.429   8.282  0.00  0.00    +0.147 HD
ENDROOT
BRANCH  12  15
ATOM     15  C   UNL     1      -2.351   0.746  10.176  0.00  0.00    +0.014 A 
ATOM     16  C   UNL     1      -1.560  -0.360  10.423  0.00  0.00    +0.009 A 
ATOM     17  C   UNL     1      -1.351  -0.786  11.721  0.00  0.00    +0.001 A 
ATOM     18  C   UNL     1      -1.934  -0.109  12.776  0.00  0.00    +0.004 A 
ATOM     19  C   UNL     1      -2.727   0.997  12.535  0.00  0.00    +0.046 A 
ATOM     20  C   UNL     1      -2.932   1.430  11.233  0.00  0.00    +0.122 A 
BRANCH  20  21
ATOM     21  O   UNL     1      -3.707   2.521  10.993  0.00  0.00    -0.506 OA
ATOM     22  H   UNL     1      -4.167   3.064  11.832  0.00  0.00    +0.292 HD
ENDBRANCH  20  21
ENDBRANCH  12  15
BRANCH   1  23
ATOM     23  S   UNL     1      -2.466  -0.321   2.096  0.00  0.00    +0.059 S 
ATOM     24  O   UNL     1      -3.862  -0.531   1.942  0.00  0.00    -0.153 OA
ATOM     25  O   UNL     1      -1.502  -1.287   1.700  0.00  0.00    -0.153 OA
BRANCH  23  26
ATOM     26  N   UNL     1      -2.103   1.072   1.277  0.00  0.00    -0.187 NA
ATOM     27  H   UNL     1      -2.922   1.694   0.886  0.00  0.00    +0.148 HD
BRANCH  26  29
ATOM     28  C   UNL     1      -0.013   1.086   0.008  0.00  0.00    +0.025 C 
ATOM     29  C   UNL     1      -0.729   1.579   1.267  0.00  0.00    +0.070 C 
ATOM     30  C   UNL     1      -0.750   3.109   1.275  0.00  0.00    +0.025 C 
ENDBRANCH  26  29
ENDBRANCH  23  26
ENDBRANCH   1  23
TORSDOF 5
