REMARK  Name = ZINC14201547
REMARK  11 active torsions:
REMARK  status: ('A' for Active; 'I' for Inactive)
REMARK    1  A    between atoms: C_1  and  C_2
REMARK    2  A    between atoms: C_2  and  C_3
REMARK    3  A    between atoms: C_2  and  C_4
REMARK    4  A    between atoms: C_4  and  C_6
REMARK    5  A    between atoms: C_4  and  N_20
REMARK    6  A    between atoms: N_8  and  N_9
REMARK    7  A    between atoms: C_10  and  C_12
REMARK    8  A    between atoms: C_15  and  O_18
REMARK    9  A    between atoms: O_18  and  C_19
REMARK   10  A    between atoms: N_20  and  S_21
REMARK   11  A    between atoms: S_21  and  C_24
REMARK                            x       y       z     vdW  Elec       q    Type
REMARK                         _______ _______ _______ _____ _____    ______ ____
ROOT
ATOM      1  C   UNL     1       3.472  -5.112  -1.042  0.00  0.00    +0.248 C 
ATOM      2  O   UNL     1       4.351  -4.285  -1.165  0.00  0.00    -0.273 OA
ATOM      3  N   UNL     1       2.331  -4.993  -1.748  0.00  0.00    -0.233 N 
ATOM      4  H   UNL     1       1.657  -5.689  -1.702  0.00  0.00    +0.173 HD
ENDROOT
BRANCH   3   5
ATOM      5  N   UNL     1       2.118  -3.864  -2.550  0.00  0.00    -0.230 N 
ATOM      6  C   UNL     1       0.976  -3.745  -3.256  0.00  0.00    +0.260 C 
ATOM      7  O   UNL     1       0.132  -4.617  -3.198  0.00  0.00    -0.269 OA
ATOM      8  H   UNL     1       2.792  -3.168  -2.596  0.00  0.00    +0.173 HD
BRANCH   6   9
ATOM      9  C   UNL     1       0.752  -2.555  -4.101  0.00  0.00    +0.038 A 
ATOM     10  C   UNL     1      -0.431  -2.430  -4.834  0.00  0.00    +0.016 A 
ATOM     11  C   UNL     1      -0.637  -1.318  -5.621  0.00  0.00    +0.046 A 
ATOM     12  C   UNL     1       0.330  -0.322  -5.685  0.00  0.00    +0.120 A 
ATOM     13  C   UNL     1       1.508  -0.443  -4.957  0.00  0.00    +0.046 A 
ATOM     14  C   UNL     1       1.721  -1.551  -4.169  0.00  0.00    +0.016 A 
BRANCH  12  15
ATOM     15  O   UNL     1       0.123   0.772  -6.462  0.00  0.00    -0.495 OA
ATOM     16  C   UNL     1       1.158   1.758  -6.482  0.00  0.00    +0.277 C 
ENDBRANCH  12  15
ENDBRANCH   6   9
ENDBRANCH   3   5
BRANCH   1  17
ATOM     17  C   UNL     1       3.656  -6.272  -0.097  0.00  0.00    +0.166 C 
BRANCH  17  19
ATOM     18  C   UNL     1       3.049  -7.183   2.148  0.00  0.00    +0.009 C 
ATOM     19  C   UNL     1       2.980  -5.955   1.238  0.00  0.00    +0.010 C 
ATOM     20  C   UNL     1       3.698  -4.782   1.908  0.00  0.00    +0.009 C 
ENDBRANCH  17  19
BRANCH  17  21
ATOM     21  N   UNL     1       5.087  -6.501   0.122  0.00  0.00    -0.177 NA
ATOM     22  H   UNL     1       5.622  -5.828   0.572  0.00  0.00    +0.149 HD
BRANCH  21  23
ATOM     23  S   UNL     1       5.790  -7.907  -0.398  0.00  0.00    +0.065 S 
ATOM     24  O   UNL     1       7.173  -7.808  -0.089  0.00  0.00    -0.153 OA
ATOM     25  O   UNL     1       4.976  -8.969   0.081  0.00  0.00    -0.153 OA
BRANCH  23  26
ATOM     26  C   UNL     1       5.667  -7.932  -2.155  0.00  0.00    +0.142 A 
ATOM     27  C   UNL     1       6.536  -7.454  -3.079  0.00  0.00    +0.036 A 
ATOM     28  C   UNL     1       6.229  -7.586  -4.420  0.00  0.00    +0.010 A 
ATOM     29  C   UNL     1       5.068  -8.190  -4.772  0.00  0.00    +0.047 A 
ATOM     30  S   UNL     1       4.369  -8.602  -3.182  0.00  0.00    -0.077 S 
ENDBRANCH  23  26
ENDBRANCH  21  23
ENDBRANCH  17  21
ENDBRANCH   1  17
TORSDOF 8
