REMARK  Name = ZINC64509701
REMARK  7 active torsions:
REMARK  status: ('A' for Active; 'I' for Inactive)
REMARK    1  A    between atoms: C_1  and  C_2
REMARK    2  A    between atoms: C_2  and  C_3
REMARK    3  A    between atoms: C_2  and  N_22
REMARK    4  A    between atoms: N_5  and  C_6
REMARK    5  A    between atoms: C_11  and  N_12
REMARK    6  A    between atoms: N_12  and  S_13
REMARK    7  A    between atoms: S_13  and  C_16
REMARK                            x       y       z     vdW  Elec       q    Type
REMARK                         _______ _______ _______ _____ _____    ______ ____
ROOT
ATOM      1  C   UNL     1      -3.623  -0.522   0.994  0.00  0.00    +0.056 A 
ATOM      2  C   UNL     1      -4.133  -1.325  -0.015  0.00  0.00    +0.025 A 
ATOM      3  C   UNL     1      -5.441  -1.767   0.048  0.00  0.00    +0.002 A 
ATOM      4  C   UNL     1      -6.245  -1.411   1.115  0.00  0.00    +0.002 A 
ATOM      5  C   UNL     1      -5.745  -0.611   2.125  0.00  0.00    +0.026 A 
ATOM      6  C   UNL     1      -4.432  -0.167   2.073  0.00  0.00    +0.069 A 
ENDROOT
BRANCH   1   9
ATOM      7  C   UNL     1      -1.738   0.216  -0.260  0.00  0.00    +0.240 C 
ATOM      8  O   UNL     1      -2.354   0.011  -1.284  0.00  0.00    -0.273 OA
ATOM      9  N   UNL     1      -2.297  -0.072   0.932  0.00  0.00    -0.282 N 
ATOM     10  H   UNL     1      -1.782   0.032   1.747  0.00  0.00    +0.155 HD
BRANCH   7  12
ATOM     11  C   UNL     1      -0.314   2.123   0.435  0.00  0.00    +0.041 C 
ATOM     12  C   UNL     1      -0.347   0.793  -0.320  0.00  0.00    +0.171 C 
BRANCH  12  13
ATOM     13  N   UNL     1       0.029   1.015  -1.718  0.00  0.00    -0.327 N 
ATOM     14  C   UNL     1      -0.612   1.830  -2.612  0.00  0.00    +0.105 A 
ATOM     15  C   UNL     1       0.063   1.740  -3.774  0.00  0.00    +0.101 A 
ATOM     16  N   UNL     1       1.087   0.893  -3.595  0.00  0.00    -0.352 N 
ATOM     17  C   UNL     1       1.077   0.459  -2.365  0.00  0.00    +0.174 A 
ATOM     18  H   UNL     1       1.736   0.646  -4.272  0.00  0.00    +0.166 HD
ENDBRANCH  12  13
ENDBRANCH   7  12
ENDBRANCH   1   9
BRANCH   6  19
ATOM     19  N   UNL     1      -3.922   0.638   3.097  0.00  0.00    -0.214 N 
ATOM     20  H   UNL     1      -3.286   1.340   2.891  0.00  0.00    +0.174 HD
BRANCH  19  21
ATOM     21  S   UNL     1      -4.405   0.392   4.662  0.00  0.00    +0.072 S 
ATOM     22  O   UNL     1      -3.626   1.263   5.469  0.00  0.00    -0.150 OA
ATOM     23  O   UNL     1      -5.826   0.424   4.658  0.00  0.00    -0.150 OA
BRANCH  21  24
ATOM     24  C   UNL     1      -3.940  -1.250   5.099  0.00  0.00    +0.108 A 
ATOM     25  C   UNL     1      -4.813  -2.299   4.875  0.00  0.00    +0.029 A 
ATOM     26  C   UNL     1      -4.448  -3.587   5.218  0.00  0.00    +0.002 A 
ATOM     27  C   UNL     1      -3.210  -3.828   5.784  0.00  0.00    +0.000 A 
ATOM     28  C   UNL     1      -2.337  -2.779   6.006  0.00  0.00    +0.002 A 
ATOM     29  C   UNL     1      -2.700  -1.491   5.660  0.00  0.00    +0.029 A 
ENDBRANCH  21  24
ENDBRANCH  19  21
ENDBRANCH   6  19
TORSDOF 6
