REMARK  Name = ZINC42015090
REMARK  5 active torsions:
REMARK  status: ('A' for Active; 'I' for Inactive)
REMARK    1  A    between atoms: C_1  and  C_2
REMARK    2  A    between atoms: C_3  and  N_9
REMARK    3  A    between atoms: C_10  and  C_14
REMARK    4  A    between atoms: C_17  and  N_21
REMARK    5  A    between atoms: C_19  and  N_20
REMARK                            x       y       z     vdW  Elec       q    Type
REMARK                         _______ _______ _______ _____ _____    ______ ____
ROOT
ATOM      1  N   UNL     1      -0.418  -0.014  -2.644  0.00  0.00    -0.192 N 
ATOM      2  C   UNL     1      -0.490  -0.668  -3.841  0.00  0.00    +0.189 A 
ATOM      3  N   UNL     1      -0.478   0.255  -4.782  0.00  0.00    -0.108 NA
ATOM      4  N   UNL     1      -0.405   1.426  -4.262  0.00  0.00    -0.022 NA
ATOM      5  N   UNL     1      -0.371   1.351  -2.976  0.00  0.00    -0.039 NA
ENDROOT
BRANCH   1   8
ATOM      6  C   UNL     1      -2.185   1.047  -0.681  0.00  0.00    +0.047 C 
ATOM      7  C   UNL     1      -1.248  -0.093  -0.376  0.00  0.00    -0.007 A 
ATOM      8  C   UNL     1      -0.402  -0.581  -1.363  0.00  0.00    +0.074 A 
ATOM      9  C   UNL     1       0.460  -1.631  -1.078  0.00  0.00    +0.028 A 
ATOM     10  C   UNL     1       0.474  -2.189   0.186  0.00  0.00    +0.004 A 
ATOM     11  C   UNL     1      -0.369  -1.702   1.167  0.00  0.00    +0.020 A 
ATOM     12  C   UNL     1      -1.226  -0.651   0.889  0.00  0.00    +0.046 A 
ATOM     13 CL   UNL     1      -2.278  -0.038   2.126  0.00  0.00    -0.083 Cl
ENDBRANCH   1   8
BRANCH   2  14
ATOM     14  C   UNL     1      -0.566  -2.129  -4.042  0.00  0.00    +0.042 A 
ATOM     15  C   UNL     1      -1.480  -2.890  -3.311  0.00  0.00    +0.015 A 
ATOM     16  C   UNL     1      -1.548  -4.253  -3.500  0.00  0.00    +0.023 A 
ATOM     17  C   UNL     1      -0.708  -4.876  -4.418  0.00  0.00    +0.026 A 
ATOM     18  C   UNL     1       0.204  -4.128  -5.150  0.00  0.00    +0.046 A 
ATOM     19  C   UNL     1       0.277  -2.756  -4.972  0.00  0.00    +0.037 A 
BRANCH  19  20
ATOM     20  N   UNL     1       1.187  -2.002  -5.709  0.00  0.00    -0.357 N 
ATOM     21  H   UNL     1       1.236  -1.042  -5.584  0.00  0.00    +0.142 HD
ATOM     22  H   UNL     1       1.773  -2.438  -6.348  0.00  0.00    +0.142 HD
ENDBRANCH  19  20
BRANCH  17  23
ATOM     23  N   UNL     1      -0.783  -6.256  -4.604  0.00  0.00    -0.358 N 
ATOM     24  H   UNL     1      -1.420  -6.780  -4.093  0.00  0.00    +0.142 HD
ATOM     25  H   UNL     1      -0.198  -6.692  -5.243  0.00  0.00    +0.142 HD
ENDBRANCH  17  23
ENDBRANCH   2  14
TORSDOF 4
