REMARK  Name = ZINC23682933
REMARK  5 active torsions:
REMARK  status: ('A' for Active; 'I' for Inactive)
REMARK    1  A    between atoms: C_1  and  N_2
REMARK    2  A    between atoms: N_9  and  C_14
REMARK    3  A    between atoms: N_12  and  C_13
REMARK    4  A    between atoms: C_14  and  C_15
REMARK    5  A    between atoms: C_20  and  C_23
REMARK                            x       y       z     vdW  Elec       q    Type
REMARK                         _______ _______ _______ _____ _____    ______ ____
ROOT
ATOM      1  C   UNL     1      -1.710  -0.989  -1.409  0.00  0.00    +0.239 C 
ATOM      2  O   UNL     1      -1.038  -0.586  -2.334  0.00  0.00    -0.273 OA
ATOM      3  N   UNL     1      -2.856  -1.655  -1.648  0.00  0.00    -0.263 N 
ATOM      4  C   UNL     1      -3.268  -1.882  -2.955  0.00  0.00    +0.165 A 
ATOM      5  N   UNL     1      -4.345  -2.506  -3.394  0.00  0.00    -0.224 NA
ATOM      6  C   UNL     1      -4.585  -2.632  -4.697  0.00  0.00    +0.087 A 
ATOM      7  C   UNL     1      -3.697  -2.103  -5.595  0.00  0.00    +0.077 A 
ATOM      8  S   UNL     1      -2.484  -1.398  -4.487  0.00  0.00    -0.060 S 
ATOM      9  H   UNL     1      -3.466  -2.021  -0.808  0.00  0.00    +0.157 HD
ENDROOT
BRANCH   6  10
ATOM     10  C   UNL     1      -5.798  -3.334  -5.170  0.00  0.00    +0.040 A 
ATOM     11  C   UNL     1      -6.790  -3.929  -4.439  0.00  0.00    +0.019 A 
ATOM     12  C   UNL     1      -7.839  -4.526  -5.107  0.00  0.00    +0.028 A 
ATOM     13  C   UNL     1      -7.848  -4.516  -6.464  0.00  0.00    +0.079 A 
ATOM     14  S   UNL     1      -6.344  -3.634  -6.843  0.00  0.00    -0.075 S 
ATOM     15 CL   UNL     1      -9.022  -5.190  -7.552  0.00  0.00    -0.076 Cl
ENDBRANCH   6  10
BRANCH   1  16
ATOM     16  C   UNL     1      -1.263  -0.743   0.010  0.00  0.00    +0.226 C 
BRANCH  16  25
ATOM     17  C   UNL     1       0.634   4.527   0.020  0.00  0.00    +0.150 C 
ATOM     18  N   UNL     1       1.554   3.387   0.005  0.00  0.00    -0.328 N 
ATOM     19  C   UNL     1       2.900   3.444  -0.007  0.00  0.00    +0.202 A 
ATOM     20  N   UNL     1       3.393   2.231  -0.018  0.00  0.00    -0.218 NA
ATOM     21  C   UNL     1       2.399   1.339  -0.014  0.00  0.00    +0.168 A 
ATOM     22  C   UNL     1       1.206   2.051   0.002  0.00  0.00    +0.151 A 
ATOM     23  C   UNL     1      -0.016   1.345   0.009  0.00  0.00    +0.283 A 
ATOM     24  O   UNL     1      -1.075   1.947   0.018  0.00  0.00    -0.265 OA
ATOM     25  N   UNL     1       0.002  -0.004   0.002  0.00  0.00    -0.250 N 
ATOM     26  C   UNL     1       1.164  -0.680  -0.013  0.00  0.00    +0.334 A 
ATOM     27  O   UNL     1       1.141  -1.896  -0.019  0.00  0.00    -0.246 OA
ATOM     28  N   UNL     1       2.351  -0.046  -0.021  0.00  0.00    -0.280 N 
ATOM     29  C   UNL     1       3.594  -0.821  -0.037  0.00  0.00    +0.155 C 
ENDBRANCH  16  25
ENDBRANCH   1  16
TORSDOF 3
