REMARK  Name = ZINC61539461
REMARK  7 active torsions:
REMARK  status: ('A' for Active; 'I' for Inactive)
REMARK    1  A    between atoms: C_1  and  C_2
REMARK    2  A    between atoms: C_3  and  C_8
REMARK    3  A    between atoms: C_5  and  C_7
REMARK    4  A    between atoms: C_8  and  C_10
REMARK    5  A    between atoms: C_8  and  N_11
REMARK    6  A    between atoms: N_19  and  C_20
REMARK    7  A    between atoms: N_19  and  C_21
REMARK                            x       y       z     vdW  Elec       q    Type
REMARK                         _______ _______ _______ _____ _____    ______ ____
ROOT
ATOM      1  N   UNL     1       0.975  -0.964  -3.369  0.00  0.00    -0.306 N 
ATOM      2  C   UNL     1       1.523  -0.403  -4.505  0.00  0.00    +0.221 A 
ATOM      3  N   UNL     1       2.411  -1.084  -5.221  0.00  0.00    -0.181 NA
ATOM      4  C   UNL     1       2.936  -0.541  -6.314  0.00  0.00    +0.223 A 
ATOM      5  N   UNL     1       2.572   0.684  -6.687  0.00  0.00    -0.184 NA
ATOM      6  C   UNL     1       1.688   1.359  -5.972  0.00  0.00    +0.229 A 
ATOM      7  N   UNL     1       1.159   0.819  -4.886  0.00  0.00    -0.184 NA
ATOM      8 CL   UNL     1       1.216   2.956  -6.462  0.00  0.00    -0.041 Cl
ATOM      9  N   UNL     1       3.859  -1.245  -7.060  0.00  0.00    -0.306 N 
ATOM     10  C   UNL     1       4.259  -2.592  -6.648  0.00  0.00    +0.132 C 
ATOM     11  C   UNL     1       4.437  -0.645  -8.265  0.00  0.00    +0.132 C 
ATOM     12  H   UNL     1       1.240  -1.855  -3.092  0.00  0.00    +0.150 HD
ENDROOT
BRANCH   1  13
ATOM     13  C   UNL     1      -0.008  -0.215  -2.583  0.00  0.00    +0.109 C 
ATOM     14  C   UNL     1      -1.402  -0.420  -3.180  0.00  0.00    +0.033 C 
BRANCH  13  17
ATOM     15  C   UNL     1      -0.018   1.503   0.010  0.00  0.00    +0.066 C 
ATOM     16  C   UNL     1       0.002  -0.004   0.002  0.00  0.00    +0.051 A 
ATOM     17  C   UNL     1       0.006  -0.708  -1.159  0.00  0.00    +0.032 A 
ATOM     18  S   UNL     1       0.032  -2.379  -0.531  0.00  0.00    -0.075 S 
ATOM     19  C   UNL     1       0.036  -2.009   1.111  0.00  0.00    +0.076 A 
ATOM     20  N   UNL     1       0.023  -0.699   1.122  0.00  0.00    -0.249 NA
ATOM     21  C   UNL     1       0.055  -2.955   2.284  0.00  0.00    +0.073 C 
ENDBRANCH  13  17
ENDBRANCH   1  13
TORSDOF 2
