REMARK  Name = ZINC41510643
REMARK  13 active torsions:
REMARK  status: ('A' for Active; 'I' for Inactive)
REMARK    1  A    between atoms: C_1  and  C_2
REMARK    2  A    between atoms: C_2  and  N_3
REMARK    3  A    between atoms: N_3  and  C_4
REMARK    4  A    between atoms: N_3  and  C_6
REMARK    5  A    between atoms: C_4  and  C_5
REMARK    6  A    between atoms: C_6  and  C_7
REMARK    7  A    between atoms: C_8  and  O_29
REMARK    8  A    between atoms: C_10  and  C_28
REMARK    9  A    between atoms: C_15  and  C_16
REMARK   10  A    between atoms: C_19  and  C_22
REMARK   11  A    between atoms: C_22  and  C_23
REMARK   12  A    between atoms: C_22  and  C_24
REMARK   13  A    between atoms: C_22  and  C_25
REMARK                            x       y       z     vdW  Elec       q    Type
REMARK                         _______ _______ _______ _____ _____    ______ ____
ROOT
ATOM      1  C   UNL     1      -3.097  -1.916   0.500  0.00  0.00    +0.020 A 
ATOM      2  C   UNL     1      -3.676  -1.682   1.737  0.00  0.00    +0.122 A 
ATOM      3  C   UNL     1      -5.047  -1.841   1.919  0.00  0.00    +0.050 A 
ATOM      4  C   UNL     1      -5.837  -2.233   0.875  0.00  0.00    -0.033 A 
ATOM      5  C   UNL     1      -5.268  -2.472  -0.376  0.00  0.00    +0.071 A 
ATOM      6  C   UNL     1      -3.887  -2.309  -0.573  0.00  0.00    +0.145 A 
ATOM      7  O   UNL     1      -3.573  -2.589  -1.857  0.00  0.00    -0.451 OA
ATOM      8  C   UNL     1      -4.665  -2.937  -2.578  0.00  0.00    +0.176 C 
ATOM      9  C   UNL     1      -4.684  -3.275  -3.890  0.00  0.00    +0.058 C 
ATOM     10  C   UNL     1      -5.826  -2.894  -1.673  0.00  0.00    +0.232 C 
ATOM     11  O   UNL     1      -6.989  -3.140  -1.941  0.00  0.00    -0.283 OA
ATOM     12  C   UNL     1      -7.321  -2.406   1.075  0.00  0.00    +0.045 C 
ENDROOT
BRANCH   9  13
ATOM     13  C   UNL     1      -3.422  -3.430  -4.628  0.00  0.00    -0.021 A 
ATOM     14  C   UNL     1      -2.199  -3.373  -3.950  0.00  0.00    +0.008 A 
ATOM     15  C   UNL     1      -1.020  -3.518  -4.649  0.00  0.00    +0.005 A 
ATOM     16  C   UNL     1      -1.043  -3.720  -6.018  0.00  0.00    -0.042 A 
ATOM     17  C   UNL     1      -2.248  -3.778  -6.697  0.00  0.00    +0.005 A 
ATOM     18  C   UNL     1      -3.436  -3.641  -6.011  0.00  0.00    +0.008 A 
BRANCH  16  19
ATOM     19  C   UNL     1       0.251  -3.878  -6.774  0.00  0.00    -0.013 C 
ATOM     20  C   UNL     1       1.014  -5.088  -6.232  0.00  0.00    +0.015 C 
ATOM     21  C   UNL     1      -0.049  -4.088  -8.260  0.00  0.00    +0.015 C 
ATOM     22  C   UNL     1       1.102  -2.618  -6.598  0.00  0.00    +0.015 C 
ENDBRANCH  16  19
ENDBRANCH   9  13
BRANCH   2  23
ATOM     23  O   UNL     1      -2.900  -1.293   2.781  0.00  0.00    -0.506 OA
ATOM     24  H   UNL     1      -2.803  -0.334   2.862  0.00  0.00    +0.292 HD
ENDBRANCH   2  23
BRANCH   1  25
ATOM     25  C   UNL     1      -1.612  -1.740   0.318  0.00  0.00    -0.036 C 
BRANCH  25  26
ATOM     26  N   UNL     1      -1.343  -0.414  -0.255  0.00  0.00    +0.382 N 
ATOM     27  H   UNL     1      -1.865  -0.306  -1.112  0.00  0.00    -0.081 HD
BRANCH  26  29
ATOM     28  C   UNL     1      -1.587   2.002   0.056  0.00  0.00    -0.017 C 
ATOM     29  C   UNL     1      -1.750   0.624   0.701  0.00  0.00    -0.082 C 
ENDBRANCH  26  29
BRANCH  26  30
ATOM     30  C   UNL     1       0.093  -0.285  -0.537  0.00  0.00    -0.082 C 
ATOM     31  C   UNL     1       0.485  -1.263  -1.646  0.00  0.00    -0.017 C 
ENDBRANCH  26  30
ENDBRANCH  25  26
ENDBRANCH   1  25
TORSDOF 7
