REMARK  Name = ZINC13312870
REMARK  9 active torsions:
REMARK  status: ('A' for Active; 'I' for Inactive)
REMARK    1  A    between atoms: C_1  and  C_2
REMARK    2  A    between atoms: C_2  and  C_3
REMARK    3  A    between atoms: C_2  and  C_4
REMARK    4  A    between atoms: C_7  and  C_10
REMARK    5  A    between atoms: C_10  and  C_12
REMARK    6  A    between atoms: C_10  and  N_17
REMARK    7  A    between atoms: N_17  and  S_18
REMARK    8  A    between atoms: S_18  and  C_21
REMARK    9  A    between atoms: C_25  and  C_27
REMARK                            x       y       z     vdW  Elec       q    Type
REMARK                         _______ _______ _______ _____ _____    ______ ____
ROOT
ATOM      1  C   UNL     1       2.490   1.048  -0.016  0.00  0.00    +0.143 C 
ENDROOT
BRANCH   1   5
ATOM      2  C   UNL     1      -1.238   3.133   0.029  0.00  0.00    -0.045 A 
ATOM      3  C   UNL     1      -1.219   1.751   0.017  0.00  0.00    +0.004 A 
ATOM      4  C   UNL     1      -0.013   1.076   0.008  0.00  0.00    +0.006 A 
ATOM      5  C   UNL     1       1.175   1.783   0.000  0.00  0.00    -0.024 A 
ATOM      6  C   UNL     1       1.156   3.165   0.008  0.00  0.00    +0.006 A 
ATOM      7  C   UNL     1      -0.050   3.840   0.022  0.00  0.00    +0.004 A 
BRANCH   2   9
ATOM      8  C   UNL     1      -3.361   3.494  -1.200  0.00  0.00    +0.012 C 
ATOM      9  C   UNL     1      -2.553   3.869   0.044  0.00  0.00    +0.013 C 
ATOM     10  C   UNL     1      -3.339   3.482   1.298  0.00  0.00    +0.012 C 
ENDBRANCH   2   9
ENDBRANCH   1   5
BRANCH   1  11
ATOM     11  C   UNL     1       3.036   1.025  -1.420  0.00  0.00    +0.013 A 
ATOM     12  C   UNL     1       2.991   0.028  -2.337  0.00  0.00    +0.013 A 
ATOM     13  C   UNL     1       3.564   0.232  -3.579  0.00  0.00    +0.008 A 
ATOM     14  C   UNL     1       4.154   1.424  -3.842  0.00  0.00    +0.045 A 
ATOM     15  S   UNL     1       3.903   2.307  -2.310  0.00  0.00    -0.100 S 
ENDBRANCH   1  11
BRANCH   1  16
ATOM     16  N   UNL     1       3.441   1.728   0.867  0.00  0.00    -0.178 NA
ATOM     17  H   UNL     1       3.425   2.695   0.944  0.00  0.00    +0.149 HD
BRANCH  16  18
ATOM     18  S   UNL     1       4.544   0.847   1.732  0.00  0.00    +0.059 S 
ATOM     19  O   UNL     1       5.329   1.781   2.460  0.00  0.00    -0.153 OA
ATOM     20  O   UNL     1       3.821  -0.198   2.367  0.00  0.00    -0.153 OA
BRANCH  18  21
ATOM     21  C   UNL     1       5.624   0.079   0.571  0.00  0.00    +0.106 A 
ATOM     22  C   UNL     1       5.322  -1.179   0.075  0.00  0.00    +0.031 A 
ATOM     23  C   UNL     1       6.160  -1.788  -0.840  0.00  0.00    +0.041 A 
ATOM     24  C   UNL     1       7.312  -1.148  -1.260  0.00  0.00    +0.138 A 
ATOM     25  C   UNL     1       7.624   0.120  -0.758  0.00  0.00    +0.100 A 
ATOM     26  C   UNL     1       6.769   0.729   0.163  0.00  0.00    +0.046 A 
ATOM     27  F   UNL     1       8.133  -1.746  -2.151  0.00  0.00    -0.205 F 
BRANCH  25  28
ATOM     28  C   UNL     1       8.851   0.810  -1.200  0.00  0.00    +0.389 C 
ATOM     29  O   UNL     1       9.593   0.277  -2.001  0.00  0.00    -0.240 OA
ATOM     30  O   UNL     1       9.149   2.031  -0.715  0.00  0.00    -0.240 OA
ENDBRANCH  25  28
ENDBRANCH  18  21
ENDBRANCH  16  18
ENDBRANCH   1  16
TORSDOF 7
