REMARK  Name = ZINC00678875
REMARK  11 active torsions:
REMARK  status: ('A' for Active; 'I' for Inactive)
REMARK    1  A    between atoms: C_1  and  C_2
REMARK    2  A    between atoms: C_2  and  O_3
REMARK    3  A    between atoms: O_3  and  C_4
REMARK    4  A    between atoms: C_4  and  C_6
REMARK    5  A    between atoms: C_7  and  C_36
REMARK    6  A    between atoms: C_11  and  C_13
REMARK    7  A    between atoms: C_23  and  C_26
REMARK    8  A    between atoms: C_29  and  O_34
REMARK    9  A    between atoms: C_30  and  O_32
REMARK   10  A    between atoms: O_32  and  C_33
REMARK   11  A    between atoms: O_34  and  C_35
REMARK                            x       y       z     vdW  Elec       q    Type
REMARK                         _______ _______ _______ _____ _____    ______ ____
ROOT
ATOM      1  C   UNL     1      -0.034   1.701   2.398  0.00  0.00    +0.065 C 
ATOM      2  C   UNL     1      -0.722   1.555   1.252  0.00  0.00    +0.016 C 
ATOM      3  N   UNL     1      -2.052   1.866   1.199  0.00  0.00    -0.321 N 
ATOM      4  C   UNL     1      -2.798   1.934   2.347  0.00  0.00    +0.016 C 
ATOM      5  C   UNL     1      -2.197   2.093   3.545  0.00  0.00    +0.024 C 
ATOM      6  C   UNL     1      -0.697   2.209   3.645  0.00  0.00    +0.093 C 
ATOM      7  C   UNL     1      -2.949   2.154   4.732  0.00  0.00    +0.162 C 
ATOM      8  O   UNL     1      -2.377   2.308   5.793  0.00  0.00    -0.292 OA
ATOM      9  C   UNL     1      -4.448   2.032   4.711  0.00  0.00    +0.088 C 
ATOM     10  C   UNL     1      -4.862   1.182   3.505  0.00  0.00    +0.032 C 
ATOM     11  C   UNL     1      -4.299   1.830   2.239  0.00  0.00    +0.059 C 
ATOM     12  C   UNL     1      -0.021   1.051   0.017  0.00  0.00    +0.061 C 
ATOM     13  H   UNL     1      -2.532   2.065   0.229  0.00  0.00    +0.152 HD
ENDROOT
BRANCH   6  14
ATOM     14  C   UNL     1      -0.325   3.655   3.850  0.00  0.00    -0.021 A 
ATOM     15  C   UNL     1      -0.642   4.594   2.886  0.00  0.00    +0.005 A 
ATOM     16  C   UNL     1      -0.306   5.921   3.077  0.00  0.00    +0.000 A 
ATOM     17  C   UNL     1       0.358   6.308   4.226  0.00  0.00    +0.001 A 
ATOM     18  C   UNL     1       0.681   5.369   5.187  0.00  0.00    +0.015 A 
ATOM     19  C   UNL     1       0.340   4.041   5.000  0.00  0.00    +0.022 A 
ATOM     20 BR   UNL     1       0.781   2.756   6.315  0.00  0.00    -0.050 Br
ENDBRANCH   6  14
BRANCH  10  21
ATOM     21  C   UNL     1      -6.366   1.121   3.422  0.00  0.00    -0.040 A 
ATOM     22  C   UNL     1      -7.097   2.285   3.276  0.00  0.00    +0.008 A 
ATOM     23  C   UNL     1      -8.476   2.234   3.199  0.00  0.00    +0.049 A 
ATOM     24  C   UNL     1      -9.129   1.014   3.268  0.00  0.00    +0.161 A 
ATOM     25  C   UNL     1      -8.394  -0.158   3.415  0.00  0.00    +0.162 A 
ATOM     26  C   UNL     1      -7.011  -0.100   3.487  0.00  0.00    +0.053 A 
BRANCH  25  27
ATOM     27  O   UNL     1      -9.030  -1.358   3.484  0.00  0.00    -0.491 OA
ATOM     28  C   UNL     1      -8.211  -2.519   3.635  0.00  0.00    +0.277 C 
ENDBRANCH  25  27
BRANCH  24  29
ATOM     29  O   UNL     1     -10.486   0.962   3.192  0.00  0.00    -0.491 OA
ATOM     30  C   UNL     1     -11.175   2.205   3.041  0.00  0.00    +0.277 C 
ENDBRANCH  24  29
ENDBRANCH  10  21
BRANCH   1  31
ATOM     31  C   UNL     1       1.341   1.371   2.428  0.00  0.00    +0.338 C 
ATOM     32  O   UNL     1       1.915   1.062   1.401  0.00  0.00    -0.245 OA
BRANCH  31  33
ATOM     33  O   UNL     1       2.016   1.400   3.596  0.00  0.00    -0.462 OA
BRANCH  33  35
ATOM     34  C   UNL     1       3.994   1.143   4.961  0.00  0.00    +0.048 C 
ATOM     35  C   UNL     1       3.402   1.055   3.553  0.00  0.00    +0.229 C 
ENDBRANCH  33  35
ENDBRANCH  31  33
ENDBRANCH   1  31
TORSDOF 7
