REMARK  Name = ZINC04687999
REMARK  7 active torsions:
REMARK  status: ('A' for Active; 'I' for Inactive)
REMARK    1  A    between atoms: C_5  and  N_8
REMARK    2  A    between atoms: C_9  and  C_11
REMARK    3  A    between atoms: C_14  and  C_17
REMARK    4  A    between atoms: C_17  and  N_18
REMARK    5  A    between atoms: C_21  and  O_22
REMARK    6  A    between atoms: C_23  and  O_24
REMARK    7  A    between atoms: N_25  and  C_26
REMARK                            x       y       z     vdW  Elec       q    Type
REMARK                         _______ _______ _______ _____ _____    ______ ____
ROOT
ATOM      1  C   UNL     1       3.005  -3.138  -3.812  0.00  0.00    +0.075 C 
ATOM      2  C   UNL     1       1.749  -3.590  -4.561  0.00  0.00    +0.013 C 
ATOM      3  C   UNL     1       0.808  -4.307  -3.590  0.00  0.00    +0.006 C 
ATOM      4  C   UNL     1       1.517  -5.527  -3.000  0.00  0.00    +0.010 C 
ATOM      5  C   UNL     1       2.772  -5.075  -2.252  0.00  0.00    +0.006 C 
ATOM      6  C   UNL     1       3.714  -4.359  -3.222  0.00  0.00    +0.013 C 
ENDROOT
BRANCH   1   8
ATOM      7  N   UNL     1       1.976  -1.046  -2.987  0.00  0.00    -0.312 N 
ATOM      8  C   UNL     1       2.617  -2.197  -2.702  0.00  0.00    +0.216 C 
ATOM      9  O   UNL     1       2.881  -2.474  -1.551  0.00  0.00    -0.276 OA
ATOM     10  H   UNL     1       1.764  -0.824  -3.907  0.00  0.00    +0.149 HD
BRANCH   7  15
ATOM     11  C   UNL     1      -0.019   1.538   0.011  0.00  0.00    +0.000 C 
ATOM     12  C   UNL     1       1.401   2.036  -0.000  0.00  0.00    +0.000 C 
ATOM     13  C   UNL     1       1.910   2.335  -1.423  0.00  0.00    +0.002 C 
ATOM     14  C   UNL     1       1.480   1.268  -2.449  0.00  0.00    +0.022 C 
ATOM     15  C   UNL     1       1.598  -0.131  -1.907  0.00  0.00    +0.073 C 
ATOM     16  C   UNL     1       0.231  -0.548  -1.328  0.00  0.00    +0.022 C 
ATOM     17  C   UNL     1       0.002  -0.004   0.002  0.00  0.00    +0.002 C 
ENDBRANCH   7  15
ENDBRANCH   1   8
BRANCH   4  18
ATOM     18  C   UNL     1       0.575  -6.244  -2.030  0.00  0.00    +0.146 C 
BRANCH  18  19
ATOM     19  N   UNL     1       1.209  -7.477  -1.556  0.00  0.00    -0.278 NA
ATOM     20  C   UNL     1       1.521  -7.607  -0.297  0.00  0.00    +0.132 C 
ATOM     21  C   UNL     1       2.160  -8.672   0.526  0.00  0.00    +0.132 C 
ATOM     22  C   UNL     1       1.982  -7.749   1.664  0.00  0.00    +0.188 C 
ATOM     23  C   UNL     1       1.395  -6.757   0.903  0.00  0.00    +0.188 C 
ATOM     24  N   UNL     1       2.648  -9.864   0.332  0.00  0.00    -0.275 NA
BRANCH  24  25
ATOM     25  C   UNL     1       3.210 -10.617   1.456  0.00  0.00    +0.106 C 
ATOM     26  C   UNL     1       4.681 -10.931   1.176  0.00  0.00    +0.027 C 
ATOM     27  C   UNL     1       5.268 -11.717   2.349  0.00  0.00    +0.002 C 
ATOM     28  C   UNL     1       4.492 -13.025   2.525  0.00  0.00    +0.000 C 
ATOM     29  C   UNL     1       3.021 -12.712   2.806  0.00  0.00    +0.002 C 
ATOM     30  C   UNL     1       2.435 -11.925   1.632  0.00  0.00    +0.027 C 
ENDBRANCH  24  25
BRANCH  22  31
ATOM     31  O   UNL     1       2.289  -7.839   2.980  0.00  0.00    -0.502 OA
ATOM     32  H   UNL     1       2.047  -7.057   3.495  0.00  0.00    +0.292 HD
ENDBRANCH  22  31
BRANCH  23  33
ATOM     33  O   UNL     1       0.906  -5.519   1.154  0.00  0.00    -0.502 OA
ATOM     34  H   UNL     1       0.976  -5.249   2.080  0.00  0.00    +0.292 HD
ENDBRANCH  23  33
ENDBRANCH  18  19
ENDBRANCH   4  18
TORSDOF 7
