REMARK  Name = ZINC39542446
REMARK  5 active torsions:
REMARK  status: ('A' for Active; 'I' for Inactive)
REMARK    1  A    between atoms: C_1  and  C_2
REMARK    2  A    between atoms: C_7  and  C_9
REMARK    3  A    between atoms: C_14  and  C_17
REMARK    4  A    between atoms: C_17  and  N_18
REMARK    5  A    between atoms: C_20  and  C_24
REMARK                            x       y       z     vdW  Elec       q    Type
REMARK                         _______ _______ _______ _____ _____    ______ ____
ROOT
ATOM      1  C   UNL     1      -0.358  -2.675   2.145  0.00  0.00    +0.243 C 
ATOM      2  O   UNL     1      -0.760  -2.223   1.090  0.00  0.00    -0.270 OA
ATOM      3  N   UNL     1      -0.137  -3.999   2.270  0.00  0.00    -0.298 N 
ATOM      4  C   UNL     1       0.052  -4.842   1.082  0.00  0.00    +0.108 C 
ATOM      5  C   UNL     1      -0.936  -6.011   1.145  0.00  0.00    +0.024 C 
ATOM      6  C   UNL     1      -0.762  -6.750   2.474  0.00  0.00    +0.005 C 
ATOM      7  C   UNL     1      -1.066  -5.797   3.633  0.00  0.00    +0.024 C 
ATOM      8  C   UNL     1      -0.074  -4.625   3.598  0.00  0.00    +0.108 C 
ENDROOT
BRANCH   1  15
ATOM      9  C   UNL     1       0.454   1.907   4.006  0.00  0.00    +0.063 C 
ATOM     10  C   UNL     1       0.287   0.430   4.255  0.00  0.00    +0.031 C 
ATOM     11  N   UNL     1       0.367  -0.003   5.481  0.00  0.00    -0.185 NA
ATOM     12  C   UNL     1       0.232  -1.298   5.804  0.00  0.00    +0.241 C 
ATOM     13  O   UNL     1       0.313  -1.656   6.961  0.00  0.00    -0.273 OA
ATOM     14  C   UNL     1      -0.024  -2.305   4.704  0.00  0.00    +0.138 C 
ATOM     15  C   UNL     1      -0.112  -1.774   3.287  0.00  0.00    +0.025 C 
ATOM     16  C   UNL     1       0.039  -0.441   3.112  0.00  0.00    +0.029 C 
ENDBRANCH   1  15
BRANCH   6  17
ATOM     17  C   UNL     1      -1.723  -7.939   2.527  0.00  0.00    +0.072 C 
BRANCH  17  18
ATOM     18  N   UNL     1      -1.357  -8.910   1.487  0.00  0.00    -0.334 NA
ATOM     19  C   UNL     1      -2.338 -10.020   1.427  0.00  0.00    +0.086 C 
ATOM     20  C   UNL     1      -1.457 -11.256   1.116  0.00  0.00    +0.056 C 
ATOM     21  N   UNL     1      -0.220 -10.952   1.885  0.00  0.00    -0.345 NA
ATOM     22  N   UNL     1      -0.052  -9.503   1.761  0.00  0.00    +0.400 N 
ATOM     23  H   UNL     1      -0.320 -11.223   2.852  0.00  0.00    +0.104 HD
ATOM     24  H   UNL     1       0.581  -9.298   1.003  0.00  0.00    -0.033 HD
ATOM     25  H   UNL     1       0.318  -9.129   2.622  0.00  0.00    -0.033 HD
BRANCH  20  26
ATOM     26  C   UNL     1      -2.116 -12.539   1.625  0.00  0.00    +0.006 C 
ATOM     27  C   UNL     1      -1.202 -13.750   1.344  0.00  0.00    +0.005 C 
ATOM     28  C   UNL     1      -2.184 -14.889   0.972  0.00  0.00    +0.000 C 
ATOM     29  C   UNL     1      -3.268 -14.151   0.148  0.00  0.00    +0.000 C 
ATOM     30  C   UNL     1      -3.429 -12.794   0.864  0.00  0.00    +0.005 C 
ENDBRANCH  20  26
ENDBRANCH  17  18
ENDBRANCH   6  17
TORSDOF 4
