REMARK  Name = ZINC10257266
REMARK  7 active torsions:
REMARK  status: ('A' for Active; 'I' for Inactive)
REMARK    1  A    between atoms: C_1  and  C_2
REMARK    2  A    between atoms: C_2  and  N_3
REMARK    3  A    between atoms: N_3  and  C_4
REMARK    4  A    between atoms: C_14  and  C_16
REMARK    5  A    between atoms: C_16  and  S_17
REMARK    6  A    between atoms: S_17  and  C_18
REMARK    7  A    between atoms: C_24  and  N_26
REMARK                            x       y       z     vdW  Elec       q    Type
REMARK                         _______ _______ _______ _____ _____    ______ ____
ROOT
ATOM      1  N   UNL     1      -0.288   1.272  -2.443  0.00  0.00    -0.270 N 
ATOM      2  C   UNL     1      -0.742   1.585  -1.213  0.00  0.00    +0.230 C 
ATOM      3  O   UNL     1      -1.736   2.268  -1.088  0.00  0.00    -0.274 OA
ENDROOT
BRANCH   1   4
ATOM      4  C   UNL     1      -0.964   1.735  -3.574  0.00  0.00    +0.044 A 
ATOM      5  C   UNL     1      -0.626   2.946  -4.139  0.00  0.00    +0.024 A 
ATOM      6  C   UNL     1      -1.293   3.416  -5.266  0.00  0.00    +0.002 A 
ATOM      7  C   UNL     1      -2.294   2.695  -5.842  0.00  0.00    +0.008 A 
ATOM      8  C   UNL     1      -2.669   1.455  -5.298  0.00  0.00    -0.016 A 
ATOM      9  C   UNL     1      -1.994   0.964  -4.153  0.00  0.00    +0.004 A 
ATOM     10  C   UNL     1      -2.372  -0.273  -3.608  0.00  0.00    +0.010 A 
ATOM     11  C   UNL     1      -3.374  -0.988  -4.190  0.00  0.00    +0.001 A 
ATOM     12  C   UNL     1      -4.035  -0.508  -5.318  0.00  0.00    +0.001 A 
ATOM     13  C   UNL     1      -3.699   0.689  -5.871  0.00  0.00    +0.008 A 
ENDBRANCH   1   4
BRANCH   1  15
ATOM     14  C   UNL     1       0.514  -1.029  -2.644  0.00  0.00    +0.025 C 
ATOM     15  C   UNL     1       0.913   0.447  -2.593  0.00  0.00    +0.110 C 
ENDBRANCH   1  15
BRANCH   2  16
ATOM     16  C   UNL     1      -0.013   1.086   0.008  0.00  0.00    +0.173 C 
BRANCH  16  17
ATOM     17  S   UNL     1      -0.860   1.669   1.497  0.00  0.00    -0.078 S 
BRANCH  17  18
ATOM     18  C   UNL     1       0.174   0.961   2.735  0.00  0.00    +0.171 A 
ATOM     19  N   UNL     1      -0.121   1.165   4.049  0.00  0.00    -0.302 N 
ATOM     20  H   UNL     1      -0.998   1.768   4.328  0.00  0.00    +0.171 HD
ATOM     21  C   UNL     1       0.659   0.630   5.011  0.00  0.00    +0.254 A 
ATOM     22  O   UNL     1       0.401   0.808   6.191  0.00  0.00    -0.268 OA
ATOM     23  C   UNL     1       1.769  -0.133   4.633  0.00  0.00    +0.113 A 
ATOM     24  C   UNL     1       2.027  -0.311   3.281  0.00  0.00    +0.124 A 
ATOM     25  N   UNL     1       1.214   0.239   2.372  0.00  0.00    -0.209 NA
BRANCH  24  26
ATOM     26  N   UNL     1       3.115  -1.059   2.876  0.00  0.00    -0.343 N 
ATOM     27  H   UNL     1       3.317  -1.199   1.804  0.00  0.00    +0.144 HD
ATOM     28  H   UNL     1       3.779  -1.514   3.625  0.00  0.00    +0.144 HD
ENDBRANCH  24  26
ENDBRANCH  17  18
ENDBRANCH  16  17
ENDBRANCH   2  16
TORSDOF 6
