REMARK  Name = ZINC36530149
REMARK  12 active torsions:
REMARK  status: ('A' for Active; 'I' for Inactive)
REMARK    1  A    between atoms: C_1  and  C_2
REMARK    2  A    between atoms: C_2  and  C_4
REMARK    3  A    between atoms: C_2  and  C_10
REMARK    4  A    between atoms: C_10  and  C_12
REMARK    5  A    between atoms: C_10  and  N_19
REMARK    6  A    between atoms: N_14  and  C_15
REMARK    7  A    between atoms: C_15  and  C_16
REMARK    8  A    between atoms: C_15  and  C_17
REMARK    9  A    between atoms: C_15  and  C_18
REMARK   10  A    between atoms: N_19  and  C_20
REMARK   11  A    between atoms: C_21  and  C_23
REMARK   12  A    between atoms: C_25  and  N_30
REMARK                            x       y       z     vdW  Elec       q    Type
REMARK                         _______ _______ _______ _____ _____    ______ ____
ROOT
ATOM      1  C   UNL     1       0.930  -0.263  -1.473  0.00  0.00    +0.169 C 
ENDROOT
BRANCH   1   2
ATOM      2  C   UNL     1       2.421  -0.111  -1.631  0.00  0.00    +0.235 C 
ATOM      3  O   UNL     1       2.880   0.339  -2.659  0.00  0.00    -0.274 OA
ATOM      4  N   UNL     1       3.245  -0.474  -0.628  0.00  0.00    -0.309 N 
ATOM      5  H   UNL     1       2.884  -0.892   0.170  0.00  0.00    +0.149 HD
BRANCH   4   6
ATOM      6  C   UNL     1       4.687  -0.239  -0.743  0.00  0.00    +0.026 C 
ATOM      7  C   UNL     1       4.944   1.253  -0.960  0.00  0.00    +0.031 C 
ATOM      8  C   UNL     1       5.382  -0.695   0.542  0.00  0.00    +0.031 C 
ATOM      9  C   UNL     1       5.239  -1.030  -1.930  0.00  0.00    +0.031 C 
ENDBRANCH   4   6
ENDBRANCH   1   2
BRANCH   1  10
ATOM     10  N   UNL     1       0.275  -0.013  -2.760  0.00  0.00    -0.288 N 
ATOM     11  C   UNL     1       0.445   1.279  -3.429  0.00  0.00    +0.133 C 
ATOM     12  C   UNL     1      -0.483  -0.972  -3.327  0.00  0.00    +0.251 C 
ATOM     13  O   UNL     1      -0.694  -2.011  -2.733  0.00  0.00    -0.270 OA
BRANCH  12  14
ATOM     14  C   UNL     1      -1.058  -0.760  -4.670  0.00  0.00    +0.086 A 
ATOM     15  C   UNL     1      -0.244  -0.331  -5.722  0.00  0.00    +0.049 A 
ATOM     16  C   UNL     1      -0.787  -0.135  -6.973  0.00  0.00    +0.127 A 
ATOM     17  C   UNL     1      -2.136  -0.361  -7.194  0.00  0.00    +0.036 A 
ATOM     18  C   UNL     1      -2.951  -0.784  -6.162  0.00  0.00    +0.054 A 
ATOM     19  C   UNL     1      -2.420  -0.993  -4.898  0.00  0.00    +0.191 A 
ATOM     20  O   UNL     1      -3.219  -1.414  -3.885  0.00  0.00    -0.287 OA
BRANCH  16  21
ATOM     21  N   UNL     1       0.075   0.320  -8.087  0.00  0.00    +0.056 N 
ATOM     22  O   UNL     1       1.253   0.518  -7.898  0.00  0.00    -0.126 OA
ATOM     23  O   UNL     1      -0.398   0.492  -9.186  0.00  0.00    -0.126 OA
ENDBRANCH  16  21
ENDBRANCH  12  14
ENDBRANCH   1  10
BRANCH   1  25
ATOM     24  C   UNL     1       0.966   0.372   0.943  0.00  0.00    +0.015 C 
ATOM     25  C   UNL     1       0.421   0.743  -0.438  0.00  0.00    +0.045 C 
BRANCH  25  26
ATOM     26  C   UNL     1      -1.085   0.714  -0.409  0.00  0.00    -0.042 A 
ATOM     27  C   UNL     1      -1.747  -0.426   0.005  0.00  0.00    +0.004 A 
ATOM     28  C   UNL     1      -3.129  -0.452   0.032  0.00  0.00    +0.000 A 
ATOM     29  C   UNL     1      -3.849   0.663  -0.354  0.00  0.00    +0.000 A 
ATOM     30  C   UNL     1      -3.187   1.804  -0.767  0.00  0.00    +0.000 A 
ATOM     31  C   UNL     1      -1.805   1.831  -0.790  0.00  0.00    +0.004 A 
ENDBRANCH  25  26
ENDBRANCH   1  25
TORSDOF 7
