REMARK  Name = ZINC02783702
REMARK  9 active torsions:
REMARK  status: ('A' for Active; 'I' for Inactive)
REMARK    1  A    between atoms: C_1  and  C_2
REMARK    2  A    between atoms: C_3  and  C_9
REMARK    3  A    between atoms: C_4  and  C_8
REMARK    4  A    between atoms: N_5  and  C_7
REMARK    5  A    between atoms: C_9  and  N_10
REMARK    6  A    between atoms: N_10  and  C_11
REMARK    7  A    between atoms: C_12  and  C_14
REMARK    8  A    between atoms: C_17  and  O_24
REMARK    9  A    between atoms: O_24  and  C_25
REMARK                            x       y       z     vdW  Elec       q    Type
REMARK                         _______ _______ _______ _____ _____    ______ ____
ROOT
ATOM      1  C   UNL     1       3.216   4.121   3.287  0.00  0.00    +0.094 A 
ATOM      2  C   UNL     1       4.370   4.269   3.995  0.00  0.00    +0.071 A 
ATOM      3  C   UNL     1       4.328   4.783   5.303  0.00  0.00    +0.051 A 
ATOM      4  C   UNL     1       5.414   5.011   6.195  0.00  0.00    +0.137 A 
ATOM      5  C   UNL     1       5.192   5.523   7.450  0.00  0.00    +0.047 A 
ATOM      6  C   UNL     1       3.912   5.835   7.888  0.00  0.00    +0.020 A 
ATOM      7  C   UNL     1       2.834   5.627   7.049  0.00  0.00    +0.032 A 
ATOM      8  C   UNL     1       3.040   5.113   5.785  0.00  0.00    +0.039 A 
ATOM      9  S   UNL     1       1.973   4.710   4.424  0.00  0.00    -0.081 S 
ATOM     10 BR   UNL     1       1.085   6.047   7.629  0.00  0.00    -0.049 Br
ATOM     11 CL   UNL     1       5.890   3.825   3.284  0.00  0.00    -0.081 Cl
ENDROOT
BRANCH   1  14
ATOM     12  N   UNL     1       1.832   3.678   1.330  0.00  0.00    -0.296 N 
ATOM     13  C   UNL     1       0.683   4.213   2.065  0.00  0.00    +0.132 C 
ATOM     14  C   UNL     1       3.040   3.610   1.924  0.00  0.00    +0.255 C 
ATOM     15  O   UNL     1       3.984   3.125   1.329  0.00  0.00    -0.269 OA
BRANCH  12  16
ATOM     16  C   UNL     1       1.667   3.217  -0.051  0.00  0.00    +0.146 C 
BRANCH  16  19
ATOM     17  C   UNL     1       3.524   0.677  -0.426  0.00  0.00    +0.068 C 
ATOM     18  C   UNL     1       2.032   0.658  -0.216  0.00  0.00    +0.065 A 
ATOM     19  C   UNL     1       1.213   1.780  -0.050  0.00  0.00    +0.013 A 
ATOM     20  C   UNL     1      -0.059   1.347   0.111  0.00  0.00    +0.041 A 
ATOM     21  N   UNL     1      -0.045  -0.001   0.049  0.00  0.00    -0.271 N 
ATOM     22  N   UNL     1       1.279  -0.410  -0.156  0.00  0.00    -0.176 NA
ATOM     23  C   UNL     1      -1.210  -0.881   0.174  0.00  0.00    +0.172 C 
ATOM     24  C   UNL     1      -1.274   2.215   0.315  0.00  0.00    +0.065 C 
ENDBRANCH  16  19
ENDBRANCH  12  16
ENDBRANCH   1  14
BRANCH   4  25
ATOM     25  O   UNL     1       6.680   4.718   5.802  0.00  0.00    -0.434 OA
BRANCH  25  26
ATOM     26  C   UNL     1       7.726   4.969   6.743  0.00  0.00    +0.541 C 
ATOM     27  F   UNL     1       7.740   6.328   7.073  0.00  0.00    -0.166 F 
ATOM     28  F   UNL     1       7.506   4.211   7.898  0.00  0.00    -0.166 F 
ENDBRANCH  25  26
ENDBRANCH   4  25
TORSDOF 5
