REMARK  Name = ZINC56766937
REMARK  7 active torsions:
REMARK  status: ('A' for Active; 'I' for Inactive)
REMARK    1  A    between atoms: C_1  and  C_2
REMARK    2  A    between atoms: N_7  and  C_9
REMARK    3  A    between atoms: C_9  and  C_11
REMARK    4  A    between atoms: C_9  and  C_12
REMARK    5  A    between atoms: C_12  and  N_13
REMARK    6  A    between atoms: N_16  and  C_17
REMARK    7  A    between atoms: C_20  and  N_23
REMARK                            x       y       z     vdW  Elec       q    Type
REMARK                         _______ _______ _______ _____ _____    ______ ____
ROOT
ATOM      1  N   UNL     1       3.065  -0.565   2.186  0.00  0.00    -0.301 N 
ATOM      2  C   UNL     1       4.246   0.042   1.954  0.00  0.00    +0.304 C 
ATOM      3  O   UNL     1       5.252  -0.623   1.804  0.00  0.00    -0.253 OA
ATOM      4  N   UNL     1       4.311   1.387   1.890  0.00  0.00    -0.269 N 
ATOM      5  H   UNL     1       2.262  -0.034   2.305  0.00  0.00    +0.150 HD
ATOM      6  H   UNL     1       3.499   1.915   1.940  0.00  0.00    +0.156 HD
ENDROOT
BRANCH   4   7
ATOM      7  C   UNL     1       5.552   2.022   1.752  0.00  0.00    +0.035 A 
ATOM      8  C   UNL     1       5.785   3.236   2.384  0.00  0.00    +0.025 A 
ATOM      9  C   UNL     1       7.008   3.862   2.249  0.00  0.00    +0.025 A 
ATOM     10  C   UNL     1       8.006   3.277   1.480  0.00  0.00    +0.040 A 
ATOM     11  C   UNL     1       7.773   2.063   0.848  0.00  0.00    +0.025 A 
ATOM     12  C   UNL     1       6.552   1.435   0.988  0.00  0.00    +0.025 A 
BRANCH  10  13
ATOM     13  N   UNL     1       9.247   3.913   1.343  0.00  0.00    -0.234 N 
ATOM     14  C   UNL     1      10.396   3.418   0.558  0.00  0.00    +0.158 C 
ATOM     15  C   UNL     1      11.294   4.674   0.466  0.00  0.00    +0.253 C 
ATOM     16  O   UNL     1      10.873   5.430   1.619  0.00  0.00    -0.448 OA
ATOM     17  C   UNL     1       9.604   5.086   1.898  0.00  0.00    +0.407 C 
ATOM     18  O   UNL     1       8.860   5.761   2.581  0.00  0.00    -0.226 OA
ENDBRANCH  10  13
ENDBRANCH   4   7
BRANCH   1  19
ATOM     19  C   UNL     1       2.994  -2.027   2.255  0.00  0.00    +0.090 C 
BRANCH  19  20
ATOM     20  C   UNL     1       1.534  -2.460   2.397  0.00  0.00    -0.054 C 
ATOM     21  C   UNL     1       1.448  -3.987   2.354  0.00  0.00    -0.012 C 
BRANCH  20  27
ATOM     22  C   UNL     1      -2.978  -1.957   0.565  0.00  0.00    +0.005 C 
ATOM     23  C   UNL     1      -1.505  -1.589   0.374  0.00  0.00    -0.031 C 
ATOM     24  C   UNL     1      -1.025  -2.091  -0.990  0.00  0.00    -0.001 C 
ATOM     25  C   UNL     1       0.469  -1.787  -1.138  0.00  0.00    -0.018 C 
ATOM     26  C   UNL     1       1.232  -2.435   0.019  0.00  0.00    -0.078 C 
ATOM     27  N   UNL     1       0.745  -1.894   1.294  0.00  0.00    +0.383 N 
ATOM     28  C   UNL     1      -0.669  -2.243   1.476  0.00  0.00    -0.075 C 
ATOM     29  H   UNL     1       0.845  -0.890   1.293  0.00  0.00    -0.081 HD
ENDBRANCH  20  27
ENDBRANCH  19  20
ENDBRANCH   1  19
TORSDOF 5
