REMARK  Name = ZINC55651811
REMARK  9 active torsions:
REMARK  status: ('A' for Active; 'I' for Inactive)
REMARK    1  A    between atoms: C_1  and  C_2
REMARK    2  A    between atoms: C_2  and  N_3
REMARK    3  A    between atoms: C_4  and  C_6
REMARK    4  A    between atoms: C_9  and  N_13
REMARK    5  A    between atoms: C_10  and  C_12
REMARK    6  A    between atoms: N_13  and  S_14
REMARK    7  A    between atoms: S_14  and  C_17
REMARK    8  A    between atoms: C_20  and  N_24
REMARK    9  A    between atoms: C_22  and  C_23
REMARK                            x       y       z     vdW  Elec       q    Type
REMARK                         _______ _______ _______ _____ _____    ______ ____
ROOT
ATOM      1  N   UNL     1      -6.889  -3.791   0.047  0.00  0.00    -0.098 NA
ENDROOT
BRANCH   1   5
ATOM      2  C   UNL     1      -2.985  -2.350   0.018  0.00  0.00    +0.037 A 
ATOM      3  C   UNL     1      -4.061  -1.457   0.027  0.00  0.00    +0.015 A 
ATOM      4  C   UNL     1      -5.350  -1.937   0.036  0.00  0.00    +0.028 A 
ATOM      5  C   UNL     1      -5.584  -3.309   0.037  0.00  0.00    +0.077 A 
ATOM      6  C   UNL     1      -4.515  -4.201   0.028  0.00  0.00    -0.025 A 
ATOM      7  C   UNL     1      -3.223  -3.727   0.013  0.00  0.00    +0.018 A 
ATOM      8  C   UNL     1      -4.773  -5.685   0.030  0.00  0.00    +0.046 C 
BRANCH   2  10
ATOM      9  N   UNL     1      -1.372  -0.511   0.012  0.00  0.00    -0.312 N 
ATOM     10  C   UNL     1      -1.601  -1.839   0.007  0.00  0.00    +0.244 C 
ATOM     11  O   UNL     1      -0.666  -2.617  -0.006  0.00  0.00    -0.270 OA
ATOM     12  H   UNL     1      -2.118   0.109   0.023  0.00  0.00    +0.149 HD
BRANCH   9  14
ATOM     13  C   UNL     1      -0.019   1.526   0.010  0.00  0.00    +0.024 C 
ATOM     14  C   UNL     1       0.002  -0.004   0.002  0.00  0.00    +0.101 C 
ENDBRANCH   9  14
ENDBRANCH   2  10
ENDBRANCH   1   5
BRANCH   1  15
ATOM     15  S   UNL     1      -8.162  -2.732   0.058  0.00  0.00    +0.092 S 
ATOM     16  O   UNL     1      -8.112  -2.050   1.303  0.00  0.00    -0.148 OA
ATOM     17  O   UNL     1      -8.132  -2.047  -1.187  0.00  0.00    -0.148 OA
BRANCH  15  18
ATOM     18  C   UNL     1      -9.639  -3.693   0.069  0.00  0.00    +0.113 A 
ATOM     19  C   UNL     1     -10.489  -3.642   1.158  0.00  0.00    +0.031 A 
ATOM     20  C   UNL     1     -11.647  -4.396   1.167  0.00  0.00    +0.034 A 
ATOM     21  C   UNL     1     -11.956  -5.200   0.085  0.00  0.00    +0.127 A 
ATOM     22  C   UNL     1     -11.107  -5.250  -1.004  0.00  0.00    +0.038 A 
ATOM     23  C   UNL     1      -9.951  -4.493  -1.014  0.00  0.00    -0.022 A 
ATOM     24  C   UNL     1      -9.028  -4.543  -2.205  0.00  0.00    +0.046 C 
BRANCH  21  25
ATOM     25  N   UNL     1     -13.196  -6.008   0.095  0.00  0.00    +0.056 N 
ATOM     26  O   UNL     1     -13.939  -5.965   1.048  0.00  0.00    -0.126 OA
ATOM     27  O   UNL     1     -13.467  -6.712  -0.851  0.00  0.00    -0.126 OA
ENDBRANCH  21  25
ENDBRANCH  15  18
ENDBRANCH   1  15
TORSDOF 6
