REMARK  Name = ZINC06121750
REMARK  8 active torsions:
REMARK  status: ('A' for Active; 'I' for Inactive)
REMARK    1  A    between atoms: C_1  and  C_2
REMARK    2  A    between atoms: C_2  and  C_4
REMARK    3  A    between atoms: C_2  and  O_15
REMARK    4  A    between atoms: N_6  and  C_7
REMARK    5  A    between atoms: C_7  and  C_13
REMARK    6  A    between atoms: O_15  and  C_16
REMARK    7  A    between atoms: C_16  and  C_18
REMARK    8  A    between atoms: C_27  and  O_28
REMARK                            x       y       z     vdW  Elec       q    Type
REMARK                         _______ _______ _______ _____ _____    ______ ____
ROOT
ATOM      1  O   UNL     1       2.255   8.105   0.021  0.00  0.00    -0.449 OA
ENDROOT
BRANCH   1   3
ATOM      2  C   UNL     1       2.159  10.056   1.474  0.00  0.00    +0.062 C 
ATOM      3  C   UNL     1       2.173   9.555   0.029  0.00  0.00    +0.259 C 
BRANCH   3   4
ATOM      4  C   UNL     1       3.367  10.129  -0.690  0.00  0.00    +0.255 C 
ATOM      5  O   UNL     1       4.204   9.389  -1.163  0.00  0.00    -0.272 OA
ATOM      6  N   UNL     1       3.504  11.464  -0.808  0.00  0.00    -0.294 N 
ATOM      7  H   UNL     1       2.835  12.056  -0.430  0.00  0.00    +0.150 HD
BRANCH   6   8
ATOM      8  C   UNL     1       4.665  12.022  -1.507  0.00  0.00    +0.121 C 
ATOM      9  C   UNL     1       5.947  11.579  -0.801  0.00  0.00    +0.041 C 
ATOM     10  C   UNL     1       7.159  12.162  -1.531  0.00  0.00    +0.003 C 
ATOM     11  C   UNL     1       7.073  13.690  -1.522  0.00  0.00    +0.000 C 
ATOM     12  C   UNL     1       5.790  14.133  -2.229  0.00  0.00    +0.003 C 
ATOM     13  C   UNL     1       4.579  13.550  -1.499  0.00  0.00    +0.041 C 
BRANCH   8  14
ATOM     14  C   UNL     1       4.678  11.539  -2.898  0.00  0.00    +0.088 C 
ATOM     15  N   UNL     1       4.689  11.166  -3.971  0.00  0.00    -0.194 NA
ENDBRANCH   8  14
ENDBRANCH   6   8
ENDBRANCH   3   4
ENDBRANCH   1   3
BRANCH   1  16
ATOM     16  C   UNL     1       1.090   7.427   0.029  0.00  0.00    +0.343 C 
ATOM     17  O   UNL     1       0.035   8.030   0.042  0.00  0.00    -0.245 OA
BRANCH  16  18
ATOM     18  C   UNL     1       1.095   5.955   0.021  0.00  0.00    +0.101 A 
ATOM     19  C   UNL     1       2.319   5.259   0.006  0.00  0.00    +0.019 A 
ATOM     20  C   UNL     1       2.350   3.904  -0.000  0.00  0.00    +0.009 A 
ATOM     21  C   UNL     1       1.149   3.167   0.008  0.00  0.00    -0.014 A 
ATOM     22  C   UNL     1       1.163   1.763   0.000  0.00  0.00    +0.008 A 
ATOM     23  C   UNL     1      -0.013   1.076   0.008  0.00  0.00    +0.001 A 
ATOM     24  C   UNL     1      -1.234   1.745   0.017  0.00  0.00    +0.001 A 
ATOM     25  C   UNL     1      -1.285   3.106   0.030  0.00  0.00    +0.012 A 
ATOM     26  C   UNL     1      -0.093   3.848   0.023  0.00  0.00    +0.024 A 
ATOM     27  C   UNL     1      -0.111   5.257   0.029  0.00  0.00    +0.138 A 
BRANCH  27  28
ATOM     28  O   UNL     1      -1.288   5.926   0.043  0.00  0.00    -0.505 OA
ATOM     29  H   UNL     1      -1.622   6.117   0.931  0.00  0.00    +0.292 HD
ENDBRANCH  27  28
ENDBRANCH  16  18
ENDBRANCH   1  16
TORSDOF 7
