REMARK  Name = ZINC66569871
REMARK  7 active torsions:
REMARK  status: ('A' for Active; 'I' for Inactive)
REMARK    1  A    between atoms: C_1  and  C_2
REMARK    2  A    between atoms: C_6  and  C_8
REMARK    3  A    between atoms: N_10  and  N_11
REMARK    4  A    between atoms: C_12  and  C_14
REMARK    5  A    between atoms: C_21  and  C_28
REMARK    6  A    between atoms: N_23  and  S_24
REMARK    7  A    between atoms: S_24  and  C_27
REMARK                            x       y       z     vdW  Elec       q    Type
REMARK                         _______ _______ _______ _____ _____    ______ ____
ROOT
ATOM      1  N   UNL     1       0.083  -4.905   3.652  0.00  0.00    -0.230 N 
ATOM      2  C   UNL     1       0.100  -6.252   3.639  0.00  0.00    +0.260 C 
ATOM      3  O   UNL     1       0.103  -6.850   2.580  0.00  0.00    -0.269 OA
ATOM      4  H   UNL     1       0.080  -4.428   4.496  0.00  0.00    +0.173 HD
ENDROOT
BRANCH   2   5
ATOM      5  C   UNL     1       0.115  -7.002   4.910  0.00  0.00    +0.039 A 
ATOM      6  C   UNL     1       0.106  -6.319   6.130  0.00  0.00    +0.015 A 
ATOM      7  C   UNL     1       0.120  -7.019   7.311  0.00  0.00    +0.026 A 
ATOM      8  C   UNL     1       0.144  -8.420   7.306  0.00  0.00    +0.054 A 
ATOM      9  C   UNL     1       0.153  -9.094   6.091  0.00  0.00    -0.022 A 
ATOM     10  C   UNL     1       0.133  -8.399   4.903  0.00  0.00    +0.018 A 
ATOM     11  C   UNL     1       0.180 -10.581   6.368  0.00  0.00    +0.061 C 
ATOM     12  C   UNL     1       0.185 -10.684   7.902  0.00  0.00    +0.099 C 
ATOM     13  N   UNL     1       0.162  -9.300   8.381  0.00  0.00    -0.204 N 
ATOM     14  C   UNL     1       1.453 -11.393   8.382  0.00  0.00    +0.030 C 
BRANCH  13  15
ATOM     15  S   UNL     1       0.159  -8.849   9.975  0.00  0.00    +0.043 S 
ATOM     16  O   UNL     1       0.782  -9.928  10.658  0.00  0.00    -0.155 OA
ATOM     17  O   UNL     1       0.739  -7.552   9.986  0.00  0.00    -0.155 OA
ATOM     18  C   UNL     1      -1.595  -8.752  10.428  0.00  0.00    +0.218 C 
ENDBRANCH  13  15
ENDBRANCH   2   5
BRANCH   1  21
ATOM     19  C   UNL     1       0.051  -2.845   2.458  0.00  0.00    +0.260 C 
ATOM     20  O   UNL     1       0.048  -2.248   3.516  0.00  0.00    -0.269 OA
ATOM     21  N   UNL     1       0.068  -4.193   2.445  0.00  0.00    -0.230 N 
ATOM     22  H   UNL     1       0.071  -4.670   1.601  0.00  0.00    +0.173 HD
BRANCH  19  28
ATOM     23  C   UNL     1      -0.018   1.503   0.010  0.00  0.00    +0.044 C 
ATOM     24  C   UNL     1       0.002  -0.004   0.002  0.00  0.00    -0.050 A 
ATOM     25  C   UNL     1       0.006  -0.688  -1.201  0.00  0.00    +0.003 A 
ATOM     26  C   UNL     1       0.024  -2.071  -1.218  0.00  0.00    +0.001 A 
ATOM     27  C   UNL     1       0.039  -2.778  -0.033  0.00  0.00    +0.013 A 
ATOM     28  C   UNL     1       0.036  -2.095   1.184  0.00  0.00    +0.038 A 
ATOM     29  C   UNL     1       0.023  -0.699   1.194  0.00  0.00    +0.016 A 
ENDBRANCH  19  28
ENDBRANCH   1  21
TORSDOF 4
