REMARK  Name = ZINC39737527
REMARK  5 active torsions:
REMARK  status: ('A' for Active; 'I' for Inactive)
REMARK    1  A    between atoms: C_4  and  N_7
REMARK    2  A    between atoms: N_7  and  C_8
REMARK    3  A    between atoms: C_8  and  C_21
REMARK    4  A    between atoms: N_9  and  N_10
REMARK    5  A    between atoms: C_11  and  C_12
REMARK                            x       y       z     vdW  Elec       q    Type
REMARK                         _______ _______ _______ _____ _____    ______ ____
ROOT
ATOM      1  C   UNL     1       3.530  -1.940  -0.090  0.00  0.00    +0.208 C 
ATOM      2  N   UNL     1       4.648  -2.665   0.135  0.00  0.00    -0.129 NA
ENDROOT
BRANCH   1   3
ATOM      3  C   UNL     1       2.216  -2.612  -0.162  0.00  0.00    +0.176 A 
ATOM      4  N   UNL     1       2.020  -3.967  -0.119  0.00  0.00    -0.336 N 
ATOM      5  H   UNL     1       2.707  -4.647  -0.037  0.00  0.00    +0.167 HD
ATOM      6  C   UNL     1       0.661  -4.183  -0.213  0.00  0.00    +0.067 A 
ATOM      7  C   UNL     1      -0.137  -5.320  -0.226  0.00  0.00    +0.028 A 
ATOM      8  C   UNL     1      -1.505  -5.193  -0.336  0.00  0.00    +0.002 A 
ATOM      9  C   UNL     1      -2.091  -3.938  -0.435  0.00  0.00    +0.002 A 
ATOM     10  C   UNL     1      -1.325  -2.808  -0.425  0.00  0.00    +0.030 A 
ATOM     11  C   UNL     1       0.068  -2.910  -0.313  0.00  0.00    +0.090 A 
ATOM     12  N   UNL     1       1.061  -2.001  -0.270  0.00  0.00    -0.225 NA
ENDBRANCH   1   3
BRANCH   2  13
ATOM     13  N   UNL     1       4.569  -3.943   0.288  0.00  0.00    -0.155 NA
ATOM     14  C   UNL     1       5.676  -4.661   0.511  0.00  0.00    +0.141 C 
BRANCH  14  15
ATOM     15  C   UNL     1       5.591  -6.008   0.672  0.00  0.00    +0.000 C 
ATOM     16  C   UNL     1       6.694  -6.943   0.928  0.00  0.00    +0.004 A 
ATOM     17  C   UNL     1       8.072  -6.731   1.073  0.00  0.00    +0.010 A 
ATOM     18  C   UNL     1       8.908  -7.798   1.313  0.00  0.00    +0.001 A 
ATOM     19  C   UNL     1       8.392  -9.081   1.412  0.00  0.00    +0.002 A 
ATOM     20  C   UNL     1       7.038  -9.306   1.272  0.00  0.00    +0.026 A 
ATOM     21  C   UNL     1       6.170  -8.243   1.029  0.00  0.00    +0.043 A 
ATOM     22  N   UNL     1       4.793  -8.235   0.856  0.00  0.00    -0.380 N 
ATOM     23  C   UNL     1       4.341  -6.859   0.631  0.00  0.00    +0.150 C 
ATOM     24  H   UNL     1       4.219  -9.017   0.884  0.00  0.00    +0.160 HD
ENDBRANCH  14  15
ENDBRANCH   2  13
BRANCH   1  25
ATOM     25  N   UNL     1       3.612  -0.634  -0.246  0.00  0.00    -0.191 NA
BRANCH  25  29
ATOM     26  C   UNL     1       7.212   1.099  -1.299  0.00  0.00    +0.000 A 
ATOM     27  C   UNL     1       6.283   1.827  -0.574  0.00  0.00    +0.002 A 
ATOM     28  C   UNL     1       5.080   1.256  -0.219  0.00  0.00    +0.025 A 
ATOM     29  C   UNL     1       4.798  -0.063  -0.593  0.00  0.00    +0.056 A 
ATOM     30  C   UNL     1       5.742  -0.792  -1.326  0.00  0.00    +0.025 A 
ATOM     31  C   UNL     1       6.941  -0.206  -1.673  0.00  0.00    +0.002 A 
ENDBRANCH  25  29
ENDBRANCH   1  25
TORSDOF 5
