REMARK  Name = ZINC63515549
REMARK  10 active torsions:
REMARK  status: ('A' for Active; 'I' for Inactive)
REMARK    1  A    between atoms: C_1  and  C_2
REMARK    2  A    between atoms: C_3  and  C_28
REMARK    3  A    between atoms: C_4  and  S_10
REMARK    4  A    between atoms: C_7  and  O_8
REMARK    5  A    between atoms: O_8  and  C_9
REMARK    6  A    between atoms: S_10  and  N_13
REMARK    7  A    between atoms: N_13  and  C_14
REMARK    8  A    between atoms: C_14  and  C_15
REMARK    9  A    between atoms: C_15  and  C_16
REMARK   10  A    between atoms: C_24  and  C_26
REMARK                            x       y       z     vdW  Elec       q    Type
REMARK                         _______ _______ _______ _____ _____    ______ ____
ROOT
ATOM      1  N   UNL     1      -1.491  -2.726  -3.523  0.00  0.00    -0.190 NA
ATOM      2  H   UNL     1      -2.152  -3.436  -3.517  0.00  0.00    +0.148 HD
ENDROOT
BRANCH   1   3
ATOM      3  S   UNL     1      -0.053  -2.926  -2.725  0.00  0.00    +0.059 S 
ATOM      4  O   UNL     1      -0.069  -4.240  -2.184  0.00  0.00    -0.153 OA
ATOM      5  O   UNL     1       0.126  -1.772  -1.916  0.00  0.00    -0.153 OA
BRANCH   3   9
ATOM      6  C   UNL     1       2.365  -4.956  -6.889  0.00  0.00    +0.048 C 
ATOM      7  C   UNL     1       2.293  -3.870  -5.846  0.00  0.00    -0.004 A 
ATOM      8  C   UNL     1       1.292  -3.892  -4.894  0.00  0.00    -0.018 A 
ATOM      9  C   UNL     1       1.224  -2.896  -3.937  0.00  0.00    +0.109 A 
ATOM     10  C   UNL     1       2.158  -1.876  -3.931  0.00  0.00    +0.032 A 
ATOM     11  C   UNL     1       3.161  -1.850  -4.881  0.00  0.00    +0.048 A 
ATOM     12  C   UNL     1       3.234  -2.851  -5.839  0.00  0.00    +0.123 A 
ATOM     13  C   UNL     1       0.273  -5.003  -4.898  0.00  0.00    +0.046 C 
BRANCH  12  14
ATOM     14  O   UNL     1       4.222  -2.831  -6.771  0.00  0.00    -0.495 OA
ATOM     15  C   UNL     1       5.156  -1.752  -6.702  0.00  0.00    +0.277 C 
ENDBRANCH  12  14
ENDBRANCH   3   9
ENDBRANCH   1   3
BRANCH   1  16
ATOM     16  C   UNL     1      -1.763  -1.477  -4.238  0.00  0.00    +0.110 C 
BRANCH  16  17
ATOM     17  C   UNL     1      -2.945  -1.682  -5.189  0.00  0.00    +0.050 C 
BRANCH  17  18
ATOM     18  C   UNL     1      -3.224  -0.397  -5.926  0.00  0.00    -0.037 C 
ATOM     19  C   UNL     1      -2.561   0.774  -5.798  0.00  0.00    +0.001 A 
ATOM     20  C   UNL     1      -1.424   1.190  -4.969  0.00  0.00    +0.010 A 
ATOM     21  C   UNL     1      -0.965   2.458  -5.056  0.00  0.00    +0.002 A 
ATOM     22  C   UNL     1      -1.536   3.405  -5.916  0.00  0.00    +0.022 A 
ATOM     23  C   UNL     1      -2.585   3.122  -6.720  0.00  0.00    +0.064 A 
ATOM     24  C   UNL     1      -3.165   1.774  -6.708  0.00  0.00    +0.062 A 
ATOM     25  N   UNL     1      -4.161   1.243  -7.372  0.00  0.00    -0.377 N 
ATOM     26  C   UNL     1      -4.300  -0.160  -6.962  0.00  0.00    +0.103 C 
ATOM     27  C   UNL     1      -5.683  -0.393  -6.351  0.00  0.00    +0.035 C 
ATOM     28 CL   UNL     1      -3.242   4.346  -7.761  0.00  0.00    -0.081 Cl
ATOM     29  H   UNL     1      -4.713   1.699  -8.026  0.00  0.00    +0.160 HD
ENDBRANCH  17  18
ENDBRANCH  16  17
ENDBRANCH   1  16
TORSDOF 6
