REMARK  Name = ZINC29692534
REMARK  5 active torsions:
REMARK  status: ('A' for Active; 'I' for Inactive)
REMARK    1  A    between atoms: C_5  and  C_7
REMARK    2  A    between atoms: C_7  and  C_8
REMARK    3  A    between atoms: C_8  and  C_9
REMARK    4  A    between atoms: N_11  and  N_12
REMARK    5  A    between atoms: C_13  and  C_15
REMARK                            x       y       z     vdW  Elec       q    Type
REMARK                         _______ _______ _______ _____ _____    ______ ____
ROOT
ATOM      1  N   UNL     1       2.217  -2.904   0.313  0.00  0.00    -0.231 N 
ATOM      2  C   UNL     1       1.197  -2.089  -0.024  0.00  0.00    +0.273 C 
ATOM      3  O   UNL     1       0.248  -2.528  -0.638  0.00  0.00    -0.270 OA
ATOM      4  H   UNL     1       3.078  -2.505   0.871  0.00  0.00    +0.173 HD
ENDROOT
BRANCH   2   5
ATOM      5  C   UNL     1       1.236  -0.633   0.363  0.00  0.00    +0.297 C 
ATOM      6  C   UNL     1       2.373   0.072  -0.388  0.00  0.00    +0.283 C 
ATOM      7  O   UNL     1       2.373   1.453  -0.008  0.00  0.00    -0.484 OA
ATOM      8  C   UNL     1       1.168   2.084   0.002  0.00  0.00    +0.162 A 
ATOM      9  C   UNL     1       1.126   3.471   0.006  0.00  0.00    +0.049 A 
ATOM     10  C   UNL     1      -0.091   4.126   0.019  0.00  0.00    +0.004 A 
ATOM     11  C   UNL     1      -1.269   3.403   0.029  0.00  0.00    +0.004 A 
ATOM     12  C   UNL     1      -1.234   2.021   0.019  0.00  0.00    +0.049 A 
ATOM     13  C   UNL     1      -0.016   1.357   0.009  0.00  0.00    +0.163 A 
ATOM     14  O   UNL     1       0.002  -0.004   0.002  0.00  0.00    -0.472 OA
ENDBRANCH   2   5
BRANCH   1  17
ATOM     15  C   UNL     1       3.200  -5.072   0.291  0.00  0.00    +0.229 C 
ATOM     16  O   UNL     1       4.149  -4.633   0.905  0.00  0.00    -0.274 OA
ATOM     17  N   UNL     1       2.180  -4.257  -0.046  0.00  0.00    -0.234 N 
ATOM     18  H   UNL     1       1.319  -4.655  -0.603  0.00  0.00    +0.173 HD
BRANCH  15  19
ATOM     19  C   UNL     1       3.161  -6.527  -0.096  0.00  0.00    +0.102 C 
BRANCH  19  20
ATOM     20  C   UNL     1       4.429  -7.222   0.403  0.00  0.00    +0.046 C 
BRANCH  20  25
ATOM     21  C   UNL     1       5.061 -10.455  -1.442  0.00  0.00    +0.000 A 
ATOM     22  C   UNL     1       4.319 -11.350  -0.693  0.00  0.00    +0.001 A 
ATOM     23  C   UNL     1       3.612 -10.910   0.409  0.00  0.00    +0.020 A 
ATOM     24  C   UNL     1       3.651  -9.574   0.768  0.00  0.00    +0.044 A 
ATOM     25  C   UNL     1       4.390  -8.678   0.016  0.00  0.00    -0.029 A 
ATOM     26  C   UNL     1       5.096  -9.120  -1.087  0.00  0.00    +0.005 A 
ATOM     27 CL   UNL     1       2.770  -9.022   2.158  0.00  0.00    -0.083 Cl
ENDBRANCH  20  25
ENDBRANCH  19  20
ENDBRANCH  15  19
ENDBRANCH   1  17
TORSDOF 5
