REMARK  Name = ZINC14198122
REMARK  7 active torsions:
REMARK  status: ('A' for Active; 'I' for Inactive)
REMARK    1  A    between atoms: C_1  and  C_2
REMARK    2  A    between atoms: N_10  and  C_14
REMARK    3  A    between atoms: C_14  and  N_15
REMARK    4  A    between atoms: N_15  and  C_16
REMARK    5  A    between atoms: N_15  and  C_23
REMARK    6  A    between atoms: C_16  and  C_17
REMARK    7  A    between atoms: C_23  and  C_24
REMARK                            x       y       z     vdW  Elec       q    Type
REMARK                         _______ _______ _______ _____ _____    ______ ____
ROOT
ATOM      1  C   UNL     1      -6.161  -0.784   7.684  0.00  0.00    +0.007 C 
ATOM      2  C   UNL     1      -5.206  -1.067   6.523  0.00  0.00    -0.014 C 
ATOM      3  C   UNL     1      -5.416  -0.022   5.425  0.00  0.00    +0.006 C 
ATOM      4  C   UNL     1      -4.468  -0.312   4.258  0.00  0.00    +0.035 C 
ATOM      5  C   UNL     1      -3.026  -0.276   4.750  0.00  0.00    +0.113 C 
ATOM      6  C   UNL     1      -2.808  -1.296   5.862  0.00  0.00    +0.035 C 
ATOM      7  C   UNL     1      -3.762  -1.001   7.022  0.00  0.00    +0.006 C 
ATOM      8  C   UNL     1      -2.072  -0.534   3.605  0.00  0.00    +0.248 C 
ATOM      9  O   UNL     1      -2.001  -1.532   2.920  0.00  0.00    -0.273 OA
ATOM     10  N   UNL     1      -1.318   0.580   3.506  0.00  0.00    -0.211 N 
ATOM     11  C   UNL     1      -1.660   1.490   4.427  0.00  0.00    +0.310 C 
ATOM     12  O   UNL     1      -1.120   2.573   4.540  0.00  0.00    -0.252 OA
ATOM     13  N   UNL     1      -2.672   1.073   5.210  0.00  0.00    -0.285 N 
ATOM     14  H   UNL     1      -3.219   1.528   6.050  0.00  0.00    +0.151 HD
ENDROOT
BRANCH  10  15
ATOM     15  C   UNL     1      -0.252   0.768   2.519  0.00  0.00    +0.205 C 
BRANCH  15  16
ATOM     16  N   UNL     1      -0.812   1.373   1.303  0.00  0.00    -0.274 NA
BRANCH  16  17
ATOM     17  C   UNL     1       0.008   1.050   0.128  0.00  0.00    +0.121 C 
BRANCH  17  18
ATOM     18  C   UNL     1      -0.249  -0.375  -0.288  0.00  0.00    -0.033 A 
ATOM     19  C   UNL     1       0.592  -1.384   0.143  0.00  0.00    +0.005 A 
ATOM     20  C   UNL     1       0.353  -2.692  -0.234  0.00  0.00    +0.000 A 
ATOM     21  C   UNL     1      -0.722  -2.990  -1.051  0.00  0.00    +0.000 A 
ATOM     22  C   UNL     1      -1.560  -1.981  -1.486  0.00  0.00    +0.000 A 
ATOM     23  C   UNL     1      -1.324  -0.673  -1.104  0.00  0.00    +0.005 A 
ENDBRANCH  17  18
ENDBRANCH  16  17
BRANCH  16  24
ATOM     24  C   UNL     1      -0.960   2.827   1.459  0.00  0.00    +0.199 C 
BRANCH  24  25
ATOM     25  C   UNL     1      -1.989   3.345   0.452  0.00  0.00    +0.402 C 
ATOM     26  F   UNL     1      -3.182   2.628   0.594  0.00  0.00    -0.169 F 
ATOM     27  F   UNL     1      -2.230   4.703   0.689  0.00  0.00    -0.169 F 
ATOM     28  F   UNL     1      -1.496   3.179  -0.847  0.00  0.00    -0.169 F 
ENDBRANCH  24  25
ENDBRANCH  16  24
ENDBRANCH  15  16
ENDBRANCH  10  15
TORSDOF 6
