REMARK  Name = ZINC59045257
REMARK  8 active torsions:
REMARK  status: ('A' for Active; 'I' for Inactive)
REMARK    1  A    between atoms: C_1  and  C_2
REMARK    2  A    between atoms: C_4  and  C_24
REMARK    3  A    between atoms: C_5  and  C_9
REMARK    4  A    between atoms: C_6  and  C_8
REMARK    5  A    between atoms: C_9  and  S_10
REMARK    6  A    between atoms: S_10  and  C_11
REMARK    7  A    between atoms: C_14  and  C_17
REMARK    8  A    between atoms: N_15  and  N_16
REMARK                            x       y       z     vdW  Elec       q    Type
REMARK                         _______ _______ _______ _____ _____    ______ ____
ROOT
ATOM      1  C   UNL     1       1.632  -6.614  -0.043  0.00  0.00    +0.209 A 
ATOM      2  N   UNL     1       0.513  -7.303  -0.046  0.00  0.00    -0.121 NA
ATOM      3  N   UNL     1       0.771  -8.562  -0.052  0.00  0.00    -0.127 NA
ATOM      4  C   UNL     1       2.069  -8.754  -0.054  0.00  0.00    +0.182 A 
ATOM      5  N   UNL     1       2.661  -7.512  -0.053  0.00  0.00    -0.224 N 
ENDROOT
BRANCH   4   6
ATOM      6  C   UNL     1       2.765 -10.059  -0.060  0.00  0.00    +0.021 A 
ATOM      7  C   UNL     1       4.122 -10.130   0.258  0.00  0.00    +0.013 A 
ATOM      8  C   UNL     1       4.766 -11.350   0.250  0.00  0.00    +0.016 A 
ATOM      9  C   UNL     1       4.069 -12.502  -0.073  0.00  0.00    +0.018 A 
ATOM     10  C   UNL     1       2.722 -12.437  -0.390  0.00  0.00    +0.016 A 
ATOM     11  C   UNL     1       2.066 -11.224  -0.379  0.00  0.00    +0.013 A 
ATOM     12 BR   UNL     1       4.959 -14.170  -0.082  0.00  0.00    -0.050 Br
ENDBRANCH   4   6
BRANCH   5  13
ATOM     13  N   UNL     1       3.998  -7.234  -0.060  0.00  0.00    -0.295 N 
ATOM     14  H   UNL     1       4.358  -7.166   0.880  0.00  0.00    +0.163 HD
ATOM     15  H   UNL     1       4.508  -7.923  -0.593  0.00  0.00    +0.163 HD
ENDBRANCH   5  13
BRANCH   1  16
ATOM     16  S   UNL     1       1.777  -4.858  -0.034  0.00  0.00    -0.080 S 
BRANCH  16  17
ATOM     17  C   UNL     1       0.059  -4.275  -0.021  0.00  0.00    +0.113 C 
BRANCH  17  22
ATOM     18  C   UNL     1      -0.018   1.503   0.010  0.00  0.00    +0.044 C 
ATOM     19  C   UNL     1       0.002  -0.004   0.002  0.00  0.00    -0.050 A 
ATOM     20  C   UNL     1       0.006  -0.689  -1.199  0.00  0.00    +0.007 A 
ATOM     21  C   UNL     1       0.025  -2.071  -1.206  0.00  0.00    -0.046 A 
ATOM     22  C   UNL     1       0.040  -2.768  -0.013  0.00  0.00    -0.031 A 
ATOM     23  C   UNL     1       0.037  -2.084   1.188  0.00  0.00    -0.046 A 
ATOM     24  C   UNL     1       0.023  -0.702   1.195  0.00  0.00    +0.007 A 
ATOM     25  C   UNL     1       0.054  -2.844   2.489  0.00  0.00    +0.044 C 
ATOM     26  C   UNL     1       0.027  -2.817  -2.516  0.00  0.00    +0.044 C 
ENDBRANCH  17  22
ENDBRANCH  16  17
ENDBRANCH   1  16
TORSDOF 5
