REMARK  Name = ZINC54397560
REMARK  5 active torsions:
REMARK  status: ('A' for Active; 'I' for Inactive)
REMARK    1  A    between atoms: C_4  and  N_10
REMARK    2  A    between atoms: C_5  and  C_7
REMARK    3  A    between atoms: C_7  and  N_9
REMARK    4  A    between atoms: C_14  and  C_16
REMARK    5  A    between atoms: C_16  and  O_17
REMARK                            x       y       z     vdW  Elec       q    Type
REMARK                         _______ _______ _______ _____ _____    ______ ____
ROOT
ATOM      1  C   UNL     1       0.008   1.354  -0.091  0.00  0.00    +0.131 A 
ATOM      2  C   UNL     1       0.584   1.014   1.125  0.00  0.00    +0.132 A 
ATOM      3  N   UNL     1       1.747   0.389   1.160  0.00  0.00    -0.237 NA
ATOM      4  C   UNL     1       2.371   0.083   0.029  0.00  0.00    +0.150 A 
ATOM      5  C   UNL     1       1.788   0.428  -1.202  0.00  0.00    +0.131 A 
ATOM      6  N   UNL     1       0.616   1.057  -1.222  0.00  0.00    -0.248 NA
ENDROOT
BRANCH   4   7
ATOM      7  N   UNL     1       3.590  -0.571   0.063  0.00  0.00    -0.308 N 
ATOM      8  C   UNL     1       3.780  -2.028   0.185  0.00  0.00    +0.107 C 
ATOM      9  C   UNL     1       5.174  -2.300  -0.433  0.00  0.00    +0.021 C 
ATOM     10  C   UNL     1       5.969  -1.050   0.030  0.00  0.00    +0.026 C 
ATOM     11  C   UNL     1       4.910   0.071  -0.025  0.00  0.00    +0.100 C 
BRANCH  11  12
ATOM     12  C   UNL     1       5.104   1.024   1.156  0.00  0.00    +0.178 C 
BRANCH  12  13
ATOM     13  O   UNL     1       5.133   0.276   2.373  0.00  0.00    -0.393 OA
ATOM     14  H   UNL     1       5.253   0.817   3.165  0.00  0.00    +0.209 HD
ENDBRANCH  12  13
ENDBRANCH  11  12
ENDBRANCH   4   7
BRANCH   5  15
ATOM     15  C   UNL     1       2.472   0.094  -2.465  0.00  0.00    +0.099 C 
ATOM     16  S   UNL     1       3.910  -0.834  -2.441  0.00  0.00    -0.033 S 
BRANCH  15  17
ATOM     17  N   UNL     1       1.965   0.520  -3.639  0.00  0.00    -0.350 N 
ATOM     18  H   UNL     1       1.150   1.046  -3.653  0.00  0.00    +0.143 HD
ATOM     19  H   UNL     1       2.414   0.300  -4.470  0.00  0.00    +0.143 HD
ENDBRANCH  15  17
ENDBRANCH   5  15
TORSDOF 5
