REMARK  Name = ZINC66396423
REMARK  9 active torsions:
REMARK  status: ('A' for Active; 'I' for Inactive)
REMARK    1  A    between atoms: C_1  and  C_2
REMARK    2  A    between atoms: C_3  and  C_14
REMARK    3  A    between atoms: N_16  and  C_17
REMARK    4  A    between atoms: C_17  and  C_19
REMARK    5  A    between atoms: C_17  and  C_21
REMARK    6  A    between atoms: C_24  and  C_27
REMARK    7  A    between atoms: C_27  and  C_28
REMARK    8  A    between atoms: C_27  and  C_29
REMARK    9  A    between atoms: C_27  and  C_30
REMARK                            x       y       z     vdW  Elec       q    Type
REMARK                         _______ _______ _______ _____ _____    ______ ____
ROOT
ATOM      1  C   UNL     1      -0.005  -0.370  -2.520  0.00  0.00    +0.249 C 
ATOM      2  O   UNL     1      -0.022   0.818  -2.781  0.00  0.00    -0.270 OA
ATOM      3  N   UNL     1       0.003  -1.279  -3.515  0.00  0.00    -0.292 N 
ATOM      4  H   UNL     1       0.017  -2.226  -3.307  0.00  0.00    +0.151 HD
ENDROOT
BRANCH   1   7
ATOM      5  C   UNL     1      -0.018   1.503   0.010  0.00  0.00    +0.066 C 
ATOM      6  C   UNL     1       0.002  -0.004   0.002  0.00  0.00    +0.056 A 
ATOM      7  C   UNL     1       0.008  -0.815  -1.115  0.00  0.00    +0.077 A 
ATOM      8  C   UNL     1       0.028  -2.153  -0.659  0.00  0.00    +0.148 A 
ATOM      9  N   UNL     1       0.034  -2.136   0.645  0.00  0.00    -0.172 NA
ATOM     10  N   UNL     1       0.024  -0.807   1.082  0.00  0.00    -0.216 N 
ATOM     11  C   UNL     1       0.032  -0.384   2.416  0.00  0.00    +0.176 A 
ATOM     12  C   UNL     1      -0.452  -1.223   3.418  0.00  0.00    +0.055 A 
ATOM     13  C   UNL     1      -0.423  -0.760   4.723  0.00  0.00    +0.077 A 
ATOM     14  C   UNL     1       0.086   0.516   4.953  0.00  0.00    +0.289 A 
ATOM     15  O   UNL     1       0.135   1.012   6.215  0.00  0.00    -0.264 OA
ATOM     16  N   UNL     1       0.524   1.243   3.938  0.00  0.00    -0.105 NA
ATOM     17  N   UNL     1       0.502   0.812   2.729  0.00  0.00    -0.126 NA
ENDBRANCH   1   7
BRANCH   3  18
ATOM     18  C   UNL     1      -0.009  -0.836  -4.912  0.00  0.00    +0.207 C 
BRANCH  18  19
ATOM     19  C   UNL     1       0.602  -1.903  -5.782  0.00  0.00    -0.013 A 
ATOM     20  C   UNL     1       0.324  -3.236  -5.541  0.00  0.00    +0.007 A 
ATOM     21  C   UNL     1       0.885  -4.215  -6.340  0.00  0.00    +0.004 A 
ATOM     22  C   UNL     1       1.723  -3.861  -7.380  0.00  0.00    -0.042 A 
ATOM     23  C   UNL     1       2.000  -2.529  -7.623  0.00  0.00    +0.004 A 
ATOM     24  C   UNL     1       1.436  -1.550  -6.827  0.00  0.00    +0.007 A 
BRANCH  22  25
ATOM     25  C   UNL     1       2.335  -4.928  -8.251  0.00  0.00    -0.013 C 
ATOM     26  C   UNL     1       1.224  -5.734  -8.928  0.00  0.00    +0.015 C 
ATOM     27  C   UNL     1       3.213  -4.274  -9.319  0.00  0.00    +0.015 C 
ATOM     28  C   UNL     1       3.188  -5.861  -7.389  0.00  0.00    +0.015 C 
ENDBRANCH  22  25
ENDBRANCH  18  19
BRANCH  18  29
ATOM     29  C   UNL     1      -1.398  -0.592  -5.336  0.00  0.00    +0.090 C 
ATOM     30  N   UNL     1      -2.469  -0.403  -5.664  0.00  0.00    -0.194 NA
ENDBRANCH  18  29
ENDBRANCH   3  18
TORSDOF 5
