REMARK  Name = ZINC13017329
REMARK  3 active torsions:
REMARK  status: ('A' for Active; 'I' for Inactive)
REMARK    1  A    between atoms: C_3  and  N_33
REMARK    2  A    between atoms: C_6  and  C_7
REMARK    3  A    between atoms: C_10  and  C_12
REMARK                            x       y       z     vdW  Elec       q    Type
REMARK                         _______ _______ _______ _____ _____    ______ ____
ROOT
ATOM      1  C   UNL     1      -1.303  -0.583  -0.408  0.00  0.00    +0.099 C 
ATOM      2  C   UNL     1      -2.354  -0.097   0.558  0.00  0.00    +0.035 A 
ATOM      3  C   UNL     1      -2.316   0.942   1.422  0.00  0.00    +0.087 A 
ATOM      4  N   UNL     1      -3.440   1.122   2.192  0.00  0.00    -0.311 N 
ATOM      5  H   UNL     1      -3.469   1.843   2.841  0.00  0.00    +0.170 HD
ATOM      6  C   UNL     1      -4.502   0.304   2.052  0.00  0.00    +0.289 A 
ATOM      7  O   UNL     1      -5.568   0.327   2.642  0.00  0.00    -0.260 OA
ATOM      8  S   UNL     1      -3.966  -0.792   0.817  0.00  0.00    -0.030 S 
ATOM      9  S   UNL     1      -0.870   2.012   1.538  0.00  0.00    -0.103 S 
ATOM     10  C   UNL     1      -0.019   1.541   0.011  0.00  0.00    +0.060 C 
ATOM     11  C   UNL     1       0.002  -0.004   0.002  0.00  0.00    +0.021 C 
ATOM     12  C   UNL     1       1.343  -0.416  -0.594  0.00  0.00    -0.006 C 
ATOM     13  C   UNL     1       2.243  -0.402   0.701  0.00  0.00    +0.004 C 
ATOM     14  C   UNL     1       2.178   1.078   1.150  0.00  0.00    +0.005 C 
ATOM     15  C   UNL     1       1.492   1.861  -0.002  0.00  0.00    +0.003 C 
ATOM     16  C   UNL     1       1.874   0.930  -1.226  0.00  0.00    +0.008 C 
ENDROOT
BRANCH   1  20
ATOM     17  C   UNL     1      -2.104   1.174  -3.509  0.00  0.00    +0.135 A 
ATOM     18  C   UNL     1      -2.138  -0.106  -3.965  0.00  0.00    +0.050 A 
ATOM     19  C   UNL     1      -1.842  -0.936  -2.865  0.00  0.00    +0.046 A 
ATOM     20  C   UNL     1      -1.645  -0.130  -1.804  0.00  0.00    +0.114 A 
ATOM     21  O   UNL     1      -1.809   1.144  -2.195  0.00  0.00    -0.459 OA
BRANCH  17  27
ATOM     22  C   UNL     1      -2.652   2.279  -5.674  0.00  0.00    +0.014 A 
ATOM     23  C   UNL     1      -2.889   3.415  -6.418  0.00  0.00    +0.033 A 
ATOM     24  C   UNL     1      -2.822   4.663  -5.823  0.00  0.00    +0.126 A 
ATOM     25  C   UNL     1      -2.522   4.779  -4.478  0.00  0.00    +0.033 A 
ATOM     26  C   UNL     1      -2.287   3.650  -3.720  0.00  0.00    +0.014 A 
ATOM     27  C   UNL     1      -2.354   2.388  -4.314  0.00  0.00    +0.017 A 
BRANCH  24  28
ATOM     28  N   UNL     1      -3.072   5.878  -6.630  0.00  0.00    +0.056 N 
ATOM     29  O   UNL     1      -3.013   6.978  -6.109  0.00  0.00    -0.126 OA
ATOM     30  O   UNL     1      -3.337   5.780  -7.814  0.00  0.00    -0.126 OA
ENDBRANCH  24  28
ENDBRANCH  17  27
ENDBRANCH   1  20
TORSDOF 3
