REMARK  Name = ZINC19535633
REMARK  8 active torsions:
REMARK  status: ('A' for Active; 'I' for Inactive)
REMARK    1  A    between atoms: C_1  and  C_2
REMARK    2  A    between atoms: C_3  and  C_23
REMARK    3  A    between atoms: C_4  and  C_14
REMARK    4  A    between atoms: C_17  and  O_22
REMARK    5  A    between atoms: C_18  and  O_20
REMARK    6  A    between atoms: O_20  and  C_21
REMARK    7  A    between atoms: C_23  and  O_25
REMARK    8  A    between atoms: O_25  and  C_26
REMARK                            x       y       z     vdW  Elec       q    Type
REMARK                         _______ _______ _______ _____ _____    ______ ____
ROOT
ATOM      1  C   UNL     1       1.049  -3.812   3.057  0.00  0.00    +0.061 C 
ATOM      2  C   UNL     1       1.268  -2.370   2.678  0.00  0.00    +0.016 C 
ATOM      3  C   UNL     1       2.274  -1.677   3.239  0.00  0.00    +0.065 C 
ATOM      4  C   UNL     1       2.516  -0.237   2.893  0.00  0.00    +0.092 C 
ATOM      5  C   UNL     1       1.820   0.135   1.608  0.00  0.00    +0.024 C 
ATOM      6  C   UNL     1       0.830  -0.637   1.111  0.00  0.00    +0.015 C 
ATOM      7  N   UNL     1       0.442  -1.775   1.765  0.00  0.00    -0.321 N 
ATOM      8  C   UNL     1       0.130  -0.271  -0.174  0.00  0.00    +0.051 C 
ATOM      9  C   UNL     1       0.115   1.251  -0.335  0.00  0.00    +0.014 C 
ATOM     10  C   UNL     1       1.562   1.755  -0.326  0.00  0.00    +0.080 C 
ATOM     11  C   UNL     1       2.228   1.307   0.946  0.00  0.00    +0.162 C 
ATOM     12  O   UNL     1       3.134   1.970   1.411  0.00  0.00    -0.292 OA
ATOM     13  H   UNL     1      -0.545  -2.211   1.551  0.00  0.00    +0.152 HD
ENDROOT
BRANCH   4  14
ATOM     14  C   UNL     1       1.995   0.633   4.007  0.00  0.00    -0.032 A 
ATOM     15  C   UNL     1       0.651   0.610   4.330  0.00  0.00    +0.008 A 
ATOM     16  C   UNL     1       0.169   1.406   5.352  0.00  0.00    +0.049 A 
ATOM     17  C   UNL     1       1.033   2.230   6.055  0.00  0.00    +0.158 A 
ATOM     18  C   UNL     1       2.386   2.253   5.730  0.00  0.00    +0.162 A 
ATOM     19  C   UNL     1       2.864   1.448   4.709  0.00  0.00    +0.054 A 
BRANCH  18  20
ATOM     20  O   UNL     1       3.237   3.061   6.417  0.00  0.00    -0.491 OA
ATOM     21  C   UNL     1       4.612   3.033   6.029  0.00  0.00    +0.277 C 
ENDBRANCH  18  20
BRANCH  17  22
ATOM     22  O   UNL     1       0.559   3.015   7.060  0.00  0.00    -0.503 OA
ATOM     23  H   UNL     1       1.246   3.668   7.617  0.00  0.00    +0.292 HD
ENDBRANCH  17  22
ENDBRANCH   4  14
BRANCH   3  24
ATOM     24  C   UNL     1       3.120  -2.318   4.174  0.00  0.00    +0.337 C 
ATOM     25  O   UNL     1       4.249  -2.638   3.853  0.00  0.00    -0.245 OA
BRANCH  24  26
ATOM     26  O   UNL     1       2.675  -2.574   5.422  0.00  0.00    -0.465 OA
ATOM     27  C   UNL     1       3.583  -3.223   6.314  0.00  0.00    +0.280 C 
ENDBRANCH  24  26
ENDBRANCH   3  24
TORSDOF 5
