REMARK  Name = ZINC00783529
REMARK  6 active torsions:
REMARK  status: ('A' for Active; 'I' for Inactive)
REMARK    1  A    between atoms: C_1  and  O_2
REMARK    2  A    between atoms: O_2  and  C_3
REMARK    3  A    between atoms: C_8  and  C_9
REMARK    4  A    between atoms: C_9  and  C_10
REMARK    5  A    between atoms: C_10  and  N_11
REMARK    6  A    between atoms: C_23  and  O_28
REMARK                            x       y       z     vdW  Elec       q    Type
REMARK                         _______ _______ _______ _____ _____    ______ ____
ROOT
ATOM      1  N   UNL     1      -0.136   1.022  -2.432  0.00  0.00    -0.284 N 
ATOM      2  C   UNL     1      -0.608  -0.132  -2.931  0.00  0.00    +0.135 C 
ATOM      3  S   UNL     1      -1.930  -0.887  -2.149  0.00  0.00    -0.019 S 
ATOM      4  N   UNL     1      -0.083  -0.715  -4.019  0.00  0.00    -0.320 N 
ATOM      5  C   UNL     1       1.046  -0.119  -4.735  0.00  0.00    +0.041 C 
ATOM      6  C   UNL     1       0.526   0.806  -5.837  0.00  0.00    +0.026 C 
ATOM      7  C   UNL     1      -0.317  -0.003  -6.826  0.00  0.00    +0.002 C 
ATOM      8  C   UNL     1       0.543  -1.105  -7.446  0.00  0.00    +0.000 C 
ATOM      9  C   UNL     1       1.061  -2.031  -6.343  0.00  0.00    +0.002 C 
ATOM     10  C   UNL     1       1.904  -1.223  -5.354  0.00  0.00    +0.026 C 
ATOM     11  C   UNL     1       1.893   0.692  -3.747  0.00  0.00    +0.063 C 
ATOM     12  C   UNL     1       0.979   1.721  -3.069  0.00  0.00    +0.139 C 
ATOM     13  C   UNL     1       1.769   2.495  -2.012  0.00  0.00    +0.055 C 
ATOM     14  C   UNL     1       2.351   1.536  -0.973  0.00  0.00    +0.004 C 
ATOM     15  C   UNL     1       3.279   0.538  -1.670  0.00  0.00    +0.001 C 
ATOM     16  C   UNL     1       2.481  -0.260  -2.702  0.00  0.00    +0.010 C 
ATOM     17  H   UNL     1      -0.459  -1.551  -4.338  0.00  0.00    +0.148 HD
ENDROOT
BRANCH  12  18
ATOM     18  O   UNL     1       0.470   2.627  -4.051  0.00  0.00    -0.371 OA
ATOM     19  H   UNL     1      -0.124   3.300  -3.693  0.00  0.00    +0.212 HD
ENDBRANCH  12  18
BRANCH   1  20
ATOM     20  C   UNL     1      -0.753   1.593  -1.232  0.00  0.00    +0.114 C 
BRANCH  20  21
ATOM     21  C   UNL     1      -1.889   2.533  -1.640  0.00  0.00    +0.058 C 
BRANCH  21  27
ATOM     22  C   UNL     1      -2.118   4.118   0.290  0.00  0.00    +0.123 A 
ATOM     23  C   UNL     1      -2.781   4.568   1.422  0.00  0.00    +0.046 A 
ATOM     24  C   UNL     1      -3.918   3.917   1.859  0.00  0.00    +0.004 A 
ATOM     25  C   UNL     1      -4.398   2.820   1.167  0.00  0.00    +0.000 A 
ATOM     26  C   UNL     1      -3.742   2.373   0.035  0.00  0.00    +0.007 A 
ATOM     27  C   UNL     1      -2.604   3.021  -0.406  0.00  0.00    -0.004 A 
BRANCH  22  29
ATOM     28  C   UNL     1      -0.553   5.876   0.627  0.00  0.00    +0.277 C 
ATOM     29  O   UNL     1      -0.996   4.753  -0.139  0.00  0.00    -0.495 OA
ENDBRANCH  22  29
ENDBRANCH  21  27
ENDBRANCH  20  21
ENDBRANCH   1  20
TORSDOF 5
