REMARK  Name = ZINC49813282
REMARK  4 active torsions:
REMARK  status: ('A' for Active; 'I' for Inactive)
REMARK    1  A    between atoms: C_1  and  C_2
REMARK    2  A    between atoms: C_2  and  C_3
REMARK    3  A    between atoms: C_11  and  C_18
REMARK    4  A    between atoms: C_15  and  C_17
REMARK                            x       y       z     vdW  Elec       q    Type
REMARK                         _______ _______ _______ _____ _____    ______ ____
ROOT
ATOM      1  C   UNL     1      -1.412  -0.526   0.013  0.00  0.00    +0.017 A 
ATOM      2  C   UNL     1      -2.034  -0.860  -1.151  0.00  0.00    +0.014 A 
ATOM      3  C   UNL     1      -3.354  -1.351  -1.126  0.00  0.00    -0.025 A 
ATOM      4  C   UNL     1      -3.993  -1.490   0.053  0.00  0.00    +0.025 A 
ATOM      5  N   UNL     1      -3.366  -1.144   1.217  0.00  0.00    -0.326 N 
ATOM      6  H   UNL     1      -3.841  -1.240   2.057  0.00  0.00    +0.169 HD
ATOM      7  C   UNL     1      -2.106  -0.680   1.225  0.00  0.00    +0.252 A 
ATOM      8  O   UNL     1      -1.568  -0.389   2.281  0.00  0.00    -0.268 OA
ATOM      9  C   UNL     1      -5.396  -2.031   0.161  0.00  0.00    +0.033 C 
ATOM     10  C   UNL     1      -6.108  -1.959  -1.187  0.00  0.00    +0.010 C 
ATOM     11  C   UNL     1      -5.202  -2.601  -2.245  0.00  0.00    +0.008 C 
ATOM     12  C   UNL     1      -3.990  -1.695  -2.448  0.00  0.00    +0.018 C 
ATOM     13  C   UNL     1      -4.433  -0.407  -3.144  0.00  0.00    +0.012 C 
ATOM     14  C   UNL     1      -6.175  -1.207   1.188  0.00  0.00    +0.014 C 
ENDROOT
BRANCH   1  16
ATOM     15  C   UNL     1      -0.019   1.526   0.010  0.00  0.00    +0.009 C 
ATOM     16  C   UNL     1       0.002  -0.004   0.002  0.00  0.00    +0.037 C 
ENDBRANCH   1  16
TORSDOF 1
