REMARK  Name = ZINC00799727
REMARK  9 active torsions:
REMARK  status: ('A' for Active; 'I' for Inactive)
REMARK    1  A    between atoms: C_1  and  C_2
REMARK    2  A    between atoms: C_2  and  C_3
REMARK    3  A    between atoms: C_6  and  C_8
REMARK    4  A    between atoms: C_6  and  O_16
REMARK    5  A    between atoms: C_11  and  O_14
REMARK    6  A    between atoms: O_14  and  C_15
REMARK    7  A    between atoms: C_17  and  C_19
REMARK    8  A    between atoms: C_23  and  C_26
REMARK    9  A    between atoms: C_24  and  O_25
REMARK                            x       y       z     vdW  Elec       q    Type
REMARK                         _______ _______ _______ _____ _____    ______ ____
ROOT
ATOM      1  C   UNL     1      -0.136  -2.485   4.974  0.00  0.00    +0.042 C 
ATOM      2  N   UNL     1      -0.054  -2.064   3.779  0.00  0.00    -0.183 NA
ATOM      3  N   UNL     1      -0.056  -0.676   3.654  0.00  0.00    -0.153 N 
ATOM      4  C   UNL     1      -0.168  -0.082   4.996  0.00  0.00    +0.187 C 
ATOM      5  C   UNL     1      -0.225  -1.312   5.924  0.00  0.00    +0.114 C 
ATOM      6  C   UNL     1       0.026   0.008   2.496  0.00  0.00    +0.272 C 
ATOM      7  O   UNL     1       0.102   1.222   2.511  0.00  0.00    -0.268 OA
ENDROOT
BRANCH   6   8
ATOM      8  C   UNL     1       0.022  -0.714   1.210  0.00  0.00    +0.080 A 
ATOM      9  C   UNL     1       0.064  -2.111   1.189  0.00  0.00    +0.017 A 
ATOM     10  C   UNL     1       0.060  -2.780  -0.016  0.00  0.00    +0.001 A 
ATOM     11  C   UNL     1       0.014  -2.075  -1.207  0.00  0.00    +0.007 A 
ATOM     12  C   UNL     1      -0.033  -0.695  -1.201  0.00  0.00    -0.008 A 
ATOM     13  C   UNL     1      -0.024  -0.004   0.002  0.00  0.00    +0.132 A 
ATOM     14  C   UNL     1      -0.089   0.063  -2.502  0.00  0.00    +0.047 C 
BRANCH  13  15
ATOM     15  O   UNL     1      -0.066   1.351   0.010  0.00  0.00    -0.506 OA
ATOM     16  H   UNL     1       0.805   1.772  -0.005  0.00  0.00    +0.292 HD
ENDBRANCH  13  15
ENDBRANCH   6   8
BRANCH   4  17
ATOM     17  C   UNL     1       1.039   0.766   5.305  0.00  0.00    +0.005 A 
ATOM     18  C   UNL     1       0.949   1.781   6.240  0.00  0.00    +0.012 A 
ATOM     19  C   UNL     1       2.055   2.556   6.528  0.00  0.00    +0.046 A 
ATOM     20  C   UNL     1       3.255   2.323   5.871  0.00  0.00    +0.120 A 
ATOM     21  C   UNL     1       3.341   1.308   4.929  0.00  0.00    +0.046 A 
ATOM     22  C   UNL     1       2.233   0.532   4.648  0.00  0.00    +0.012 A 
BRANCH  20  23
ATOM     23  O   UNL     1       4.343   3.088   6.149  0.00  0.00    -0.495 OA
ATOM     24  C   UNL     1       4.181   4.114   7.130  0.00  0.00    +0.277 C 
ENDBRANCH  20  23
ENDBRANCH   4  17
BRANCH   1  26
ATOM     25  C   UNL     1      -0.041  -4.818   4.138  0.00  0.00    +0.010 C 
ATOM     26  C   UNL     1      -0.150  -3.935   5.383  0.00  0.00    +0.049 C 
ENDBRANCH   1  26
BRANCH   4  27
ATOM     27  O   UNL     1      -1.366   0.690   5.108  0.00  0.00    -0.366 OA
ATOM     28  H   UNL     1      -1.413   1.434   4.493  0.00  0.00    +0.212 HD
ENDBRANCH   4  27
TORSDOF 6
