REMARK  Name = ZINC41586487
REMARK  8 active torsions:
REMARK  status: ('A' for Active; 'I' for Inactive)
REMARK    1  A    between atoms: C_1  and  C_2
REMARK    2  A    between atoms: C_2  and  O_3
REMARK    3  A    between atoms: O_3  and  C_4
REMARK    4  A    between atoms: C_4  and  C_6
REMARK    5  A    between atoms: N_11  and  C_13
REMARK    6  A    between atoms: C_13  and  C_14
REMARK    7  A    between atoms: C_15  and  O_32
REMARK    8  A    between atoms: C_22  and  C_23
REMARK                            x       y       z     vdW  Elec       q    Type
REMARK                         _______ _______ _______ _____ _____    ______ ____
ROOT
ATOM      1  C   UNL     1       2.889  -5.694   5.226  0.00  0.00    +0.020 A 
ATOM      2  C   UNL     1       4.260  -5.842   5.368  0.00  0.00    +0.122 A 
ATOM      3  C   UNL     1       4.794  -6.435   6.509  0.00  0.00    +0.046 A 
ATOM      4  C   UNL     1       3.967  -6.880   7.502  0.00  0.00    +0.019 A 
ATOM      5  C   UNL     1       2.586  -6.737   7.373  0.00  0.00    +0.068 A 
ATOM      6  C   UNL     1       2.035  -6.135   6.229  0.00  0.00    +0.144 A 
ATOM      7  O   UNL     1       0.689  -6.104   6.334  0.00  0.00    -0.451 OA
ATOM      8  C   UNL     1       0.261  -6.649   7.497  0.00  0.00    +0.176 C 
ATOM      9  C   UNL     1      -1.029  -6.768   7.899  0.00  0.00    +0.059 C 
ATOM     10  C   UNL     1       1.449  -7.101   8.239  0.00  0.00    +0.231 C 
ATOM     11  O   UNL     1       1.486  -7.643   9.330  0.00  0.00    -0.283 OA
ENDROOT
BRANCH   9  12
ATOM     12  C   UNL     1      -2.103  -6.140   7.119  0.00  0.00    -0.007 A 
ATOM     13  C   UNL     1      -1.869  -5.730   5.801  0.00  0.00    +0.009 A 
ATOM     14  C   UNL     1      -2.882  -5.141   5.075  0.00  0.00    +0.001 A 
ATOM     15  C   UNL     1      -4.130  -4.955   5.646  0.00  0.00    +0.001 A 
ATOM     16  C   UNL     1      -4.371  -5.357   6.948  0.00  0.00    +0.016 A 
ATOM     17  C   UNL     1      -3.369  -5.953   7.687  0.00  0.00    +0.025 A 
ATOM     18 BR   UNL     1      -3.703  -6.508   9.463  0.00  0.00    -0.050 Br
ENDBRANCH   9  12
BRANCH   2  19
ATOM     19  O   UNL     1       5.089  -5.404   4.387  0.00  0.00    -0.506 OA
ATOM     20  H   UNL     1       5.374  -4.486   4.493  0.00  0.00    +0.292 HD
ENDBRANCH   2  19
BRANCH   1  21
ATOM     21  C   UNL     1       2.325  -5.050   3.986  0.00  0.00    -0.036 C 
BRANCH  21  26
ATOM     22  C   UNL     1       1.364  -1.491   3.284  0.00  0.00    +0.081 C 
ATOM     23  C   UNL     1       2.734  -0.838   3.488  0.00  0.00    +0.011 C 
ATOM     24  C   UNL     1       3.451  -1.532   4.649  0.00  0.00    -0.018 C 
ATOM     25  C   UNL     1       3.561  -3.029   4.352  0.00  0.00    -0.078 C 
ATOM     26  N   UNL     1       2.218  -3.600   4.194  0.00  0.00    +0.383 N 
ATOM     27  C   UNL     1       1.550  -2.990   3.038  0.00  0.00    -0.064 C 
ATOM     28  H   UNL     1       1.677  -3.420   5.026  0.00  0.00    -0.081 HD
BRANCH  22  29
ATOM     29  C   UNL     1       0.681  -0.867   2.094  0.00  0.00    +0.308 C 
ATOM     30  O   UNL     1       0.373  -1.550   1.147  0.00  0.00    -0.251 OA
BRANCH  29  31
ATOM     31  O   UNL     1       0.415   0.449   2.087  0.00  0.00    -0.465 OA
BRANCH  31  33
ATOM     32  C   UNL     1      -0.452   2.478   1.101  0.00  0.00    +0.048 C 
ATOM     33  C   UNL     1      -0.234   0.973   0.927  0.00  0.00    +0.229 C 
ENDBRANCH  31  33
ENDBRANCH  29  31
ENDBRANCH  22  29
ENDBRANCH  21  26
ENDBRANCH   1  21
TORSDOF 7
