REMARK  Name = ZINC62346748
REMARK  9 active torsions:
REMARK  status: ('A' for Active; 'I' for Inactive)
REMARK    1  A    between atoms: C_1  and  C_2
REMARK    2  A    between atoms: C_4  and  C_22
REMARK    3  A    between atoms: C_5  and  C_9
REMARK    4  A    between atoms: C_6  and  C_8
REMARK    5  A    between atoms: C_9  and  C_11
REMARK    6  A    between atoms: C_11  and  N_12
REMARK    7  A    between atoms: N_12  and  C_13
REMARK    8  A    between atoms: N_12  and  C_14
REMARK    9  A    between atoms: N_17  and  C_20
REMARK                            x       y       z     vdW  Elec       q    Type
REMARK                         _______ _______ _______ _____ _____    ______ ____
ROOT
ATOM      1  C   UNL     1      -0.533  -4.127  -0.447  0.00  0.00    +0.125 C 
ATOM      2 CL   UNL     1      -1.284  -4.586  -2.021  0.00  0.00    -0.115 Cl
ENDROOT
BRANCH   1   7
ATOM      3  C   UNL     1       0.840   1.486  -0.531  0.00  0.00    +0.044 C 
ATOM      4  C   UNL     1       0.482   0.022  -0.509  0.00  0.00    -0.050 A 
ATOM      5  C   UNL     1      -0.142  -0.521   0.599  0.00  0.00    +0.007 A 
ATOM      6  C   UNL     1      -0.470  -1.863   0.619  0.00  0.00    -0.045 A 
ATOM      7  C   UNL     1      -0.176  -2.663  -0.469  0.00  0.00    -0.023 A 
ATOM      8  C   UNL     1       0.447  -2.120  -1.578  0.00  0.00    -0.045 A 
ATOM      9  C   UNL     1       0.772  -0.777  -1.599  0.00  0.00    +0.007 A 
ATOM     10  C   UNL     1       0.768  -2.992  -2.764  0.00  0.00    +0.044 C 
ATOM     11  C   UNL     1      -1.149  -2.455   1.827  0.00  0.00    +0.044 C 
ENDBRANCH   1   7
BRANCH   1  12
ATOM     12  C   UNL     1       0.732  -4.957  -0.224  0.00  0.00    +0.108 C 
BRANCH  12  13
ATOM     13  N   UNL     1       0.407  -6.386  -0.336  0.00  0.00    -0.301 NA
ATOM     14  C   UNL     1      -0.485  -6.809   0.751  0.00  0.00    +0.105 C 
BRANCH  13  15
ATOM     15  C   UNL     1       1.627  -7.203  -0.364  0.00  0.00    +0.053 C 
ATOM     16  C   UNL     1       2.287  -7.186   1.018  0.00  0.00    +0.000 C 
ATOM     17  C   UNL     1       3.513  -8.102   1.003  0.00  0.00    -0.078 C 
ATOM     18  N   UNL     1       3.100  -9.471   0.673  0.00  0.00    +0.378 N 
ATOM     19  C   UNL     1       2.532  -9.508  -0.679  0.00  0.00    -0.078 C 
ATOM     20  C   UNL     1       1.268  -8.646  -0.729  0.00  0.00    +0.000 C 
ATOM     21  C   UNL     1       4.267 -10.361   0.737  0.00  0.00    -0.096 C 
ATOM     22  H   UNL     1       2.407  -9.782   1.337  0.00  0.00    -0.082 HD
ENDBRANCH  13  15
ENDBRANCH  12  13
ENDBRANCH   1  12
TORSDOF 4
