REMARK  Name = ZINC05127880
REMARK  3 active torsions:
REMARK  status: ('A' for Active; 'I' for Inactive)
REMARK    1  A    between atoms: C_9  and  C_11
REMARK    2  A    between atoms: C_11  and  C_13
REMARK    3  A    between atoms: C_14  and  C_15
REMARK                            x       y       z     vdW  Elec       q    Type
REMARK                         _______ _______ _______ _____ _____    ______ ____
ROOT
ATOM      1  C   UNL     1       5.965  -1.869  -0.065  0.00  0.00    +0.019 A 
ATOM      2  C   UNL     1       4.587  -1.831  -0.052  0.00  0.00    +0.048 A 
ATOM      3  C   UNL     1       3.928  -0.607  -0.039  0.00  0.00    +0.136 A 
ATOM      4  C   UNL     1       4.686   0.579  -0.039  0.00  0.00    +0.022 A 
ATOM      5  C   UNL     1       6.081   0.519  -0.053  0.00  0.00    +0.027 A 
ATOM      6  C   UNL     1       6.707  -0.696  -0.065  0.00  0.00    +0.019 A 
ATOM      7 BR   UNL     1       8.596  -0.780  -0.082  0.00  0.00    -0.050 Br
ATOM      8  C   UNL     1       3.713   1.671  -0.030  0.00  0.00    +0.061 A 
ATOM      9  C   UNL     1       2.488   1.082  -0.016  0.00  0.00    +0.176 A 
ATOM     10  O   UNL     1       2.627  -0.259  -0.025  0.00  0.00    -0.452 OA
ENDROOT
BRANCH   9  11
ATOM     11  C   UNL     1       1.204   1.800   0.000  0.00  0.00    +0.221 C 
ATOM     12  O   UNL     1       1.187   3.019   0.007  0.00  0.00    -0.284 OA
BRANCH  11  13
ATOM     13  C   UNL     1      -0.013   1.076   0.008  0.00  0.00    +0.055 C 
ATOM     14  C   UNL     1      -1.195   1.737   0.017  0.00  0.00    +0.012 C 
BRANCH  14  15
ATOM     15  C   UNL     1      -2.454   0.987   0.019  0.00  0.00    -0.018 A 
ATOM     16  C   UNL     1      -3.732   1.657   0.029  0.00  0.00    +0.015 A 
ATOM     17  C   UNL     1      -4.832   0.880   0.029  0.00  0.00    +0.046 A 
ATOM     18  S   UNL     1      -4.163  -0.771   0.017  0.00  0.00    -0.104 S 
ATOM     19  C   UNL     1      -2.473  -0.396   0.006  0.00  0.00    +0.053 A 
ENDBRANCH  14  15
ENDBRANCH  11  13
ENDBRANCH   9  11
TORSDOF 3
