REMARK  Name = ZINC57366644
REMARK  7 active torsions:
REMARK  status: ('A' for Active; 'I' for Inactive)
REMARK    1  A    between atoms: C_1  and  C_2
REMARK    2  A    between atoms: C_5  and  N_8
REMARK    3  A    between atoms: N_8  and  C_9
REMARK    4  A    between atoms: C_12  and  S_18
REMARK    5  A    between atoms: C_14  and  N_15
REMARK    6  A    between atoms: S_18  and  N_21
REMARK    7  A    between atoms: N_24  and  C_27
REMARK                            x       y       z     vdW  Elec       q    Type
REMARK                         _______ _______ _______ _____ _____    ______ ____
ROOT
ATOM      1  C   UNL     1       0.009  -4.787   1.231  0.00  0.00    +0.062 A 
ATOM      2  C   UNL     1      -0.070  -4.017   2.386  0.00  0.00    +0.027 A 
ATOM      3  C   UNL     1      -0.061  -4.629   3.623  0.00  0.00    +0.030 A 
ATOM      4  C   UNL     1       0.027  -6.007   3.715  0.00  0.00    +0.108 A 
ATOM      5  C   UNL     1       0.105  -6.775   2.568  0.00  0.00    +0.063 A 
ATOM      6  C   UNL     1       0.091  -6.170   1.327  0.00  0.00    +0.149 A 
ENDROOT
BRANCH   6   7
ATOM      7  N   UNL     1       0.169  -6.994   0.100  0.00  0.00    +0.058 N 
ATOM      8  O   UNL     1       0.124  -8.200   0.177  0.00  0.00    -0.126 OA
ATOM      9  O   UNL     1       0.278  -6.462  -0.980  0.00  0.00    -0.126 OA
ENDBRANCH   6   7
BRANCH   4  10
ATOM     10  S   UNL     1       0.040  -6.783   5.296  0.00  0.00    +0.061 S 
ATOM     11  O   UNL     1       0.678  -8.041   5.126  0.00  0.00    -0.153 OA
ATOM     12  O   UNL     1       0.506  -5.812   6.223  0.00  0.00    -0.153 OA
BRANCH  10  13
ATOM     13  N   UNL     1      -1.535  -7.102   5.698  0.00  0.00    -0.174 NA
ATOM     14  C   UNL     1      -2.342  -6.115   6.431  0.00  0.00    +0.125 C 
ATOM     15  C   UNL     1      -3.661  -5.909   5.678  0.00  0.00    +0.101 C 
ATOM     16  N   UNL     1      -4.310  -7.210   5.468  0.00  0.00    -0.303 NA
ATOM     17  C   UNL     1      -3.489  -8.085   4.621  0.00  0.00    +0.101 C 
ATOM     18  C   UNL     1      -2.166  -8.378   5.325  0.00  0.00    +0.125 C 
ATOM     19  C   UNL     1      -5.656  -7.041   4.904  0.00  0.00    +0.105 C 
ENDBRANCH  10  13
ENDBRANCH   4  10
BRANCH   1  20
ATOM     20  N   UNL     1      -0.001  -4.171  -0.023  0.00  0.00    -0.313 N 
ATOM     21  H   UNL     1       0.801  -3.740  -0.357  0.00  0.00    +0.152 HD
BRANCH  20  26
ATOM     22  C   UNL     1      -4.727  -4.194  -3.157  0.00  0.00    +0.044 C 
ATOM     23  C   UNL     1      -3.471  -4.187  -2.324  0.00  0.00    -0.050 A 
ATOM     24  C   UNL     1      -2.356  -3.497  -2.762  0.00  0.00    +0.005 A 
ATOM     25  C   UNL     1      -1.204  -3.489  -2.002  0.00  0.00    +0.023 A 
ATOM     26  C   UNL     1      -1.165  -4.176  -0.795  0.00  0.00    +0.031 A 
ATOM     27  C   UNL     1      -2.287  -4.869  -0.358  0.00  0.00    +0.023 A 
ATOM     28  C   UNL     1      -3.438  -4.868  -1.121  0.00  0.00    +0.005 A 
ENDBRANCH  20  26
ENDBRANCH   1  20
TORSDOF 5
