REMARK  Name = ZINC65438993
REMARK  7 active torsions:
REMARK  status: ('A' for Active; 'I' for Inactive)
REMARK    1  A    between atoms: C_1  and  C_2
REMARK    2  A    between atoms: N_6  and  C_8
REMARK    3  A    between atoms: C_8  and  C_9
REMARK    4  A    between atoms: C_8  and  C_10
REMARK    5  A    between atoms: C_8  and  C_11
REMARK    6  A    between atoms: C_11  and  N_12
REMARK    7  A    between atoms: C_19  and  C_21
REMARK                            x       y       z     vdW  Elec       q    Type
REMARK                         _______ _______ _______ _____ _____    ______ ____
ROOT
ATOM      1  N   UNL     1       2.189  -4.461   1.137  0.00  0.00    -0.300 N 
ATOM      2  C   UNL     1       2.323  -5.782   0.909  0.00  0.00    +0.305 C 
ATOM      3  O   UNL     1       1.928  -6.584   1.733  0.00  0.00    -0.252 OA
ATOM      4  N   UNL     1       2.894  -6.215  -0.232  0.00  0.00    -0.247 N 
ATOM      5  C   UNL     1       3.032  -7.578  -0.468  0.00  0.00    +0.189 A 
ATOM      6  N   UNL     1       2.668  -8.594   0.290  0.00  0.00    -0.125 NA
ATOM      7  N   UNL     1       2.861  -9.792  -0.062  0.00  0.00    -0.136 NA
ATOM      8  C   UNL     1       3.443 -10.035  -1.218  0.00  0.00    +0.206 A 
ATOM      9  S   UNL     1       3.703  -8.365  -1.800  0.00  0.00    -0.027 S 
ATOM     10  H   UNL     1       2.503  -3.821   0.480  0.00  0.00    +0.150 HD
ATOM     11  H   UNL     1       3.208  -5.574  -0.890  0.00  0.00    +0.158 HD
ENDROOT
BRANCH   8  12
ATOM     12  C   UNL     1       3.789 -11.350  -1.869  0.00  0.00    +0.443 C 
ATOM     13  F   UNL     1       3.288 -12.400  -1.094  0.00  0.00    -0.164 F 
ATOM     14  F   UNL     1       3.221 -11.401  -3.147  0.00  0.00    -0.164 F 
ATOM     15  F   UNL     1       5.179 -11.468  -1.972  0.00  0.00    -0.164 F 
ENDBRANCH   8  12
BRANCH   1  16
ATOM     16  C   UNL     1       1.568  -3.991   2.378  0.00  0.00    +0.093 C 
BRANCH  16  17
ATOM     17  C   UNL     1       1.539  -2.461   2.387  0.00  0.00    -0.055 C 
ATOM     18  C   UNL     1       2.969  -1.923   2.296  0.00  0.00    -0.008 C 
ATOM     19  C   UNL     1       0.891  -1.970   3.683  0.00  0.00    -0.008 C 
BRANCH  17  25
ATOM     20  C   UNL     1      -0.019   1.526   0.010  0.00  0.00    +0.005 C 
ATOM     21  C   UNL     1       0.002  -0.004   0.002  0.00  0.00    -0.031 C 
ATOM     22  C   UNL     1      -1.434  -0.535   0.018  0.00  0.00    -0.001 C 
ATOM     23  C   UNL     1      -1.402  -2.064   0.089  0.00  0.00    -0.018 C 
ATOM     24  C   UNL     1      -0.610  -2.496   1.325  0.00  0.00    -0.078 C 
ATOM     25  N   UNL     1       0.761  -1.980   1.237  0.00  0.00    +0.384 N 
ATOM     26  C   UNL     1       0.742  -0.512   1.241  0.00  0.00    -0.075 C 
ATOM     27  H   UNL     1       1.189  -2.307   0.384  0.00  0.00    -0.081 HD
ENDBRANCH  17  25
ENDBRANCH  16  17
ENDBRANCH   1  16
TORSDOF 4
