REMARK  Name = ZINC03902452
REMARK  3 active torsions:
REMARK  status: ('A' for Active; 'I' for Inactive)
REMARK    1  A    between atoms: C_1  and  C_2
REMARK    2  A    between atoms: C_4  and  O_25
REMARK    3  A    between atoms: C_11  and  O_24
REMARK                            x       y       z     vdW  Elec       q    Type
REMARK                         _______ _______ _______ _____ _____    ______ ____
ROOT
ATOM      1  C   UNL     1      -0.019   1.530   0.011  0.00  0.00    +0.019 C 
ATOM      2  C   UNL     1       0.002  -0.004   0.002  0.00  0.00    +0.032 C 
ATOM      3  C   UNL     1       0.634  -0.462  -1.292  0.00  0.00    +0.046 C 
ATOM      4  C   UNL     1       0.872  -1.970  -1.298  0.00  0.00    +0.123 C 
ATOM      5  C   UNL     1       1.802  -2.324  -0.132  0.00  0.00    +0.051 C 
ATOM      6  C   UNL     1       2.095  -3.803  -0.180  0.00  0.00    -0.038 A 
ATOM      7  C   UNL     1       3.052  -4.245  -1.084  0.00  0.00    +0.008 A 
ATOM      8  C   UNL     1       3.358  -5.585  -1.186  0.00  0.00    +0.046 A 
ATOM      9  C   UNL     1       2.707  -6.501  -0.372  0.00  0.00    +0.117 A 
ATOM     10  C   UNL     1       1.762  -6.059   0.538  0.00  0.00    +0.049 A 
ATOM     11  C   UNL     1       1.458  -4.707   0.639  0.00  0.00    -0.040 A 
ATOM     12  C   UNL     1       0.434  -4.298   1.665  0.00  0.00    +0.036 C 
ATOM     13  C   UNL     1      -0.081  -2.883   1.393  0.00  0.00    +0.009 C 
ATOM     14  C   UNL     1       1.118  -1.964   1.181  0.00  0.00    +0.003 C 
ATOM     15  C   UNL     1       0.749  -0.492   1.253  0.00  0.00    +0.006 C 
ATOM     16  C   UNL     1      -0.312  -0.302   2.371  0.00  0.00    +0.012 C 
ATOM     17  C   UNL     1      -1.675  -0.475   1.672  0.00  0.00    +0.075 C 
ATOM     18  C   UNL     1      -1.413  -0.501   0.177  0.00  0.00    +0.140 C 
ATOM     19  O   UNL     1      -2.176  -0.847  -0.690  0.00  0.00    -0.297 OA
ENDROOT
BRANCH   9  20
ATOM     20  O   UNL     1       2.994  -7.826  -0.470  0.00  0.00    -0.507 OA
ATOM     21  H   UNL     1       3.709  -8.117   0.112  0.00  0.00    +0.292 HD
ENDBRANCH   9  20
BRANCH   4  22
ATOM     22  O   UNL     1       1.483  -2.346  -2.535  0.00  0.00    -0.391 OA
ATOM     23  H   UNL     1       0.952  -2.136  -3.316  0.00  0.00    +0.210 HD
ENDBRANCH   4  22
TORSDOF 2
