REMARK  Name = ZINC55054003
REMARK  6 active torsions:
REMARK  status: ('A' for Active; 'I' for Inactive)
REMARK    1  A    between atoms: C_1  and  C_2
REMARK    2  A    between atoms: C_7  and  C_12
REMARK    3  A    between atoms: C_12  and  N_14
REMARK    4  A    between atoms: N_23  and  C_24
REMARK    5  A    between atoms: C_24  and  C_25
REMARK    6  A    between atoms: C_25  and  N_26
REMARK                            x       y       z     vdW  Elec       q    Type
REMARK                         _______ _______ _______ _____ _____    ______ ____
ROOT
ATOM      1  N   UNL     1       1.512  -6.298  -0.946  0.00  0.00    -0.142 NA
ATOM      2  C   UNL     1       1.378  -7.139  -1.963  0.00  0.00    +0.201 A 
ATOM      3  N   UNL     1       1.046  -6.792  -3.236  0.00  0.00    -0.326 N 
ATOM      4  C   UNL     1       1.006  -7.949  -4.008  0.00  0.00    +0.066 A 
ATOM      5  C   UNL     1       0.728  -8.186  -5.347  0.00  0.00    +0.028 A 
ATOM      6  C   UNL     1       0.766  -9.474  -5.840  0.00  0.00    +0.002 A 
ATOM      7  C   UNL     1       1.081 -10.533  -5.005  0.00  0.00    +0.002 A 
ATOM      8  C   UNL     1       1.360 -10.309  -3.672  0.00  0.00    +0.028 A 
ATOM      9  C   UNL     1       1.324  -9.017  -3.166  0.00  0.00    +0.068 A 
ATOM     10  N   UNL     1       1.557  -8.487  -1.900  0.00  0.00    -0.314 N 
ATOM     11  H   UNL     1       0.868  -5.892  -3.552  0.00  0.00    +0.169 HD
ENDROOT
BRANCH   1  12
ATOM     12  C   UNL     1       1.199  -5.004  -1.102  0.00  0.00    +0.271 C 
ATOM     13  O   UNL     1       0.883  -4.582  -2.201  0.00  0.00    -0.268 OA
BRANCH  12  19
ATOM     14  C   UNL     1      -0.092   1.508   0.033  0.00  0.00    +0.008 C 
ATOM     15  C   UNL     1      -0.056  -0.021   0.021  0.00  0.00    -0.009 C 
ATOM     16  C   UNL     1       0.665  -0.508  -1.239  0.00  0.00    +0.008 C 
ATOM     17  C   UNL     1       0.493  -2.021  -1.388  0.00  0.00    +0.037 C 
ATOM     18  C   UNL     1       0.903  -2.689  -0.084  0.00  0.00    -0.025 A 
ATOM     19  C   UNL     1       1.237  -4.091   0.057  0.00  0.00    +0.049 A 
ATOM     20  C   UNL     1       1.587  -4.541   1.297  0.00  0.00    +0.058 A 
ATOM     21  S   UNL     1       1.490  -3.178   2.274  0.00  0.00    -0.101 S 
ATOM     22  C   UNL     1       0.984  -1.985   1.069  0.00  0.00    -0.006 A 
ATOM     23  C   UNL     1       0.701  -0.528   1.258  0.00  0.00    +0.046 C 
ENDBRANCH  12  19
ENDBRANCH   1  12
BRANCH  10  24
ATOM     24  C   UNL     1       1.928  -9.249  -0.705  0.00  0.00    +0.106 C 
BRANCH  24  25
ATOM     25  C   UNL     1       0.661  -9.685   0.035  0.00  0.00    -0.057 C 
BRANCH  25  26
ATOM     26  N   UNL     1       1.033 -10.449   1.233  0.00  0.00    +0.381 N 
ATOM     27  C   UNL     1       1.705 -11.690   0.831  0.00  0.00    -0.079 C 
ATOM     28  C   UNL     1       2.166 -12.451   2.076  0.00  0.00    -0.019 C 
ATOM     29  C   UNL     1       0.949 -12.785   2.943  0.00  0.00    -0.004 C 
ATOM     30  C   UNL     1       0.214 -11.489   3.295  0.00  0.00    -0.019 C 
ATOM     31  C   UNL     1      -0.175 -10.764   2.005  0.00  0.00    -0.079 C 
ATOM     32  H   UNL     1       1.660  -9.898   1.801  0.00  0.00    -0.082 HD
ENDBRANCH  25  26
ENDBRANCH  24  25
ENDBRANCH  10  24
TORSDOF 5
