REMARK  Name = ZINC67076936
REMARK  7 active torsions:
REMARK  status: ('A' for Active; 'I' for Inactive)
REMARK    1  A    between atoms: C_1  and  C_2
REMARK    2  A    between atoms: C_4  and  C_8
REMARK    3  A    between atoms: C_5  and  C_7
REMARK    4  A    between atoms: C_8  and  C_10
REMARK    5  A    between atoms: C_8  and  N_11
REMARK    6  A    between atoms: C_12  and  C_14
REMARK    7  A    between atoms: C_14  and  N_15
REMARK                            x       y       z     vdW  Elec       q    Type
REMARK                         _______ _______ _______ _____ _____    ______ ____
ROOT
ATOM      1  N   UNL     1      -5.400  -5.017  -2.297  0.00  0.00    -0.215 N 
ATOM      2  C   UNL     1      -5.214  -5.440  -3.567  0.00  0.00    +0.251 C 
ATOM      3  O   UNL     1      -4.565  -4.898  -4.435  0.00  0.00    -0.272 OA
ATOM      4  C   UNL     1      -5.985  -6.730  -3.671  0.00  0.00    +0.138 C 
ATOM      5  C   UNL     1      -7.067  -6.645  -4.756  0.00  0.00    +0.045 C 
ATOM      6  C   UNL     1      -7.114  -8.097  -5.282  0.00  0.00    +0.038 C 
ATOM      7  C   UNL     1      -5.745  -8.672  -4.987  0.00  0.00    -0.042 A 
ATOM      8  C   UNL     1      -5.095  -7.881  -4.054  0.00  0.00    -0.012 A 
ATOM      9  C   UNL     1      -3.821  -8.222  -3.633  0.00  0.00    +0.006 A 
ATOM     10  C   UNL     1      -3.197  -9.346  -4.140  0.00  0.00    +0.000 A 
ATOM     11  C   UNL     1      -3.845 -10.134  -5.071  0.00  0.00    +0.000 A 
ATOM     12  C   UNL     1      -5.117  -9.797  -5.492  0.00  0.00    +0.004 A 
ATOM     13  N   UNL     1      -6.574  -6.916  -2.345  0.00  0.00    -0.281 N 
ATOM     14  C   UNL     1      -6.171  -5.864  -1.603  0.00  0.00    +0.310 C 
ATOM     15  O   UNL     1      -6.476  -5.702  -0.438  0.00  0.00    -0.252 OA
ATOM     16  H   UNL     1      -7.138  -7.651  -2.056  0.00  0.00    +0.152 HD
ENDROOT
BRANCH   1  17
ATOM     17  C   UNL     1      -4.825  -3.787  -1.746  0.00  0.00    +0.213 C 
BRANCH  17  19
ATOM     18  N   UNL     1      -2.752  -3.099  -0.586  0.00  0.00    -0.307 N 
ATOM     19  C   UNL     1      -3.473  -4.086  -1.154  0.00  0.00    +0.231 C 
ATOM     20  O   UNL     1      -3.032  -5.216  -1.188  0.00  0.00    -0.274 OA
ATOM     21  H   UNL     1      -3.105  -2.196  -0.558  0.00  0.00    +0.149 HD
BRANCH  18  22
ATOM     22  C   UNL     1      -1.437  -3.390  -0.009  0.00  0.00    +0.103 C 
ATOM     23  C   UNL     1      -1.609  -3.892   1.426  0.00  0.00    +0.033 C 
BRANCH  22  27
ATOM     24  C   UNL     1      -0.018   1.503   0.010  0.00  0.00    +0.086 C 
ATOM     25  C   UNL     1       0.002  -0.004   0.002  0.00  0.00    +0.103 A 
ATOM     26  C   UNL     1      -1.078  -0.805   0.003  0.00  0.00    +0.050 A 
ATOM     27  C   UNL     1      -0.601  -2.136  -0.007  0.00  0.00    +0.013 A 
ATOM     28  C   UNL     1       0.742  -2.069  -0.013  0.00  0.00    +0.107 A 
ATOM     29  O   UNL     1       1.102  -0.775  -0.013  0.00  0.00    -0.465 OA
ATOM     30  C   UNL     1       1.684  -3.245  -0.023  0.00  0.00    +0.086 C 
ENDBRANCH  22  27
ENDBRANCH  18  22
ENDBRANCH  17  19
ENDBRANCH   1  17
TORSDOF 4
