REMARK  Name = ZINC20591366
REMARK  9 active torsions:
REMARK  status: ('A' for Active; 'I' for Inactive)
REMARK    1  A    between atoms: C_1  and  C_2
REMARK    2  A    between atoms: N_13  and  C_18
REMARK    3  A    between atoms: C_15  and  C_16
REMARK    4  A    between atoms: C_18  and  C_19
REMARK    5  A    between atoms: C_19  and  C_21
REMARK    6  A    between atoms: C_19  and  O_36
REMARK    7  A    between atoms: C_21  and  N_22
REMARK    8  A    between atoms: C_30  and  C_35
REMARK    9  A    between atoms: C_32  and  C_34
REMARK                            x       y       z     vdW  Elec       q    Type
REMARK                         _______ _______ _______ _____ _____    ______ ____
ROOT
ATOM      1  C   UNL     1      -1.823   4.037  -2.117  0.00  0.00    +0.156 C 
ENDROOT
BRANCH   1  14
ATOM      2  C   UNL     1      -6.107   6.218   0.708  0.00  0.00    +0.045 C 
ATOM      3  C   UNL     1      -4.894   6.675  -0.061  0.00  0.00    -0.024 A 
ATOM      4  C   UNL     1      -4.622   8.005  -0.197  0.00  0.00    +0.075 A 
ATOM      5  C   UNL     1      -3.492   8.418  -0.912  0.00  0.00    +0.258 A 
ATOM      6  O   UNL     1      -3.256   9.609  -1.030  0.00  0.00    -0.267 OA
ATOM      7  N   UNL     1      -2.661   7.517  -1.474  0.00  0.00    -0.260 N 
ATOM      8  C   UNL     1      -1.495   7.684  -2.220  0.00  0.00    +0.075 A 
ATOM      9  C   UNL     1      -0.795   8.807  -2.638  0.00  0.00    +0.028 A 
ATOM     10  C   UNL     1       0.357   8.660  -3.384  0.00  0.00    +0.002 A 
ATOM     11  C   UNL     1       0.817   7.397  -3.717  0.00  0.00    +0.002 A 
ATOM     12  C   UNL     1       0.128   6.274  -3.307  0.00  0.00    +0.028 A 
ATOM     13  C   UNL     1      -1.032   6.411  -2.555  0.00  0.00    +0.068 A 
ATOM     14  N   UNL     1      -1.921   5.494  -2.010  0.00  0.00    -0.322 N 
ATOM     15  C   UNL     1      -2.906   6.184  -1.362  0.00  0.00    +0.140 A 
ATOM     16  C   UNL     1      -4.026   5.735  -0.648  0.00  0.00    +0.096 A 
BRANCH  16  17
ATOM     17  C   UNL     1      -4.287   4.333  -0.521  0.00  0.00    +0.103 C 
ATOM     18  N   UNL     1      -4.494   3.220  -0.421  0.00  0.00    -0.191 NA
ENDBRANCH  16  17
ENDBRANCH   1  14
BRANCH   1  19
ATOM     19  C   UNL     1      -1.008   3.493  -0.941  0.00  0.00    +0.148 C 
BRANCH  19  20
ATOM     20  O   UNL     1      -1.712   3.736   0.279  0.00  0.00    -0.389 OA
ATOM     21  H   UNL     1      -1.279   3.413   1.237  0.00  0.00    +0.210 HD
ENDBRANCH  19  20
BRANCH  19  22
ATOM     22  C   UNL     1      -0.800   1.987  -1.118  0.00  0.00    +0.117 C 
BRANCH  22  23
ATOM     23  N   UNL     1      -0.018   1.465   0.010  0.00  0.00    -0.297 NA
ATOM     24  C   UNL     1       1.348   2.008   0.000  0.00  0.00    +0.103 C 
ATOM     25  C   UNL     1       2.103   1.504   1.232  0.00  0.00    +0.123 C 
ATOM     26  N   UNL     1       2.123   0.034   1.224  0.00  0.00    -0.297 N 
ATOM     27  C   UNL     1       0.757  -0.508   1.234  0.00  0.00    +0.123 C 
ATOM     28  C   UNL     1       0.002  -0.004   0.002  0.00  0.00    +0.103 C 
ATOM     29  C   UNL     1       2.860  -0.458   2.287  0.00  0.00    +0.218 A 
ATOM     30  N   UNL     1       2.288  -1.298   3.137  0.00  0.00    -0.220 NA
ATOM     31  C   UNL     1       2.966  -1.791   4.160  0.00  0.00    +0.044 A 
ATOM     32  C   UNL     1       4.286  -1.409   4.344  0.00  0.00    +0.046 A 
ATOM     33  C   UNL     1       4.851  -0.524   3.440  0.00  0.00    +0.044 A 
ATOM     34  N   UNL     1       4.119  -0.072   2.434  0.00  0.00    -0.220 NA
ATOM     35  C   UNL     1       6.283  -0.081   3.600  0.00  0.00    +0.066 C 
ATOM     36  C   UNL     1       2.310  -2.752   5.118  0.00  0.00    +0.066 C 
ENDBRANCH  22  23
ENDBRANCH  19  22
ENDBRANCH   1  19
TORSDOF 6
