REMARK  Name = ZINC11442355
REMARK  7 active torsions:
REMARK  status: ('A' for Active; 'I' for Inactive)
REMARK    1  A    between atoms: C_3  and  C_16
REMARK    2  A    between atoms: C_5  and  S_7
REMARK    3  A    between atoms: S_7  and  N_10
REMARK    4  A    between atoms: C_16  and  O_18
REMARK    5  A    between atoms: O_18  and  C_19
REMARK    6  A    between atoms: C_19  and  C_20
REMARK    7  A    between atoms: N_22  and  C_23
REMARK                            x       y       z     vdW  Elec       q    Type
REMARK                         _______ _______ _______ _____ _____    ______ ____
ROOT
ATOM      1  C   UNL     1      -1.303   4.900  -3.648  0.00  0.00    +0.340 C 
ATOM      2  O   UNL     1      -0.494   5.664  -3.162  0.00  0.00    -0.245 OA
ENDROOT
BRANCH   1   5
ATOM      3  C   UNL     1      -2.618   1.433  -3.057  0.00  0.00    +0.003 A 
ATOM      4  C   UNL     1      -2.434   2.682  -3.614  0.00  0.00    +0.015 A 
ATOM      5  C   UNL     1      -1.505   3.562  -3.057  0.00  0.00    +0.061 A 
ATOM      6  C   UNL     1      -0.767   3.171  -1.938  0.00  0.00    +0.043 A 
ATOM      7  C   UNL     1      -0.960   1.920  -1.391  0.00  0.00    +0.106 A 
ATOM      8  C   UNL     1      -1.879   1.050  -1.952  0.00  0.00    +0.028 A 
BRANCH   7   9
ATOM      9  S   UNL     1      -0.030   1.425   0.021  0.00  0.00    +0.061 S 
ATOM     10  O   UNL     1      -0.004   0.004   0.013  0.00  0.00    -0.153 OA
ATOM     11  O   UNL     1       1.156   2.208   0.022  0.00  0.00    -0.153 OA
BRANCH   9  12
ATOM     12  N   UNL     1      -0.895   1.874   1.360  0.00  0.00    -0.177 NA
ATOM     13  C   UNL     1      -0.693   3.194   1.973  0.00  0.00    +0.109 C 
ATOM     14  C   UNL     1      -2.055   3.894   2.085  0.00  0.00    +0.017 C 
ATOM     15  C   UNL     1      -3.027   2.990   2.846  0.00  0.00    +0.003 C 
ATOM     16  C   UNL     1      -3.220   1.682   2.076  0.00  0.00    +0.017 C 
ATOM     17  C   UNL     1      -1.874   0.959   1.961  0.00  0.00    +0.109 C 
ENDBRANCH   9  12
ENDBRANCH   7   9
ENDBRANCH   1   5
BRANCH   1  18
ATOM     18  O   UNL     1      -2.017   5.274  -4.728  0.00  0.00    -0.452 OA
BRANCH  18  19
ATOM     19  C   UNL     1      -1.766   6.603  -5.256  0.00  0.00    +0.328 C 
BRANCH  19  20
ATOM     20  C   UNL     1      -2.650   6.843  -6.453  0.00  0.00    +0.255 C 
ATOM     21  O   UNL     1      -3.415   5.979  -6.825  0.00  0.00    -0.272 OA
ATOM     22  N   UNL     1      -2.589   8.018  -7.111  0.00  0.00    -0.283 N 
ATOM     23  H   UNL     1      -2.027   8.733  -6.775  0.00  0.00    +0.155 HD
BRANCH  22  24
ATOM     24  C   UNL     1      -3.338   8.206  -8.280  0.00  0.00    +0.037 A 
ATOM     25  C   UNL     1      -4.592   7.623  -8.402  0.00  0.00    +0.027 A 
ATOM     26  C   UNL     1      -5.332   7.807  -9.554  0.00  0.00    +0.051 A 
ATOM     27  C   UNL     1      -4.825   8.574 -10.591  0.00  0.00    +0.173 A 
ATOM     28  C   UNL     1      -3.568   9.161 -10.471  0.00  0.00    +0.174 A 
ATOM     29  C   UNL     1      -2.829   8.979  -9.314  0.00  0.00    +0.073 A 
ATOM     30  O   UNL     1      -3.300   9.858 -11.614  0.00  0.00    -0.395 OA
ATOM     31  C   UNL     1      -4.573  10.031 -12.265  0.00  0.00    +0.589 C 
ATOM     32  O   UNL     1      -5.346   8.905 -11.809  0.00  0.00    -0.395 OA
ATOM     33  F   UNL     1      -5.170  11.231 -11.867  0.00  0.00    -0.125 F 
ATOM     34  F   UNL     1      -4.422   9.996 -13.656  0.00  0.00    -0.125 F 
ENDBRANCH  22  24
ENDBRANCH  19  20
ENDBRANCH  18  19
ENDBRANCH   1  18
TORSDOF 7
