REMARK  Name = ZINC65380528
REMARK  4 active torsions:
REMARK  status: ('A' for Active; 'I' for Inactive)
REMARK    1  A    between atoms: C_1  and  C_2
REMARK    2  A    between atoms: C_2  and  N_3
REMARK    3  A    between atoms: C_7  and  C_8
REMARK    4  A    between atoms: C_18  and  C_21
REMARK                            x       y       z     vdW  Elec       q    Type
REMARK                         _______ _______ _______ _____ _____    ______ ____
ROOT
ATOM      1  C   UNL     1      -1.918  -0.225  -2.462  0.00  0.00    +0.157 A 
ATOM      2  N   UNL     1      -0.707   0.201  -2.929  0.00  0.00    -0.340 N 
ATOM      3  H   UNL     1       0.106   0.301  -2.408  0.00  0.00    +0.167 HD
ATOM      4  C   UNL     1      -0.849   0.460  -4.262  0.00  0.00    +0.049 A 
ATOM      5  C   UNL     1      -2.138   0.176  -4.592  0.00  0.00    +0.147 A 
ATOM      6  N   UNL     1      -2.766  -0.240  -3.460  0.00  0.00    -0.221 NA
ATOM      7  C   UNL     1      -2.795   0.257  -5.895  0.00  0.00    +0.264 C 
ATOM      8  O   UNL     1      -3.970  -0.059  -5.911  0.00  0.00    -0.268 OA
ATOM      9  N   UNL     1      -2.292   0.623  -7.051  0.00  0.00    -0.309 N 
ATOM     10  C   UNL     1      -0.978   1.125  -7.350  0.00  0.00    +0.113 C 
ATOM     11  C   UNL     1       0.130   0.475  -6.567  0.00  0.00    +0.042 C 
ATOM     12  C   UNL     1       0.241   0.971  -5.149  0.00  0.00    +0.065 C 
ATOM     13  H   UNL     1      -2.891   0.543  -7.811  0.00  0.00    +0.149 HD
ENDROOT
BRANCH  11  14
ATOM     14  C   UNL     1       1.436   0.741  -7.271  0.00  0.00    -0.042 A 
ATOM     15  C   UNL     1       1.868   2.040  -7.460  0.00  0.00    +0.005 A 
ATOM     16  C   UNL     1       3.066   2.284  -8.105  0.00  0.00    +0.020 A 
ATOM     17  C   UNL     1       3.833   1.227  -8.562  0.00  0.00    +0.041 A 
ATOM     18  C   UNL     1       3.400  -0.073  -8.372  0.00  0.00    +0.020 A 
ATOM     19  C   UNL     1       2.205  -0.316  -7.722  0.00  0.00    +0.005 A 
ATOM     20 CL   UNL     1       5.337   1.533  -9.373  0.00  0.00    -0.084 Cl
ENDBRANCH  11  14
BRANCH   1  25
ATOM     21  N   UNL     1      -1.321  -0.702  -0.029  0.00  0.00    -0.328 N 
ATOM     22  C   UNL     1      -2.020  -1.078   1.062  0.00  0.00    +0.199 A 
ATOM     23  N   UNL     1      -3.277  -1.219   0.736  0.00  0.00    -0.243 NA
ATOM     24  C   UNL     1      -3.437  -0.944  -0.562  0.00  0.00    +0.142 A 
ATOM     25  C   UNL     1      -2.218  -0.608  -1.072  0.00  0.00    +0.104 A 
BRANCH  21  27
ATOM     26  C   UNL     1       0.364   1.071  -0.019  0.00  0.00    +0.027 C 
ATOM     27  C   UNL     1       0.118  -0.438  -0.093  0.00  0.00    +0.120 C 
ENDBRANCH  21  27
ENDBRANCH   1  25
TORSDOF 3
