REMARK  Name = ZINC34074922
REMARK  8 active torsions:
REMARK  status: ('A' for Active; 'I' for Inactive)
REMARK    1  A    between atoms: C_1  and  C_2
REMARK    2  A    between atoms: C_3  and  C_4
REMARK    3  A    between atoms: C_3  and  C_5
REMARK    4  A    between atoms: C_5  and  O_7
REMARK    5  A    between atoms: O_7  and  C_8
REMARK    6  A    between atoms: C_22  and  C_26
REMARK    7  A    between atoms: C_22  and  C_27
REMARK    8  A    between atoms: C_23  and  O_25
REMARK                            x       y       z     vdW  Elec       q    Type
REMARK                         _______ _______ _______ _____ _____    ______ ____
ROOT
ATOM      1  C   UNL     1       2.334   0.141  -4.238  0.00  0.00    +0.246 C 
ATOM      2  C   UNL     1       3.804   0.374  -3.997  0.00  0.00    +0.080 A 
ATOM      3  C   UNL     1       4.769  -0.395  -4.620  0.00  0.00    +0.132 A 
ATOM      4  C   UNL     1       6.125  -0.159  -4.372  0.00  0.00    +0.047 A 
ATOM      5  C   UNL     1       6.515   0.830  -3.519  0.00  0.00    +0.015 A 
ATOM      6  C   UNL     1       5.550   1.619  -2.884  0.00  0.00    +0.018 A 
ATOM      7  C   UNL     1       4.184   1.388  -3.125  0.00  0.00    +0.149 A 
ATOM      8  O   UNL     1       3.248   2.144  -2.515  0.00  0.00    -0.422 OA
ATOM      9  C   UNL     1       3.603   3.122  -1.673  0.00  0.00    +0.337 A 
ATOM     10  O   UNL     1       2.730   3.783  -1.140  0.00  0.00    -0.245 OA
ATOM     11  C   UNL     1       4.950   3.416  -1.380  0.00  0.00    +0.092 A 
ATOM     12  C   UNL     1       5.939   2.690  -1.964  0.00  0.00    +0.018 A 
ATOM     13  O   UNL     1       4.440  -1.389  -5.485  0.00  0.00    -0.483 OA
ATOM     14  C   UNL     1       3.100  -1.881  -5.461  0.00  0.00    +0.135 C 
ATOM     15  C   UNL     1       2.145  -0.682  -5.515  0.00  0.00    +0.203 C 
ATOM     16  C   UNL     1       2.864  -2.670  -4.171  0.00  0.00    +0.058 C 
ATOM     17  C   UNL     1       2.861  -2.786  -6.671  0.00  0.00    +0.058 C 
ENDROOT
BRANCH  15  18
ATOM     18  O   UNL     1       2.447   0.123  -6.657  0.00  0.00    -0.384 OA
ATOM     19  H   UNL     1       1.890   0.909  -6.742  0.00  0.00    +0.210 HD
ENDBRANCH  15  18
BRANCH   1  20
ATOM     20  O   UNL     1       1.777  -0.568  -3.129  0.00  0.00    -0.450 OA
BRANCH  20  21
ATOM     21  C   UNL     1       0.462  -0.392  -2.889  0.00  0.00    +0.335 C 
ATOM     22  O   UNL     1      -0.172   0.415  -3.541  0.00  0.00    -0.245 OA
BRANCH  21  25
ATOM     23  C   UNL     1      -2.289  -0.002  -2.410  0.00  0.00    +0.036 C 
ATOM     24  C   UNL     1      -1.502  -1.001  -1.602  0.00  0.00    -0.020 C 
ATOM     25  C   UNL     1      -0.204  -1.175  -1.839  0.00  0.00    +0.029 C 
ATOM     26  C   UNL     1       0.582  -2.175  -1.031  0.00  0.00    +0.051 C 
ENDBRANCH  21  25
ENDBRANCH  20  21
ENDBRANCH   1  20
TORSDOF 4
