REMARK  Name = ZINC27231084
REMARK  5 active torsions:
REMARK  status: ('A' for Active; 'I' for Inactive)
REMARK    1  A    between atoms: C_1  and  C_2
REMARK    2  A    between atoms: N_8  and  C_9
REMARK    3  A    between atoms: C_9  and  C_10
REMARK    4  A    between atoms: N_12  and  C_13
REMARK    5  A    between atoms: C_13  and  C_20
REMARK                            x       y       z     vdW  Elec       q    Type
REMARK                         _______ _______ _______ _____ _____    ______ ____
ROOT
ATOM      1  C   UNL     1      -0.671   3.271  -1.547  0.00  0.00    +0.228 C 
ATOM      2  O   UNL     1      -0.059   4.087  -0.891  0.00  0.00    -0.274 OA
ATOM      3  N   UNL     1      -0.480   1.954  -1.332  0.00  0.00    -0.296 N 
ATOM      4  H   UNL     1      -1.034   1.214  -1.927  0.00  0.00    +0.150 HD
ENDROOT
BRANCH   3   5
ATOM      5  C   UNL     1       0.467   1.509  -0.306  0.00  0.00    +0.121 C 
ATOM      6  C   UNL     1       1.855   2.106  -0.614  0.00  0.00    +0.041 C 
ATOM      7  C   UNL     1       2.673   2.091   0.649  0.00  0.00    +0.003 C 
ATOM      8  C   UNL     1       3.556   0.834   0.764  0.00  0.00    +0.000 C 
ATOM      9  C   UNL     1       2.828  -0.451   0.326  0.00  0.00    +0.000 C 
ATOM     10  C   UNL     1       1.408  -0.504   0.822  0.00  0.00    +0.003 C 
ATOM     11  C   UNL     1       0.483   0.053  -0.280  0.00  0.00    +0.041 C 
BRANCH   5  12
ATOM     12  C   UNL     1       0.014   2.004   1.004  0.00  0.00    +0.088 C 
ATOM     13  N   UNL     1      -0.335   2.387   2.015  0.00  0.00    -0.194 NA
ENDBRANCH   5  12
ENDBRANCH   3   5
BRANCH   1  14
ATOM     14  C   UNL     1      -1.644   3.729  -2.602  0.00  0.00    +0.180 C 
BRANCH  14  21
ATOM     15  C   UNL     1      -1.830   5.271  -4.994  0.00  0.00    +0.026 C 
ATOM     16  C   UNL     1      -2.529   5.697  -3.701  0.00  0.00    +0.080 C 
ATOM     17  C   UNL     1      -2.591   7.225  -3.634  0.00  0.00    +0.178 C 
ATOM     18  O   UNL     1      -3.178   7.619  -2.390  0.00  0.00    -0.377 OA
ATOM     19  C   UNL     1      -2.469   7.144  -1.243  0.00  0.00    +0.175 C 
ATOM     20  C   UNL     1      -2.406   5.615  -1.286  0.00  0.00    +0.113 C 
ATOM     21  N   UNL     1      -1.776   5.191  -2.545  0.00  0.00    -0.287 NA
ENDBRANCH  14  21
ENDBRANCH   1  14
TORSDOF 4
