REMARK  Name = ZINC23005716
REMARK  4 active torsions:
REMARK  status: ('A' for Active; 'I' for Inactive)
REMARK    1  A    between atoms: C_9  and  S_11
REMARK    2  A    between atoms: S_11  and  C_12
REMARK    3  A    between atoms: C_12  and  C_13
REMARK    4  A    between atoms: C_15  and  C_18
REMARK                            x       y       z     vdW  Elec       q    Type
REMARK                         _______ _______ _______ _____ _____    ______ ____
ROOT
ATOM      1  S   UNL     1       5.031   0.955  -0.042  0.00  0.00    -0.096 S 
ENDROOT
BRANCH   1  10
ATOM      2  C   UNL     1      -1.240   3.135   0.032  0.00  0.00    +0.001 A 
ATOM      3  C   UNL     1      -1.199   1.743   0.017  0.00  0.00    +0.002 A 
ATOM      4  C   UNL     1      -0.013   1.076   0.008  0.00  0.00    +0.028 A 
ATOM      5  C   UNL     1       1.193   1.798   0.000  0.00  0.00    +0.072 A 
ATOM      6  C   UNL     1       1.149   3.213   0.008  0.00  0.00    +0.000 A 
ATOM      7  C   UNL     1      -0.092   3.868   0.024  0.00  0.00    +0.010 A 
ATOM      8  C   UNL     1       2.358   3.938  -0.000  0.00  0.00    +0.012 A 
ATOM      9  C   UNL     1       3.529   3.241  -0.015  0.00  0.00    +0.035 A 
ATOM     10  C   UNL     1       3.507   1.839  -0.022  0.00  0.00    +0.098 A 
ATOM     11  N   UNL     1       2.373   1.167  -0.015  0.00  0.00    -0.240 NA
ENDBRANCH   1  10
BRANCH   1  12
ATOM     12  C   UNL     1       4.408  -0.745  -0.045  0.00  0.00    +0.174 C 
BRANCH  12  13
ATOM     13  C   UNL     1       5.570  -1.705  -0.062  0.00  0.00    +0.238 A 
ATOM     14  N   UNL     1       6.182  -2.202   0.983  0.00  0.00    -0.188 NA
ATOM     15  C   UNL     1       7.149  -3.010   0.487  0.00  0.00    +0.237 A 
ATOM     16  N   UNL     1       7.071  -2.948  -0.819  0.00  0.00    -0.053 NA
ATOM     17  O   UNL     1       6.170  -2.205  -1.147  0.00  0.00    -0.337 OA
BRANCH  15  18
ATOM     18  C   UNL     1       8.114  -3.807   1.272  0.00  0.00    +0.175 A 
ATOM     19  C   UNL     1       9.085  -4.612   0.763  0.00  0.00    +0.053 A 
ATOM     20  C   UNL     1       9.766  -5.171   1.862  0.00  0.00    +0.042 A 
ATOM     21  C   UNL     1       9.183  -4.685   2.976  0.00  0.00    +0.196 A 
ATOM     22  O   UNL     1       8.189  -3.858   2.616  0.00  0.00    -0.460 OA
ENDBRANCH  15  18
ENDBRANCH  12  13
ENDBRANCH   1  12
TORSDOF 4
