REMARK  Name = ZINC32739541
REMARK  7 active torsions:
REMARK  status: ('A' for Active; 'I' for Inactive)
REMARK    1  A    between atoms: C_1  and  C_2
REMARK    2  A    between atoms: C_11  and  N_30
REMARK    3  A    between atoms: C_13  and  S_15
REMARK    4  A    between atoms: S_15  and  C_16
REMARK    5  A    between atoms: C_16  and  C_18
REMARK    6  A    between atoms: C_16  and  C_19
REMARK    7  A    between atoms: C_22  and  C_24
REMARK                            x       y       z     vdW  Elec       q    Type
REMARK                         _______ _______ _______ _____ _____    ______ ____
ROOT
ATOM      1  C   UNL     1       7.438  -1.834  -2.332  0.00  0.00    +0.008 C 
ATOM      2  C   UNL     1       5.982  -1.413  -2.123  0.00  0.00    -0.009 C 
ATOM      3  C   UNL     1       5.350  -2.274  -1.026  0.00  0.00    +0.008 C 
ATOM      4  C   UNL     1       3.841  -2.034  -0.981  0.00  0.00    +0.037 C 
ATOM      5  C   UNL     1       3.584  -0.533  -0.871  0.00  0.00    -0.025 A 
ATOM      6  C   UNL     1       4.544   0.355  -1.196  0.00  0.00    -0.004 A 
ATOM      7  S   UNL     1       3.814   1.947  -0.920  0.00  0.00    -0.073 S 
ATOM      8  C   UNL     1       2.214   1.415  -0.368  0.00  0.00    +0.115 A 
ATOM      9  C   UNL     1       2.302   0.010  -0.415  0.00  0.00    +0.051 A 
ATOM     10  C   UNL     1       1.131  -0.692  -0.013  0.00  0.00    +0.129 A 
ATOM     11  N   UNL     1       0.066  -0.007   0.368  0.00  0.00    -0.207 NA
ATOM     12  C   UNL     1       0.051   1.321   0.388  0.00  0.00    +0.192 A 
ATOM     13  N   UNL     1       1.113   2.027   0.024  0.00  0.00    -0.214 NA
ATOM     14  C   UNL     1       5.929   0.058  -1.685  0.00  0.00    +0.046 C 
ENDROOT
BRANCH  10  15
ATOM     15  N   UNL     1       1.108  -2.075  -0.020  0.00  0.00    -0.343 N 
ATOM     16  H   UNL     1       0.200  -2.611   0.292  0.00  0.00    +0.144 HD
ATOM     17  H   UNL     1       1.998  -2.638  -0.337  0.00  0.00    +0.144 HD
ENDBRANCH  10  15
BRANCH  12  18
ATOM     18  S   UNL     1      -1.411   2.160   0.901  0.00  0.00    -0.073 S 
BRANCH  18  19
ATOM     19  C   UNL     1      -2.481   0.743   1.253  0.00  0.00    +0.139 C 
ATOM     20  C   UNL     1      -1.906  -0.049   2.429  0.00  0.00    +0.029 C 
BRANCH  19  21
ATOM     21  C   UNL     1      -3.862   1.231   1.604  0.00  0.00    +0.231 A 
ATOM     22  N   UNL     1      -4.150   2.217   2.408  0.00  0.00    -0.111 NA
ATOM     23  N   UNL     1      -5.427   2.358   2.475  0.00  0.00    -0.107 NA
ATOM     24  C   UNL     1      -6.003   1.460   1.710  0.00  0.00    +0.248 A 
ATOM     25  O   UNL     1      -5.021   0.734   1.140  0.00  0.00    -0.419 OA
BRANCH  24  26
ATOM     26  C   UNL     1      -7.456   1.284   1.508  0.00  0.00    +0.038 A 
ATOM     27  C   UNL     1      -7.929   0.285   0.655  0.00  0.00    +0.013 A 
ATOM     28  C   UNL     1      -9.287   0.121   0.475  0.00  0.00    +0.001 A 
ATOM     29  C   UNL     1     -10.179   0.952   1.128  0.00  0.00    +0.000 A 
ATOM     30  C   UNL     1      -9.717   1.948   1.970  0.00  0.00    +0.001 A 
ATOM     31  C   UNL     1      -8.362   2.118   2.164  0.00  0.00    +0.013 A 
ENDBRANCH  24  26
ENDBRANCH  19  21
ENDBRANCH  18  19
ENDBRANCH  12  18
TORSDOF 5
