REMARK  Name = ZINC22942455
REMARK  9 active torsions:
REMARK  status: ('A' for Active; 'I' for Inactive)
REMARK    1  A    between atoms: C_4  and  C_7
REMARK    2  A    between atoms: C_7  and  C_8
REMARK    3  A    between atoms: C_7  and  N_14
REMARK    4  A    between atoms: N_17  and  C_20
REMARK    5  A    between atoms: C_20  and  C_21
REMARK    6  A    between atoms: C_21  and  C_23
REMARK    7  A    between atoms: C_21  and  O_33
REMARK    8  A    between atoms: C_23  and  O_24
REMARK    9  A    between atoms: O_24  and  C_25
REMARK                            x       y       z     vdW  Elec       q    Type
REMARK                         _______ _______ _______ _____ _____    ______ ____
ROOT
ATOM      1  N   UNL     1       3.535  -2.270  -0.659  0.00  0.00    +0.389 N 
ATOM      2  C   UNL     1       4.789  -3.034  -0.705  0.00  0.00    -0.062 C 
ATOM      3  C   UNL     1       4.685  -4.121  -1.777  0.00  0.00    +0.066 C 
ATOM      4  N   UNL     1       4.424  -3.495  -3.081  0.00  0.00    -0.303 NA
ATOM      5  C   UNL     1       3.185  -2.706  -3.043  0.00  0.00    +0.066 C 
ATOM      6  C   UNL     1       3.301  -1.631  -1.960  0.00  0.00    -0.062 C 
ATOM      7  H   UNL     1       2.770  -2.893  -0.448  0.00  0.00    -0.080 HD
ENDROOT
BRANCH   1   8
ATOM      8  C   UNL     1       3.628  -1.239   0.383  0.00  0.00    -0.007 C 
BRANCH   8  12
ATOM      9  C   UNL     1      -0.019   0.981   0.519  0.00  0.00    +0.000 A 
ATOM     10  C   UNL     1       1.192   1.632   0.661  0.00  0.00    +0.000 A 
ATOM     11  C   UNL     1       2.373   0.914   0.618  0.00  0.00    +0.002 A 
ATOM     12  C   UNL     1       2.342  -0.456   0.432  0.00  0.00    -0.057 A 
ATOM     13  C   UNL     1       1.131  -1.107   0.291  0.00  0.00    +0.002 A 
ATOM     14  C   UNL     1      -0.050  -0.389   0.333  0.00  0.00    +0.000 A 
ENDBRANCH   8  12
BRANCH   8  15
ATOM     15  C   UNL     1       3.868  -1.895   1.719  0.00  0.00    -0.057 A 
ATOM     16  C   UNL     1       3.213  -3.068   2.040  0.00  0.00    +0.002 A 
ATOM     17  C   UNL     1       3.433  -3.670   3.265  0.00  0.00    +0.000 A 
ATOM     18  C   UNL     1       4.309  -3.098   4.169  0.00  0.00    +0.000 A 
ATOM     19  C   UNL     1       4.965  -1.924   3.847  0.00  0.00    +0.000 A 
ATOM     20  C   UNL     1       4.748  -1.325   2.620  0.00  0.00    +0.002 A 
ENDBRANCH   8  15
ENDBRANCH   1   8
BRANCH   4  21
ATOM     21  C   UNL     1       4.374  -4.503  -4.149  0.00  0.00    +0.119 C 
BRANCH  21  22
ATOM     22  C   UNL     1       5.795  -4.961  -4.485  0.00  0.00    +0.166 C 
BRANCH  22  23
ATOM     23  O   UNL     1       6.545  -3.855  -4.990  0.00  0.00    -0.387 OA
ATOM     24  H   UNL     1       6.174  -3.462  -5.792  0.00  0.00    +0.210 HD
ENDBRANCH  22  23
BRANCH  22  25
ATOM     25  C   UNL     1       5.737  -6.065  -5.543  0.00  0.00    +0.261 C 
BRANCH  25  26
ATOM     26  O   UNL     1       7.053  -6.573  -5.772  0.00  0.00    -0.488 OA
BRANCH  26  27
ATOM     27  C   UNL     1       7.179  -7.567  -6.691  0.00  0.00    +0.139 A 
ATOM     28  C   UNL     1       6.061  -8.039  -7.362  0.00  0.00    +0.048 A 
ATOM     29  C   UNL     1       6.190  -9.049  -8.295  0.00  0.00    +0.023 A 
ATOM     30  C   UNL     1       7.436  -9.591  -8.562  0.00  0.00    +0.043 A 
ATOM     31  C   UNL     1       8.553  -9.122  -7.894  0.00  0.00    +0.043 A 
ATOM     32  C   UNL     1       8.428  -8.108  -6.963  0.00  0.00    +0.084 A 
ATOM     33 CL   UNL     1       9.832  -7.515  -6.130  0.00  0.00    -0.080 Cl
ATOM     34 CL   UNL     1       7.595 -10.860  -9.735  0.00  0.00    -0.083 Cl
ENDBRANCH  26  27
ENDBRANCH  25  26
ENDBRANCH  22  25
ENDBRANCH  21  22
ENDBRANCH   4  21
TORSDOF 9
