REMARK  Name = ZINC36006893
REMARK  2 active torsions:
REMARK  status: ('A' for Active; 'I' for Inactive)
REMARK    1  A    between atoms: C_3  and  C_6
REMARK    2  A    between atoms: C_6  and  N_7
REMARK                            x       y       z     vdW  Elec       q    Type
REMARK                         _______ _______ _______ _____ _____    ______ ____
ROOT
ATOM      1  N   UNL     1       4.105   0.729   1.348  0.00  0.00    -0.321 N 
ATOM      2  C   UNL     1       5.468   0.645   1.587  0.00  0.00    +0.137 A 
ATOM      3  C   UNL     1       5.963   0.609   2.884  0.00  0.00    +0.080 A 
ATOM      4  C   UNL     1       7.339   0.525   3.127  0.00  0.00    +0.093 A 
ATOM      5  C   UNL     1       7.741   0.495   4.546  0.00  0.00    +0.037 A 
ATOM      6  C   UNL     1       9.061   0.413   5.064  0.00  0.00    -0.029 A 
ATOM      7  C   UNL     1       9.248   0.399   6.408  0.00  0.00    -0.004 A 
ATOM      8  C   UNL     1       8.141   0.457   7.266  0.00  0.00    +0.126 A 
ATOM      9  N   UNL     1       6.913   0.530   6.781  0.00  0.00    -0.225 NA
ATOM     10  C   UNL     1       6.697   0.551   5.482  0.00  0.00    +0.113 A 
ATOM     11  S   UNL     1       5.224   0.646   4.494  0.00  0.00    -0.064 S 
ATOM     12  N   UNL     1       8.336   0.435   8.640  0.00  0.00    -0.315 N 
ATOM     13  C   UNL     1       8.568   1.681   9.383  0.00  0.00    +0.106 C 
ATOM     14  C   UNL     1       7.556   1.768  10.530  0.00  0.00    +0.019 C 
ATOM     15  C   UNL     1       7.648   0.501  11.383  0.00  0.00    +0.003 C 
ATOM     16  C   UNL     1       7.304  -0.719  10.527  0.00  0.00    +0.019 C 
ATOM     17  C   UNL     1       8.308  -0.834   9.381  0.00  0.00    +0.106 C 
ATOM     18  C   UNL     1      10.617   0.333   7.035  0.00  0.00    +0.039 C 
ATOM     19  C   UNL     1      11.649  -0.157   6.020  0.00  0.00    +0.005 C 
ATOM     20  C   UNL     1      11.517   0.690   4.748  0.00  0.00    +0.005 C 
ATOM     21  C   UNL     1      10.191   0.341   4.074  0.00  0.00    +0.036 C 
ATOM     22  N   UNL     1       8.134   0.480   2.034  0.00  0.00    -0.234 NA
ATOM     23  C   UNL     1       7.633   0.516   0.825  0.00  0.00    +0.224 A 
ATOM     24  N   UNL     1       6.337   0.591   0.578  0.00  0.00    -0.220 NA
ATOM     25  H   UNL     1       3.484   0.767   2.092  0.00  0.00    +0.148 HD
ENDROOT
BRANCH   1  26
ATOM     26  C   UNL     1       3.603   0.759  -0.028  0.00  0.00    +0.177 C 
BRANCH  26  29
ATOM     27  C   UNL     1       0.018   1.612   0.009  0.00  0.00    +0.041 A 
ATOM     28  C   UNL     1       1.381   1.989  -0.005  0.00  0.00    +0.046 A 
ATOM     29  C   UNL     1       2.099   0.851  -0.012  0.00  0.00    +0.122 A 
ATOM     30  O   UNL     1       1.249  -0.188  -0.004  0.00  0.00    -0.466 OA
ATOM     31  C   UNL     1      -0.015   0.268   0.009  0.00  0.00    +0.195 A 
ENDBRANCH  26  29
ENDBRANCH   1  26
TORSDOF 2
