REMARK  Name = ZINC55331351
REMARK  5 active torsions:
REMARK  status: ('A' for Active; 'I' for Inactive)
REMARK    1  A    between atoms: C_1  and  C_2
REMARK    2  A    between atoms: C_5  and  C_9
REMARK    3  A    between atoms: C_6  and  C_8
REMARK    4  A    between atoms: C_9  and  C_11
REMARK    5  A    between atoms: C_9  and  O_16
REMARK                            x       y       z     vdW  Elec       q    Type
REMARK                         _______ _______ _______ _____ _____    ______ ____
ROOT
ATOM      1  C   UNL     1      -0.018   1.503   0.010  0.00  0.00    +0.065 C 
ATOM      2  C   UNL     1       0.002  -0.004   0.002  0.00  0.00    +0.039 A 
ATOM      3  C   UNL     1       0.005  -0.681  -1.203  0.00  0.00    +0.023 A 
ATOM      4  C   UNL     1       0.024  -2.067  -1.200  0.00  0.00    +0.010 A 
ATOM      5  C   UNL     1       0.039  -2.724   0.021  0.00  0.00    +0.006 A 
ATOM      6  C   UNL     1       0.035  -1.980   1.186  0.00  0.00    +0.044 A 
ATOM      7  N   UNL     1       0.022  -0.662   1.145  0.00  0.00    -0.257 NA
ATOM      8  C   UNL     1       0.050  -2.683   2.519  0.00  0.00    +0.066 C 
ENDROOT
BRANCH   5   9
ATOM      9  C   UNL     1       0.059  -4.229   0.077  0.00  0.00    +0.172 C 
BRANCH   9  10
ATOM     10  C   UNL     1       1.482  -4.708   0.213  0.00  0.00    -0.041 C 
ATOM     11  C   UNL     1       1.951  -5.343   1.252  0.00  0.00    -0.025 C 
ATOM     12  C   UNL     1       3.413  -5.681   1.069  0.00  0.00    +0.027 C 
ATOM     13  C   UNL     1       3.668  -5.513  -0.447  0.00  0.00    +0.008 C 
ATOM     14  C   UNL     1       2.550  -4.521  -0.839  0.00  0.00    +0.033 C 
ENDBRANCH   9  10
BRANCH   9  15
ATOM     15  O   UNL     1      -0.509  -4.759  -1.122  0.00  0.00    -0.383 OA
ATOM     16  H   UNL     1      -0.042  -4.497  -1.927  0.00  0.00    +0.211 HD
ENDBRANCH   9  15
ENDBRANCH   5   9
TORSDOF 3
