REMARK  Name = ZINC40124138
REMARK  9 active torsions:
REMARK  status: ('A' for Active; 'I' for Inactive)
REMARK    1  A    between atoms: C_1  and  C_2
REMARK    2  A    between atoms: C_2  and  C_3
REMARK    3  A    between atoms: C_3  and  C_4
REMARK    4  A    between atoms: C_4  and  O_5
REMARK    5  A    between atoms: O_5  and  C_6
REMARK    6  A    between atoms: C_9  and  C_13
REMARK    7  A    between atoms: C_11  and  C_12
REMARK    8  A    between atoms: C_13  and  C_15
REMARK    9  A    between atoms: C_20  and  C_22
REMARK                            x       y       z     vdW  Elec       q    Type
REMARK                         _______ _______ _______ _____ _____    ______ ____
ROOT
ATOM      1  C   UNL     1      -2.206  -9.174  -0.178  0.00  0.00    +0.076 C 
ATOM      2  C   UNL     1      -1.788 -10.015  -1.152  0.00  0.00    +0.249 C 
ATOM      3  C   UNL     1      -0.457 -10.550  -0.793  0.00  0.00    +0.285 C 
ATOM      4  O   UNL     1       0.184 -11.333  -1.466  0.00  0.00    -0.267 OA
ATOM      5  N   UNL     1      -0.061 -10.043   0.388  0.00  0.00    -0.298 N 
ATOM      6  C   UNL     1      -1.114  -9.139   0.866  0.00  0.00    +0.144 C 
ATOM      7  O   UNL     1      -2.478 -10.319  -2.275  0.00  0.00    -0.282 OA
ATOM      8  H   UNL     1       0.774 -10.237   0.842  0.00  0.00    +0.150 HD
ENDROOT
BRANCH   6   9
ATOM      9  C   UNL     1      -1.647  -9.623   2.190  0.00  0.00    +0.014 A 
ATOM     10  C   UNL     1      -1.915 -10.968   2.377  0.00  0.00    +0.048 A 
ATOM     11  C   UNL     1      -2.404 -11.412   3.593  0.00  0.00    +0.020 A 
ATOM     12  C   UNL     1      -2.627 -10.513   4.619  0.00  0.00    +0.003 A 
ATOM     13  C   UNL     1      -2.360  -9.170   4.432  0.00  0.00    +0.020 A 
ATOM     14  C   UNL     1      -1.864  -8.725   3.219  0.00  0.00    +0.048 A 
ATOM     15 CL   UNL     1      -1.522  -7.039   2.987  0.00  0.00    -0.083 Cl
ATOM     16 CL   UNL     1      -1.637 -12.097   1.088  0.00  0.00    -0.083 Cl
ENDBRANCH   6   9
BRANCH   1  17
ATOM     17  C   UNL     1      -3.471  -8.434  -0.146  0.00  0.00    +0.195 C 
ATOM     18  O   UNL     1      -4.527  -9.036  -0.094  0.00  0.00    -0.287 OA
BRANCH  17  22
ATOM     19  C   UNL     1      -3.450  -4.188  -0.233  0.00  0.00    +0.123 A 
ATOM     20  C   UNL     1      -2.253  -4.889  -0.325  0.00  0.00    +0.046 A 
ATOM     21  C   UNL     1      -2.255  -6.265  -0.297  0.00  0.00    +0.015 A 
ATOM     22  C   UNL     1      -3.464  -6.958  -0.176  0.00  0.00    +0.023 A 
ATOM     23  C   UNL     1      -4.665  -6.249  -0.084  0.00  0.00    +0.018 A 
ATOM     24  C   UNL     1      -4.654  -4.872  -0.108  0.00  0.00    -0.008 A 
ATOM     25  C   UNL     1      -5.948  -4.107  -0.003  0.00  0.00    +0.047 C 
BRANCH  19  26
ATOM     26  O   UNL     1      -3.444  -2.831  -0.261  0.00  0.00    -0.492 OA
BRANCH  26  27
ATOM     27  C   UNL     1      -2.173  -2.191  -0.392  0.00  0.00    +0.229 C 
BRANCH  27  28
ATOM     28  C   UNL     1      -2.365  -0.673  -0.405  0.00  0.00    +0.041 C 
BRANCH  28  30
ATOM     29  C   UNL     1      -1.196   1.530  -0.557  0.00  0.00    +0.004 C 
ATOM     30  C   UNL     1      -1.004   0.012  -0.545  0.00  0.00    -0.000 C 
ENDBRANCH  28  30
ENDBRANCH  27  28
ENDBRANCH  26  27
ENDBRANCH  19  26
ENDBRANCH  17  22
ENDBRANCH   1  17
TORSDOF 7
