REMARK  Name = ZINC66080359
REMARK  6 active torsions:
REMARK  status: ('A' for Active; 'I' for Inactive)
REMARK    1  A    between atoms: C_3  and  C_6
REMARK    2  A    between atoms: N_8  and  C_12
REMARK    3  A    between atoms: C_12  and  N_13
REMARK    4  A    between atoms: C_17  and  C_20
REMARK    5  A    between atoms: C_20  and  C_21
REMARK    6  A    between atoms: C_21  and  C_22
REMARK                            x       y       z     vdW  Elec       q    Type
REMARK                         _______ _______ _______ _____ _____    ______ ____
ROOT
ATOM      1  N   UNL     1       7.683   1.054  -1.413  0.00  0.00    +0.393 N 
ATOM      2  C   UNL     1       7.579   2.171  -2.360  0.00  0.00    -0.076 C 
ATOM      3  C   UNL     1       7.871   1.672  -3.776  0.00  0.00    -0.018 C 
ATOM      4  C   UNL     1       9.286   1.090  -3.825  0.00  0.00    -0.000 C 
ATOM      5  C   UNL     1       9.405  -0.025  -2.781  0.00  0.00    -0.027 C 
ATOM      6  C   UNL     1       9.056   0.537  -1.401  0.00  0.00    -0.073 C 
ATOM      7  H   UNL     1       7.050   0.319  -1.692  0.00  0.00    -0.079 HD
ENDROOT
BRANCH   1   8
ATOM      8  C   UNL     1       7.326   1.521  -0.066  0.00  0.00    +0.076 C 
BRANCH   8  11
ATOM      9  C   UNL     1       3.734   1.822  -0.024  0.00  0.00    +0.256 A 
ATOM     10  N   UNL     1       4.803   1.075  -0.043  0.00  0.00    -0.128 NA
ATOM     11  N   UNL     1       5.918   1.927  -0.047  0.00  0.00    -0.211 N 
ATOM     12  C   UNL     1       5.446   3.191  -0.029  0.00  0.00    +0.437 A 
ATOM     13  O   UNL     1       6.114   4.208  -0.027  0.00  0.00    -0.221 OA
ATOM     14  O   UNL     1       4.104   3.121  -0.021  0.00  0.00    -0.387 OA
BRANCH   9  17
ATOM     15  C   UNL     1      -0.016   1.354   0.009  0.00  0.00    +0.008 A 
ATOM     16  C   UNL     1       1.176   2.042   0.002  0.00  0.00    +0.021 A 
ATOM     17  C   UNL     1       2.348   1.328  -0.013  0.00  0.00    +0.076 A 
ATOM     18  S   UNL     1       1.752  -0.355  -0.017  0.00  0.00    -0.092 S 
ATOM     19  C   UNL     1       0.002  -0.004   0.002  0.00  0.00    +0.046 A 
ENDBRANCH   9  17
ENDBRANCH   8  11
ENDBRANCH   1   8
BRANCH   5  20
ATOM     20  C   UNL     1      10.838  -0.562  -2.768  0.00  0.00    +0.011 C 
BRANCH  20  21
ATOM     21  C   UNL     1      11.145  -1.230  -4.110  0.00  0.00    +0.096 C 
BRANCH  21  22
ATOM     22  C   UNL     1      12.556  -1.759  -4.097  0.00  0.00    +0.210 C 
ATOM     23  O   UNL     1      13.248  -1.615  -3.112  0.00  0.00    -0.276 OA
ATOM     24  N   UNL     1      13.048  -2.391  -5.181  0.00  0.00    -0.329 N 
ATOM     25  H   UNL     1      12.495  -2.506  -5.969  0.00  0.00    +0.145 HD
ATOM     26  H   UNL     1      13.957  -2.731  -5.172  0.00  0.00    +0.145 HD
ENDBRANCH  21  22
ENDBRANCH  20  21
ENDBRANCH   5  20
TORSDOF 6
