REMARK  Name = ZINC10211604
REMARK  6 active torsions:
REMARK  status: ('A' for Active; 'I' for Inactive)
REMARK    1  A    between atoms: C_1  and  C_2
REMARK    2  A    between atoms: C_6  and  N_9
REMARK    3  A    between atoms: C_7  and  C_8
REMARK    4  A    between atoms: C_19  and  S_20
REMARK    5  A    between atoms: S_20  and  C_21
REMARK    6  A    between atoms: C_21  and  C_22
REMARK                            x       y       z     vdW  Elec       q    Type
REMARK                         _______ _______ _______ _____ _____    ______ ____
ROOT
ATOM      1  N   UNL     1       0.002  -0.004   0.002  0.00  0.00    -0.255 N 
ATOM      2  C   UNL     1       1.177  -0.675  -0.012  0.00  0.00    +0.267 A 
ATOM      3  O   UNL     1       1.209  -1.892  -0.019  0.00  0.00    -0.267 OA
ATOM      4  C   UNL     1       2.413   0.118  -0.020  0.00  0.00    +0.065 A 
ATOM      5  C   UNL     1       3.672  -0.480  -0.035  0.00  0.00    +0.015 A 
ATOM      6  C   UNL     1       4.792   0.306  -0.042  0.00  0.00    +0.001 A 
ATOM      7  C   UNL     1       4.686   1.691  -0.035  0.00  0.00    +0.002 A 
ATOM      8  C   UNL     1       3.465   2.304  -0.019  0.00  0.00    +0.028 A 
ATOM      9  C   UNL     1       2.302   1.528  -0.012  0.00  0.00    +0.079 A 
ATOM     10  N   UNL     1       1.072   2.092   0.003  0.00  0.00    -0.223 NA
ATOM     11  C   UNL     1      -0.017   1.363   0.009  0.00  0.00    +0.177 A 
ENDROOT
BRANCH   1  17
ATOM     12  C   UNL     1      -3.621  -2.167   2.528  0.00  0.00    +0.044 C 
ATOM     13  C   UNL     1      -2.982  -1.776   1.220  0.00  0.00    -0.046 A 
ATOM     14  C   UNL     1      -3.588  -2.121   0.025  0.00  0.00    +0.004 A 
ATOM     15  C   UNL     1      -3.005  -1.764  -1.177  0.00  0.00    +0.002 A 
ATOM     16  C   UNL     1      -1.815  -1.062  -1.188  0.00  0.00    +0.026 A 
ATOM     17  C   UNL     1      -1.205  -0.716   0.010  0.00  0.00    +0.055 A 
ATOM     18  C   UNL     1      -1.790  -1.080   1.215  0.00  0.00    -0.024 A 
ATOM     19  C   UNL     1      -1.127  -0.712   2.518  0.00  0.00    +0.046 C 
ENDBRANCH   1  17
BRANCH  11  20
ATOM     20  S   UNL     1      -1.576   2.183   0.021  0.00  0.00    -0.079 S 
BRANCH  20  21
ATOM     21  C   UNL     1      -1.026   3.907   0.028  0.00  0.00    +0.151 C 
BRANCH  21  22
ATOM     22  C   UNL     1      -2.227   4.817   0.039  0.00  0.00    +0.121 A 
ATOM     23  N   UNL     1      -2.019   6.160   0.045  0.00  0.00    -0.309 N 
ATOM     24  H   UNL     1      -1.117   6.517   0.043  0.00  0.00    +0.170 HD
ATOM     25  C   UNL     1      -3.084   6.997   0.054  0.00  0.00    +0.266 A 
ATOM     26  O   UNL     1      -2.932   8.207   0.060  0.00  0.00    -0.267 OA
ATOM     27  C   UNL     1      -4.362   6.436   0.057  0.00  0.00    +0.102 A 
ATOM     28  C   UNL     1      -4.549   5.042   0.050  0.00  0.00    +0.085 A 
ATOM     29  N   UNL     1      -3.405   4.282   0.036  0.00  0.00    -0.232 NA
ATOM     30  C   UNL     1      -5.883   4.613   0.053  0.00  0.00    +0.036 A 
ATOM     31  C   UNL     1      -6.887   5.516   0.062  0.00  0.00    +0.048 A 
ATOM     32  S   UNL     1      -6.016   7.074   0.067  0.00  0.00    -0.090 S 
ENDBRANCH  21  22
ENDBRANCH  20  21
ENDBRANCH  11  20
TORSDOF 4
