REMARK  Name = ZINC12947039
REMARK  5 active torsions:
REMARK  status: ('A' for Active; 'I' for Inactive)
REMARK    1  A    between atoms: C_1  and  C_2
REMARK    2  A    between atoms: N_5  and  C_11
REMARK    3  A    between atoms: C_7  and  C_10
REMARK    4  A    between atoms: C_11  and  C_12
REMARK    5  A    between atoms: C_18  and  C_20
REMARK                            x       y       z     vdW  Elec       q    Type
REMARK                         _______ _______ _______ _____ _____    ______ ____
ROOT
ATOM      1  C   UNL     1       1.289  -3.985  -2.484  0.00  0.00    +0.064 A 
ATOM      2  C   UNL     1       0.276  -4.576  -3.163  0.00  0.00    +0.073 A 
ATOM      3  S   UNL     1       0.626  -6.299  -2.851  0.00  0.00    -0.060 S 
ATOM      4  C   UNL     1       2.002  -6.089  -1.905  0.00  0.00    +0.165 A 
ATOM      5  N   UNL     1       2.143  -4.781  -1.866  0.00  0.00    -0.228 NA
ATOM      6  N   UNL     1       2.798  -7.060  -1.313  0.00  0.00    -0.259 N 
ATOM      7  C   UNL     1       2.498  -8.365  -1.468  0.00  0.00    +0.266 C 
ATOM      8  O   UNL     1       1.529  -8.691  -2.128  0.00  0.00    -0.268 OA
ATOM      9  H   UNL     1       3.571  -6.800  -0.787  0.00  0.00    +0.157 HD
ENDROOT
BRANCH   7  10
ATOM     10  C   UNL     1       3.341  -9.393  -0.842  0.00  0.00    +0.103 A 
ATOM     11  C   UNL     1       3.145 -10.735  -0.931  0.00  0.00    +0.041 A 
ATOM     12  C   UNL     1       4.171 -11.371  -0.191  0.00  0.00    +0.002 A 
ATOM     13  C   UNL     1       4.477 -12.713   0.071  0.00  0.00    +0.030 A 
ATOM     14  C   UNL     1       5.561 -13.024   0.840  0.00  0.00    +0.042 A 
ATOM     15  C   UNL     1       6.366 -12.020   1.367  0.00  0.00    +0.022 A 
ATOM     16  C   UNL     1       6.085 -10.695   1.123  0.00  0.00    +0.027 A 
ATOM     17  C   UNL     1       4.985 -10.353   0.341  0.00  0.00    +0.047 A 
ATOM     18  N   UNL     1       4.463  -9.150  -0.073  0.00  0.00    -0.351 N 
ATOM     19  H   UNL     1       4.822  -8.274   0.141  0.00  0.00    +0.166 HD
ATOM     20 CL   UNL     1       5.938 -14.687   1.164  0.00  0.00    -0.084 Cl
ENDBRANCH   7  10
BRANCH   1  21
ATOM     21  C   UNL     1       1.439  -2.486  -2.440  0.00  0.00    +0.140 C 
BRANCH  21  25
ATOM     22  C   UNL     1      -0.019   1.526   0.010  0.00  0.00    +0.039 C 
ATOM     23  C   UNL     1       0.002  -0.004   0.002  0.00  0.00    +0.130 C 
ATOM     24  C   UNL     1       0.720  -0.499  -1.256  0.00  0.00    +0.116 C 
ATOM     25  N   UNL     1       0.805  -1.966  -1.221  0.00  0.00    -0.292 NA
ATOM     26  C   UNL     1       1.523  -2.417  -0.020  0.00  0.00    +0.116 C 
ATOM     27  C   UNL     1       0.797  -1.904   1.226  0.00  0.00    +0.130 C 
ATOM     28  O   UNL     1       0.695  -0.479   1.159  0.00  0.00    -0.371 OA
ATOM     29  C   UNL     1      -0.605  -2.513   1.288  0.00  0.00    +0.039 C 
ENDBRANCH  21  25
ENDBRANCH   1  21
TORSDOF 3
