REMARK  Name = ZINC43424625
REMARK  2 active torsions:
REMARK  status: ('A' for Active; 'I' for Inactive)
REMARK    1  A    between atoms: C_2  and  N_20
REMARK    2  A    between atoms: C_5  and  N_8
REMARK                            x       y       z     vdW  Elec       q    Type
REMARK                         _______ _______ _______ _____ _____    ______ ____
ROOT
ATOM      1  C   UNL     1      -0.017   1.379   0.010  0.00  0.00    +0.063 A 
ATOM      2  C   UNL     1       1.176   2.090   0.002  0.00  0.00    +0.030 A 
ATOM      3  C   UNL     1       2.388   1.413  -0.014  0.00  0.00    +0.063 A 
ATOM      4  C   UNL     1       2.408   0.030  -0.022  0.00  0.00    +0.149 A 
ATOM      5  C   UNL     1       1.215  -0.682  -0.014  0.00  0.00    +0.101 A 
ATOM      6  C   UNL     1       0.002  -0.004   0.002  0.00  0.00    +0.149 A 
ATOM      7  F   UNL     1      -1.159  -0.696   0.010  0.00  0.00    -0.203 F 
ATOM      8  F   UNL     1       3.588  -0.629  -0.038  0.00  0.00    -0.203 F 
ENDROOT
BRANCH   5   9
ATOM      9  N   UNL     1       1.234  -2.085  -0.022  0.00  0.00    -0.318 N 
ATOM     10  C   UNL     1       1.239  -2.877  -1.274  0.00  0.00    +0.133 C 
ATOM     11  C   UNL     1       0.187  -3.983  -1.218  0.00  0.00    +0.179 C 
ATOM     12  O   UNL     1       0.208  -4.682   0.040  0.00  0.00    -0.373 OA
ATOM     13  C   UNL     1      -0.001  -3.796   1.118  0.00  0.00    +0.139 C 
ATOM     14  C   UNL     1       1.258  -2.878   1.199  0.00  0.00    +0.102 C 
ATOM     15  C   UNL     1       1.066  -2.147   2.521  0.00  0.00    +0.025 C 
ATOM     16  C   UNL     1       0.282  -3.134   3.423  0.00  0.00    +0.004 C 
ATOM     17  C   UNL     1      -0.055  -4.372   2.532  0.00  0.00    +0.033 C 
ENDBRANCH   5   9
BRANCH   2  18
ATOM     18  N   UNL     1       1.157   3.489   0.010  0.00  0.00    -0.358 N 
ATOM     19  H   UNL     1       0.310   3.962   0.020  0.00  0.00    +0.142 HD
ATOM     20  H   UNL     1       1.990   3.986   0.004  0.00  0.00    +0.142 HD
ENDBRANCH   2  18
TORSDOF 2
