REMARK  Name = ZINC15359390
REMARK  6 active torsions:
REMARK  status: ('A' for Active; 'I' for Inactive)
REMARK    1  A    between atoms: C_1  and  N_2
REMARK    2  A    between atoms: C_3  and  C_5
REMARK    3  A    between atoms: N_8  and  S_16
REMARK    4  A    between atoms: S_16  and  C_19
REMARK    5  A    between atoms: C_22  and  O_25
REMARK    6  A    between atoms: O_25  and  C_26
REMARK                            x       y       z     vdW  Elec       q    Type
REMARK                         _______ _______ _______ _____ _____    ______ ____
ROOT
ATOM      1  C   UNL     1      -1.232  -2.236   7.122  0.00  0.00    +0.277 C 
ATOM      2  C   UNL     1      -0.252  -1.195   7.691  0.00  0.00    +0.186 C 
ATOM      3  N   UNL     1       0.919  -1.159   6.799  0.00  0.00    -0.195 N 
ATOM      4  C   UNL     1       1.421  -2.384   6.332  0.00  0.00    +0.093 A 
ATOM      5  C   UNL     1       2.673  -2.441   5.739  0.00  0.00    +0.028 A 
ATOM      6  C   UNL     1       3.162  -3.649   5.278  0.00  0.00    +0.002 A 
ATOM      7  C   UNL     1       2.404  -4.798   5.407  0.00  0.00    +0.004 A 
ATOM      8  C   UNL     1       1.155  -4.747   5.998  0.00  0.00    +0.047 A 
ATOM      9  C   UNL     1       0.657  -3.540   6.466  0.00  0.00    +0.144 A 
ATOM     10  O   UNL     1      -0.568  -3.500   7.053  0.00  0.00    -0.476 OA
ENDROOT
BRANCH   1  13
ATOM     11  C   UNL     1      -4.438  -1.406   9.043  0.00  0.00    +0.128 C 
ATOM     12  N   UNL     1      -3.271  -1.300   8.164  0.00  0.00    -0.315 N 
ATOM     13  C   UNL     1      -2.433  -2.346   8.027  0.00  0.00    +0.255 C 
ATOM     14  O   UNL     1      -2.644  -3.375   8.632  0.00  0.00    -0.272 OA
ATOM     15  H   UNL     1      -3.102  -0.476   7.679  0.00  0.00    +0.148 HD
ENDBRANCH   1  13
BRANCH   3  16
ATOM     16  S   UNL     1       1.622   0.277   6.366  0.00  0.00    +0.075 S 
ATOM     17  O   UNL     1       0.655   1.290   6.603  0.00  0.00    -0.150 OA
ATOM     18  O   UNL     1       2.214   0.071   5.091  0.00  0.00    -0.150 OA
BRANCH  16  19
ATOM     19  C   UNL     1       2.945   0.569   7.493  0.00  0.00    +0.109 A 
ATOM     20  C   UNL     1       4.213   0.097   7.207  0.00  0.00    +0.032 A 
ATOM     21  C   UNL     1       5.251   0.324   8.089  0.00  0.00    +0.048 A 
ATOM     22  C   UNL     1       5.021   1.028   9.263  0.00  0.00    +0.130 A 
ATOM     23  C   UNL     1       3.747   1.495   9.550  0.00  0.00    +0.048 A 
ATOM     24  C   UNL     1       2.713   1.270   8.662  0.00  0.00    +0.032 A 
BRANCH  22  25
ATOM     25  O   UNL     1       6.041   1.253  10.132  0.00  0.00    -0.406 OA
BRANCH  25  26
ATOM     26  C   UNL     1       5.732   1.984  11.320  0.00  0.00    +0.575 C 
ATOM     27  F   UNL     1       4.760   1.294  12.052  0.00  0.00    -0.133 F 
ATOM     28  F   UNL     1       5.245   3.250  10.975  0.00  0.00    -0.133 F 
ATOM     29  F   UNL     1       6.887   2.124  12.096  0.00  0.00    -0.133 F 
ENDBRANCH  25  26
ENDBRANCH  22  25
ENDBRANCH  16  19
ENDBRANCH   3  16
TORSDOF 5
