REMARK  Name = ZINC13460495
REMARK  7 active torsions:
REMARK  status: ('A' for Active; 'I' for Inactive)
REMARK    1  A    between atoms: C_1  and  C_2
REMARK    2  A    between atoms: C_3  and  C_26
REMARK    3  A    between atoms: C_4  and  C_18
REMARK    4  A    between atoms: N_9  and  C_10
REMARK    5  A    between atoms: C_21  and  C_24
REMARK    6  A    between atoms: C_26  and  O_28
REMARK    7  A    between atoms: O_28  and  C_29
REMARK                            x       y       z     vdW  Elec       q    Type
REMARK                         _______ _______ _______ _____ _____    ______ ____
ROOT
ATOM      1  C   UNL     1       0.199  -2.756  -0.241  0.00  0.00    +0.062 C 
ATOM      2  C   UNL     1      -1.142  -2.082  -0.109  0.00  0.00    +0.027 C 
ATOM      3  C   UNL     1      -2.270  -2.818  -0.213  0.00  0.00    +0.078 C 
ATOM      4  C   UNL     1      -3.596  -2.099  -0.079  0.00  0.00    +0.141 C 
ATOM      5  N   UNL     1      -3.547  -0.647   0.161  0.00  0.00    -0.315 N 
ATOM      6  C   UNL     1      -2.341  -0.051   0.246  0.00  0.00    +0.142 C 
ATOM      7  S   UNL     1      -2.269   1.637   0.524  0.00  0.00    -0.018 S 
ATOM      8  N   UNL     1      -1.198  -0.736   0.119  0.00  0.00    -0.255 N 
ATOM      9  H   UNL     1      -4.363  -0.131   0.255  0.00  0.00    +0.149 HD
ENDROOT
BRANCH   8  10
ATOM     10  C   UNL     1       0.010  -0.032   0.222  0.00  0.00    +0.042 A 
ATOM     11  C   UNL     1       0.590   0.523  -0.912  0.00  0.00    +0.027 A 
ATOM     12  C   UNL     1       1.779   1.217  -0.809  0.00  0.00    +0.041 A 
ATOM     13  C   UNL     1       2.395   1.360   0.423  0.00  0.00    +0.142 A 
ATOM     14  C   UNL     1       1.818   0.808   1.556  0.00  0.00    +0.078 A 
ATOM     15  C   UNL     1       0.627   0.112   1.457  0.00  0.00    +0.046 A 
ATOM     16 CL   UNL     1       2.591   0.989   3.099  0.00  0.00    -0.081 Cl
ATOM     17  F   UNL     1       3.558   2.039   0.521  0.00  0.00    -0.204 F 
ENDBRANCH   8  10
BRANCH   4  18
ATOM     18  C   UNL     1      -4.382  -2.334  -1.343  0.00  0.00    -0.023 A 
ATOM     19  C   UNL     1      -4.218  -1.486  -2.424  0.00  0.00    +0.006 A 
ATOM     20  C   UNL     1      -4.930  -1.700  -3.587  0.00  0.00    +0.015 A 
ATOM     21  C   UNL     1      -5.827  -2.767  -3.666  0.00  0.00    +0.063 A 
ATOM     22  C   UNL     1      -5.991  -3.616  -2.570  0.00  0.00    +0.015 A 
ATOM     23  C   UNL     1      -5.269  -3.394  -1.416  0.00  0.00    +0.006 A 
BRANCH  21  24
ATOM     24  C   UNL     1      -6.598  -2.997  -4.905  0.00  0.00    +0.387 C 
ATOM     25  O   UNL     1      -7.377  -3.927  -4.972  0.00  0.00    -0.241 OA
ATOM     26  O   UNL     1      -6.436  -2.177  -5.961  0.00  0.00    -0.241 OA
ENDBRANCH  21  24
ENDBRANCH   4  18
BRANCH   3  27
ATOM     27  C   UNL     1      -2.214  -4.212  -0.445  0.00  0.00    +0.339 C 
ATOM     28  O   UNL     1      -1.137  -4.769  -0.549  0.00  0.00    -0.245 OA
BRANCH  27  29
ATOM     29  O   UNL     1      -3.355  -4.925  -0.550  0.00  0.00    -0.465 OA
ATOM     30  C   UNL     1      -3.224  -6.329  -0.784  0.00  0.00    +0.280 C 
ENDBRANCH  27  29
ENDBRANCH   3  27
TORSDOF 5
