REMARK  Name = ZINC06265695
REMARK  6 active torsions:
REMARK  status: ('A' for Active; 'I' for Inactive)
REMARK    1  A    between atoms: C_1  and  C_2
REMARK    2  A    between atoms: C_2  and  S_3
REMARK    3  A    between atoms: S_3  and  C_4
REMARK    4  A    between atoms: C_5  and  C_21
REMARK    5  A    between atoms: C_6  and  C_12
REMARK    6  A    between atoms: C_15  and  N_18
REMARK                            x       y       z     vdW  Elec       q    Type
REMARK                         _______ _______ _______ _____ _____    ______ ____
ROOT
ATOM      1  C   UNL     1       0.730  -2.329  -1.244  0.00  0.00    +0.082 C 
ATOM      2  C   UNL     1       1.261  -3.178  -2.167  0.00  0.00    +0.065 C 
ATOM      3  C   UNL     1       1.164  -4.668  -1.968  0.00  0.00    +0.070 C 
ATOM      4  C   UNL     1       1.247  -4.989  -0.475  0.00  0.00    +0.109 C 
ATOM      5  C   UNL     1       0.313  -4.087   0.287  0.00  0.00    +0.218 C 
ATOM      6  O   UNL     1      -0.254  -4.503   1.275  0.00  0.00    -0.275 OA
ATOM      7  N   UNL     1       0.106  -2.821  -0.118  0.00  0.00    -0.279 N 
ATOM      8  H   UNL     1      -0.571  -2.177   0.462  0.00  0.00    +0.155 HD
ENDROOT
BRANCH   3   9
ATOM      9  C   UNL     1      -0.150  -5.164  -2.516  0.00  0.00    -0.039 A 
ATOM     10  C   UNL     1      -1.339  -4.684  -2.000  0.00  0.00    +0.006 A 
ATOM     11  C   UNL     1      -2.544  -5.136  -2.505  0.00  0.00    +0.033 A 
ATOM     12  C   UNL     1      -2.560  -6.073  -3.521  0.00  0.00    +0.126 A 
ATOM     13  C   UNL     1      -1.371  -6.556  -4.034  0.00  0.00    +0.033 A 
ATOM     14  C   UNL     1      -0.166  -6.102  -3.532  0.00  0.00    +0.006 A 
BRANCH  12  15
ATOM     15  N   UNL     1      -3.850  -6.559  -4.060  0.00  0.00    +0.056 N 
ATOM     16  O   UNL     1      -3.864  -7.385  -4.955  0.00  0.00    -0.126 OA
ATOM     17  O   UNL     1      -4.898  -6.133  -3.608  0.00  0.00    -0.126 OA
ENDBRANCH  12  15
ENDBRANCH   3   9
BRANCH   2  18
ATOM     18  C   UNL     1       1.911  -2.653  -3.330  0.00  0.00    +0.098 C 
ATOM     19  N   UNL     1       2.428  -2.236  -4.252  0.00  0.00    -0.191 NA
ENDBRANCH   2  18
BRANCH   1  20
ATOM     20  S   UNL     1       0.849  -0.588  -1.487  0.00  0.00    -0.109 S 
BRANCH  20  22
ATOM     21  C   UNL     1      -0.019   1.526   0.010  0.00  0.00    +0.015 C 
ATOM     22  C   UNL     1       0.002  -0.004   0.002  0.00  0.00    +0.072 C 
ENDBRANCH  20  22
ENDBRANCH   1  20
TORSDOF 5
