REMARK  Name = ZINC09172484
REMARK  3 active torsions:
REMARK  status: ('A' for Active; 'I' for Inactive)
REMARK    1  A    between atoms: C_1  and  C_2
REMARK    2  A    between atoms: C_10  and  N_15
REMARK    3  A    between atoms: C_16  and  C_18
REMARK                            x       y       z     vdW  Elec       q    Type
REMARK                         _______ _______ _______ _____ _____    ______ ____
ROOT
ATOM      1  C   UNL     1      -6.524  -3.761   1.764  0.00  0.00    +0.053 C 
ATOM      2  C   UNL     1      -5.049  -3.353   1.745  0.00  0.00    +0.187 C 
ATOM      3  C   UNL     1      -4.810  -2.307   2.825  0.00  0.00    +0.148 C 
ATOM      4  N   UNL     1      -5.338  -1.006   2.413  0.00  0.00    -0.308 N 
ATOM      5  C   UNL     1      -4.670  -0.274   1.490  0.00  0.00    +0.248 C 
ATOM      6  O   UNL     1      -5.042   0.846   1.199  0.00  0.00    -0.270 OA
ATOM      7  C   UNL     1      -3.481  -0.862   0.843  0.00  0.00    +0.080 A 
ATOM      8  C   UNL     1      -2.292  -0.143   0.734  0.00  0.00    +0.040 A 
ATOM      9  C   UNL     1      -1.196  -0.722   0.115  0.00  0.00    +0.034 A 
ATOM     10  C   UNL     1      -1.284  -2.011  -0.399  0.00  0.00    +0.027 A 
ATOM     11  C   UNL     1      -2.457  -2.731  -0.288  0.00  0.00    +0.048 A 
ATOM     12  C   UNL     1      -3.560  -2.166   0.330  0.00  0.00    +0.133 A 
ATOM     13  O   UNL     1      -4.722  -2.857   0.453  0.00  0.00    -0.487 OA
ATOM     14  H   UNL     1      -6.162  -0.669   2.799  0.00  0.00    +0.149 HD
ENDROOT
BRANCH   9  15
ATOM     15  N   UNL     1       0.002  -0.004   0.002  0.00  0.00    -0.285 N 
ATOM     16  C   UNL     1      -0.026   1.334  -0.159  0.00  0.00    +0.223 C 
ATOM     17  O   UNL     1      -1.087   1.905  -0.304  0.00  0.00    -0.275 OA
ATOM     18  H   UNL     1       0.852  -0.470   0.039  0.00  0.00    +0.155 HD
BRANCH  16  19
ATOM     19  C   UNL     1       1.260   2.119  -0.165  0.00  0.00    +0.048 C 
ATOM     20  C   UNL     1       2.152   1.629  -1.306  0.00  0.00    +0.019 C 
ATOM     21  C   UNL     1       3.458   2.426  -1.312  0.00  0.00    -0.009 C 
ATOM     22  C   UNL     1       3.147   3.911  -1.510  0.00  0.00    +0.007 C 
ATOM     23  C   UNL     1       2.255   4.402  -0.368  0.00  0.00    -0.009 C 
ATOM     24  C   UNL     1       0.949   3.604  -0.362  0.00  0.00    +0.019 C 
ATOM     25  C   UNL     1       2.979   4.205   0.966  0.00  0.00    +0.007 C 
ATOM     26  C   UNL     1       3.289   2.720   1.163  0.00  0.00    -0.009 C 
ATOM     27  C   UNL     1       4.181   2.230   0.021  0.00  0.00    +0.007 C 
ATOM     28  C   UNL     1       1.984   1.923   1.169  0.00  0.00    +0.019 C 
ENDBRANCH  16  19
ENDBRANCH   9  15
TORSDOF 2
