REMARK  Name = ZINC08606620
REMARK  12 active torsions:
REMARK  status: ('A' for Active; 'I' for Inactive)
REMARK    1  A    between atoms: C_1  and  C_2
REMARK    2  A    between atoms: C_5  and  O_38
REMARK    3  A    between atoms: C_6  and  C_8
REMARK    4  A    between atoms: N_16  and  C_31
REMARK    5  A    between atoms: C_17  and  C_19
REMARK    6  A    between atoms: C_21  and  O_29
REMARK    7  A    between atoms: C_22  and  O_27
REMARK    8  A    between atoms: C_23  and  O_25
REMARK    9  A    between atoms: O_25  and  C_26
REMARK   10  A    between atoms: O_27  and  C_28
REMARK   11  A    between atoms: O_29  and  C_30
REMARK   12  A    between atoms: C_31  and  C_32
REMARK                            x       y       z     vdW  Elec       q    Type
REMARK                         _______ _______ _______ _____ _____    ______ ____
ROOT
ATOM      1  C   UNL     1       0.319  -2.940   2.921  0.00  0.00    +0.102 A 
ATOM      2  C   UNL     1       0.288  -4.336   2.842  0.00  0.00    +0.035 A 
ATOM      3  C   UNL     1       0.211  -4.785   4.146  0.00  0.00    +0.126 A 
ATOM      4  N   UNL     1       0.200  -3.668   4.932  0.00  0.00    -0.272 N 
ATOM      5  H   UNL     1       0.152  -3.669   5.901  0.00  0.00    +0.189 HD
ATOM      6  N   UNL     1       0.268  -2.615   4.198  0.00  0.00    -0.173 NA
ATOM      7  C   UNL     1       0.175  -6.252   4.133  0.00  0.00    +0.266 C 
ATOM      8  O   UNL     1       0.108  -6.953   5.125  0.00  0.00    -0.268 OA
ATOM      9  N   UNL     1       0.227  -6.711   2.870  0.00  0.00    -0.281 N 
ATOM     10  C   UNL     1       0.302  -5.557   1.964  0.00  0.00    +0.142 C 
ENDROOT
BRANCH   1  16
ATOM     11  C   UNL     1      -1.255  -1.463  -1.581  0.00  0.00    +0.044 C 
ATOM     12  C   UNL     1      -0.353  -1.283  -0.387  0.00  0.00    -0.050 A 
ATOM     13  C   UNL     1       0.553  -0.237  -0.359  0.00  0.00    +0.007 A 
ATOM     14  C   UNL     1       1.384  -0.064   0.731  0.00  0.00    +0.046 A 
ATOM     15  C   UNL     1       1.314  -0.940   1.803  0.00  0.00    +0.126 A 
ATOM     16  C   UNL     1       0.401  -1.997   1.778  0.00  0.00    +0.044 A 
ATOM     17  C   UNL     1      -0.437  -2.159   0.676  0.00  0.00    +0.017 A 
BRANCH  15  18
ATOM     18  O   UNL     1       2.132  -0.771   2.875  0.00  0.00    -0.506 OA
ATOM     19  H   UNL     1       1.792  -0.151   3.535  0.00  0.00    +0.292 HD
ENDBRANCH  15  18
ENDBRANCH   1  16
BRANCH  10  20
ATOM     20  C   UNL     1       1.578  -5.607   1.164  0.00  0.00    -0.015 A 
ATOM     21  C   UNL     1       2.766  -5.950   1.783  0.00  0.00    +0.055 A 
ATOM     22  C   UNL     1       3.943  -5.996   1.051  0.00  0.00    +0.165 A 
ATOM     23  C   UNL     1       3.927  -5.698  -0.307  0.00  0.00    +0.204 A 
ATOM     24  C   UNL     1       2.730  -5.354  -0.925  0.00  0.00    +0.165 A 
ATOM     25  C   UNL     1       1.557  -5.314  -0.186  0.00  0.00    +0.055 A 
BRANCH  24  26
ATOM     26  O   UNL     1       2.710  -5.060  -2.252  0.00  0.00    -0.491 OA
ATOM     27  C   UNL     1       1.445  -4.715  -2.821  0.00  0.00    +0.277 C 
ENDBRANCH  24  26
BRANCH  23  28
ATOM     28  O   UNL     1       5.080  -5.742  -1.028  0.00  0.00    -0.488 OA
ATOM     29  C   UNL     1       5.415  -6.989  -1.640  0.00  0.00    +0.277 C 
ENDBRANCH  23  28
BRANCH  22  30
ATOM     30  O   UNL     1       5.111  -6.333   1.660  0.00  0.00    -0.491 OA
ATOM     31  C   UNL     1       5.053  -6.627   3.057  0.00  0.00    +0.277 C 
ENDBRANCH  22  30
ENDBRANCH  10  20
BRANCH   9  32
ATOM     32  C   UNL     1       0.212  -8.119   2.467  0.00  0.00    +0.145 C 
BRANCH  32  33
ATOM     33  C   UNL     1      -1.212  -8.566   2.257  0.00  0.00    -0.012 A 
ATOM     34  C   UNL     1      -1.944  -9.097   3.309  0.00  0.00    +0.008 A 
ATOM     35  C   UNL     1      -3.250  -9.495   3.070  0.00  0.00    +0.020 A 
ATOM     36  C   UNL     1      -3.776  -9.350   1.800  0.00  0.00    +0.111 A 
ATOM     37  N   UNL     1      -3.051  -8.841   0.823  0.00  0.00    -0.263 NA
ATOM     38  C   UNL     1      -1.807  -8.447   1.016  0.00  0.00    +0.115 A 
ENDBRANCH  32  33
ENDBRANCH   9  32
TORSDOF 8
