REMARK  Name = ZINC55921966
REMARK  9 active torsions:
REMARK  status: ('A' for Active; 'I' for Inactive)
REMARK    1  A    between atoms: C_1  and  C_2
REMARK    2  A    between atoms: C_2  and  C_3
REMARK    3  A    between atoms: C_2  and  N_4
REMARK    4  A    between atoms: N_4  and  C_5
REMARK    5  A    between atoms: N_4  and  C_12
REMARK    6  A    between atoms: C_5  and  C_6
REMARK    7  A    between atoms: N_9  and  C_11
REMARK    8  A    between atoms: C_12  and  C_13
REMARK    9  A    between atoms: N_18  and  C_19
REMARK                            x       y       z     vdW  Elec       q    Type
REMARK                         _______ _______ _______ _____ _____    ______ ____
ROOT
ATOM      1  C   UNL     1      -2.492   1.445  -0.334  0.00  0.00    +0.204 C 
ATOM      2  O   UNL     1      -1.666   1.992   0.365  0.00  0.00    -0.277 OA
ATOM      3  N   UNL     1      -3.407   2.179  -0.997  0.00  0.00    -0.242 N 
ATOM      4  C   UNL     1      -3.404   3.522  -0.883  0.00  0.00    +0.306 C 
ATOM      5  O   UNL     1      -2.577   4.071  -0.182  0.00  0.00    -0.252 OA
ATOM      6  N   UNL     1      -4.319   4.256  -1.546  0.00  0.00    -0.294 N 
ATOM      7  H   UNL     1      -4.068   1.741  -1.556  0.00  0.00    +0.159 HD
ATOM      8  H   UNL     1      -4.980   3.818  -2.106  0.00  0.00    +0.151 HD
ENDROOT
BRANCH   6   9
ATOM      9  C   UNL     1      -4.316   5.716  -1.423  0.00  0.00    +0.037 C 
ATOM     10  C   UNL     1      -4.523   6.104   0.043  0.00  0.00    +0.029 C 
ATOM     11  C   UNL     1      -4.520   7.629   0.172  0.00  0.00    -0.008 C 
ATOM     12  C   UNL     1      -5.651   8.215  -0.675  0.00  0.00    +0.007 C 
ATOM     13  C   UNL     1      -5.445   7.827  -2.141  0.00  0.00    -0.008 C 
ATOM     14  C   UNL     1      -5.448   6.302  -2.270  0.00  0.00    +0.029 C 
ATOM     15  C   UNL     1      -4.104   8.377  -2.630  0.00  0.00    +0.007 C 
ATOM     16  C   UNL     1      -2.972   7.791  -1.784  0.00  0.00    -0.008 C 
ATOM     17  C   UNL     1      -3.179   8.180  -0.318  0.00  0.00    +0.007 C 
ATOM     18  C   UNL     1      -2.975   6.267  -1.913  0.00  0.00    +0.029 C 
ENDBRANCH   6   9
BRANCH   1  19
ATOM     19  C   UNL     1      -2.495  -0.057  -0.461  0.00  0.00    +0.020 C 
BRANCH  19  20
ATOM     20  N   UNL     1      -1.311  -0.608   0.211  0.00  0.00    +0.390 N 
ATOM     21  H   UNL     1      -1.129  -0.084   1.055  0.00  0.00    -0.080 HD
BRANCH  20  23
ATOM     22  C   UNL     1      -0.433  -1.292  -1.970  0.00  0.00    -0.013 C 
ATOM     23  C   UNL     1      -0.150  -0.512  -0.684  0.00  0.00    -0.074 C 
ATOM     24  C   UNL     1       0.111   0.957  -1.026  0.00  0.00    -0.013 C 
ENDBRANCH  20  23
BRANCH  20  25
ATOM     25  C   UNL     1      -1.551  -2.016   0.552  0.00  0.00    -0.039 C 
BRANCH  25  26
ATOM     26  C   UNL     1      -0.402  -2.537   1.376  0.00  0.00    -0.026 A 
ATOM     27  C   UNL     1       0.784  -3.086   0.880  0.00  0.00    +0.136 A 
ATOM     28  N   UNL     1       1.536  -3.422   1.896  0.00  0.00    -0.180 NA
ATOM     29  N   UNL     1       0.850  -3.098   3.074  0.00  0.00    -0.274 N 
ATOM     30  C   UNL     1      -0.334  -2.551   2.728  0.00  0.00    +0.109 A 
ATOM     31  C   UNL     1       1.335  -3.309   4.440  0.00  0.00    +0.172 C 
ENDBRANCH  25  26
ENDBRANCH  20  25
ENDBRANCH  19  20
ENDBRANCH   1  19
TORSDOF 6
