REMARK  Name = ZINC67286648
REMARK  7 active torsions:
REMARK  status: ('A' for Active; 'I' for Inactive)
REMARK    1  A    between atoms: C_1  and  O_2
REMARK    2  A    between atoms: O_2  and  C_3
REMARK    3  A    between atoms: C_3  and  C_5
REMARK    4  A    between atoms: C_6  and  C_19
REMARK    5  A    between atoms: C_11  and  C_13
REMARK    6  A    between atoms: C_19  and  N_20
REMARK    7  A    between atoms: N_23  and  C_26
REMARK                            x       y       z     vdW  Elec       q    Type
REMARK                         _______ _______ _______ _____ _____    ______ ____
ROOT
ATOM      1  C   UNL     1      -1.257  -2.049  -0.085  0.00  0.00    +0.079 C 
ATOM      2  C   UNL     1      -2.424  -2.700   0.106  0.00  0.00    +0.038 C 
ATOM      3  N   UNL     1      -2.466  -4.062   0.187  0.00  0.00    -0.271 N 
ATOM      4  C   UNL     1      -1.384  -4.846   0.088  0.00  0.00    +0.304 C 
ATOM      5  O   UNL     1      -1.521  -6.051   0.174  0.00  0.00    -0.252 OA
ATOM      6  N   UNL     1      -0.149  -4.342  -0.103  0.00  0.00    -0.288 N 
ATOM      7  C   UNL     1       0.003  -2.881  -0.211  0.00  0.00    +0.144 C 
ATOM      8  H   UNL     1      -3.327  -4.487   0.325  0.00  0.00    +0.156 HD
ATOM      9  H   UNL     1       0.621  -4.928  -0.172  0.00  0.00    +0.151 HD
ENDROOT
BRANCH   7  10
ATOM     10  C   UNL     1       0.633  -2.572  -1.545  0.00  0.00    -0.023 A 
ATOM     11  C   UNL     1       0.140  -3.161  -2.695  0.00  0.00    +0.006 A 
ATOM     12  C   UNL     1       0.718  -2.878  -3.918  0.00  0.00    +0.000 A 
ATOM     13  C   UNL     1       1.787  -2.005  -3.993  0.00  0.00    +0.000 A 
ATOM     14  C   UNL     1       2.279  -1.415  -2.843  0.00  0.00    +0.000 A 
ATOM     15  C   UNL     1       1.699  -1.695  -1.620  0.00  0.00    +0.006 A 
ENDBRANCH   7  10
BRANCH   1  16
ATOM     16  C   UNL     1      -1.212  -0.637  -0.170  0.00  0.00    +0.339 C 
ATOM     17  O   UNL     1      -1.150  -0.095  -1.258  0.00  0.00    -0.245 OA
BRANCH  16  19
ATOM     18  C   UNL     1      -1.191   1.527   0.794  0.00  0.00    +0.280 C 
ATOM     19  O   UNL     1      -1.239   0.108   0.954  0.00  0.00    -0.465 OA
ENDBRANCH  16  19
ENDBRANCH   1  16
BRANCH   2  20
ATOM     20  C   UNL     1      -3.701  -1.911   0.231  0.00  0.00    +0.135 C 
BRANCH  20  21
ATOM     21  N   UNL     1      -4.589  -2.233  -0.894  0.00  0.00    -0.300 NA
ATOM     22  C   UNL     1      -4.018  -1.765  -2.166  0.00  0.00    +0.066 C 
ATOM     23  C   UNL     1      -4.942  -2.172  -3.316  0.00  0.00    -0.063 C 
ATOM     24  N   UNL     1      -6.271  -1.581  -3.109  0.00  0.00    +0.383 N 
ATOM     25  C   UNL     1      -6.838  -2.077  -1.848  0.00  0.00    -0.063 C 
ATOM     26  C   UNL     1      -5.930  -1.670  -0.686  0.00  0.00    +0.066 C 
ATOM     27  H   UNL     1      -6.190  -0.577  -3.069  0.00  0.00    -0.081 HD
BRANCH  24  28
ATOM     28  C   UNL     1      -7.152  -1.957  -4.223  0.00  0.00    -0.068 C 
ATOM     29  C   UNL     1      -6.562  -1.440  -5.537  0.00  0.00    -0.015 C 
ATOM     30  C   UNL     1      -7.480  -1.831  -6.697  0.00  0.00    -0.002 C 
ATOM     31  C   UNL     1      -8.864  -1.216  -6.482  0.00  0.00    -0.000 C 
ATOM     32  C   UNL     1      -9.454  -1.734  -5.168  0.00  0.00    -0.002 C 
ATOM     33  C   UNL     1      -8.536  -1.343  -4.008  0.00  0.00    -0.015 C 
ENDBRANCH  24  28
ENDBRANCH  20  21
ENDBRANCH   2  20
TORSDOF 6
