REMARK  Name = ZINC67469241
REMARK  8 active torsions:
REMARK  status: ('A' for Active; 'I' for Inactive)
REMARK    1  A    between atoms: C_1  and  C_2
REMARK    2  A    between atoms: C_2  and  C_4
REMARK    3  A    between atoms: C_2  and  N_15
REMARK    4  A    between atoms: C_8  and  S_10
REMARK    5  A    between atoms: S_10  and  N_13
REMARK    6  A    between atoms: N_13  and  C_14
REMARK    7  A    between atoms: C_22  and  C_24
REMARK    8  A    between atoms: N_28  and  C_29
REMARK                            x       y       z     vdW  Elec       q    Type
REMARK                         _______ _______ _______ _____ _____    ______ ____
ROOT
ATOM      1  N   UNL     1       0.688  -0.476  -1.203  0.00  0.00    -0.293 N 
ATOM      2  C   UNL     1       0.006  -0.608  -2.358  0.00  0.00    +0.303 C 
ATOM      3  O   UNL     1      -1.178  -0.335  -2.400  0.00  0.00    -0.253 OA
ATOM      4  N   UNL     1       0.637  -1.043  -3.467  0.00  0.00    -0.277 N 
ATOM      5  C   UNL     1       2.061  -1.414  -3.556  0.00  0.00    +0.110 C 
ATOM      6  C   UNL     1       2.426  -1.233  -5.051  0.00  0.00    +0.021 C 
ATOM      7  C   UNL     1       1.125  -1.712  -5.749  0.00  0.00    +0.030 C 
ATOM      8  C   UNL     1       0.018  -1.231  -4.787  0.00  0.00    +0.124 C 
ATOM      9  H   UNL     1       1.632  -0.695  -1.170  0.00  0.00    +0.151 HD
ENDROOT
BRANCH   8  10
ATOM     10  C   UNL     1      -1.073  -2.268  -4.699  0.00  0.00    +0.039 A 
ATOM     11  C   UNL     1      -1.076  -3.344  -3.886  0.00  0.00    +0.024 A 
ATOM     12  C   UNL     1      -2.275  -4.046  -4.120  0.00  0.00    +0.019 A 
ATOM     13  C   UNL     1      -2.958  -3.372  -5.067  0.00  0.00    +0.085 A 
ATOM     14  N   UNL     1      -2.228  -2.277  -5.422  0.00  0.00    -0.352 N 
ATOM     15  C   UNL     1      -2.619  -1.277  -6.419  0.00  0.00    +0.148 C 
ENDBRANCH   8  10
BRANCH   1  17
ATOM     16  C   UNL     1      -0.019   1.526   0.010  0.00  0.00    +0.033 C 
ATOM     17  C   UNL     1       0.002  -0.004   0.002  0.00  0.00    +0.102 C 
BRANCH  17  18
ATOM     18  C   UNL     1       0.731  -0.503   1.223  0.00  0.00    -0.026 A 
ATOM     19  C   UNL     1       2.113  -0.514   1.247  0.00  0.00    +0.005 A 
ATOM     20  C   UNL     1       2.782  -0.972   2.366  0.00  0.00    +0.002 A 
ATOM     21  C   UNL     1       2.068  -1.419   3.463  0.00  0.00    +0.028 A 
ATOM     22  C   UNL     1       0.686  -1.407   3.439  0.00  0.00    +0.106 A 
ATOM     23  C   UNL     1       0.018  -0.945   2.321  0.00  0.00    +0.034 A 
BRANCH  22  24
ATOM     24  S   UNL     1      -0.223  -1.978   4.837  0.00  0.00    +0.058 S 
ATOM     25  O   UNL     1      -1.500  -2.374   4.356  0.00  0.00    -0.153 OA
ATOM     26  O   UNL     1       0.633  -2.864   5.545  0.00  0.00    -0.153 OA
BRANCH  24  27
ATOM     27  N   UNL     1      -0.474  -0.672   5.824  0.00  0.00    -0.193 NA
ATOM     28  C   UNL     1      -1.305   0.444   5.365  0.00  0.00    +0.127 C 
ATOM     29  H   UNL     1      -0.071  -0.646   6.706  0.00  0.00    +0.148 HD
ENDBRANCH  24  27
ENDBRANCH  22  24
ENDBRANCH  17  18
ENDBRANCH   1  17
TORSDOF 5
