REMARK  Name = ZINC49449975
REMARK  8 active torsions:
REMARK  status: ('A' for Active; 'I' for Inactive)
REMARK    1  A    between atoms: C_1  and  C_2
REMARK    2  A    between atoms: C_3  and  C_8
REMARK    3  A    between atoms: C_5  and  C_7
REMARK    4  A    between atoms: N_16  and  C_17
REMARK    5  A    between atoms: C_20  and  C_23
REMARK    6  A    between atoms: C_23  and  C_24
REMARK    7  A    between atoms: C_23  and  C_25
REMARK    8  A    between atoms: C_23  and  C_26
REMARK                            x       y       z     vdW  Elec       q    Type
REMARK                         _______ _______ _______ _____ _____    ______ ____
ROOT
ATOM      1  C   UNL     1      -0.002  -0.246  -2.563  0.00  0.00    +0.258 A 
ATOM      2  N   UNL     1      -0.024   1.007  -2.958  0.00  0.00    -0.105 NA
ATOM      3  N   UNL     1      -0.034   1.049  -4.244  0.00  0.00    -0.092 NA
ATOM      4  C   UNL     1      -0.018  -0.171  -4.721  0.00  0.00    +0.316 A 
ATOM      5  O   UNL     1       0.009  -1.016  -3.673  0.00  0.00    -0.404 OA
ATOM      6  N   UNL     1      -0.023  -0.526  -6.062  0.00  0.00    -0.222 N 
ATOM      7  C   UNL     1      -0.044   0.429  -7.012  0.00  0.00    +0.311 C 
ATOM      8  O   UNL     1      -0.060   1.602  -6.694  0.00  0.00    -0.252 OA
ATOM      9  N   UNL     1      -0.048   0.083  -8.315  0.00  0.00    -0.269 N 
ATOM     10  H   UNL     1      -0.010  -1.463  -6.315  0.00  0.00    +0.161 HD
ATOM     11  H   UNL     1       0.032  -0.849  -8.569  0.00  0.00    +0.156 HD
ENDROOT
BRANCH   1  14
ATOM     12  C   UNL     1      -0.024   1.502   0.011  0.00  0.00    +0.067 C 
ATOM     13  C   UNL     1       0.008  -0.005   0.002  0.00  0.00    +0.058 A 
ATOM     14  C   UNL     1       0.016  -0.721  -1.171  0.00  0.00    +0.098 A 
ATOM     15  S   UNL     1       0.055  -2.390  -0.536  0.00  0.00    -0.067 S 
ATOM     16  C   UNL     1       0.056  -2.013   1.105  0.00  0.00    +0.076 A 
ATOM     17  N   UNL     1       0.034  -0.702   1.115  0.00  0.00    -0.249 NA
ATOM     18  C   UNL     1       0.082  -2.956   2.279  0.00  0.00    +0.073 C 
ENDBRANCH   1  14
BRANCH   9  19
ATOM     19  C   UNL     1      -0.168   1.070  -9.300  0.00  0.00    +0.035 A 
ATOM     20  C   UNL     1      -0.875   0.806 -10.466  0.00  0.00    +0.023 A 
ATOM     21  C   UNL     1      -0.992   1.782 -11.437  0.00  0.00    +0.006 A 
ATOM     22  C   UNL     1      -0.406   3.020 -11.248  0.00  0.00    -0.042 A 
ATOM     23  C   UNL     1       0.299   3.286 -10.088  0.00  0.00    +0.006 A 
ATOM     24  C   UNL     1       0.414   2.316  -9.111  0.00  0.00    +0.023 A 
BRANCH  22  25
ATOM     25  C   UNL     1      -0.534   4.082 -12.309  0.00  0.00    -0.013 C 
ATOM     26  C   UNL     1      -2.014   4.403 -12.533  0.00  0.00    +0.015 C 
ATOM     27  C   UNL     1       0.199   5.347 -11.857  0.00  0.00    +0.015 C 
ATOM     28  C   UNL     1       0.081   3.576 -13.615  0.00  0.00    +0.015 C 
ENDBRANCH  22  25
ENDBRANCH   9  19
TORSDOF 3
