REMARK  Name = ZINC06300454
REMARK  14 active torsions:
REMARK  status: ('A' for Active; 'I' for Inactive)
REMARK    1  A    between atoms: C_1  and  C_2
REMARK    2  A    between atoms: C_4  and  C_34
REMARK    3  A    between atoms: C_9  and  C_14
REMARK    4  A    between atoms: C_14  and  N_15
REMARK    5  A    between atoms: N_15  and  C_16
REMARK    6  A    between atoms: N_15  and  C_26
REMARK    7  A    between atoms: C_16  and  C_17
REMARK    8  A    between atoms: C_26  and  N_28
REMARK    9  A    between atoms: N_28  and  C_29
REMARK   10  A    between atoms: C_29  and  C_30
REMARK   11  A    between atoms: C_30  and  C_31
REMARK   12  A    between atoms: C_31  and  N_66
REMARK   13  A    between atoms: C_32  and  N_66
REMARK   14  A    between atoms: C_33  and  N_66
REMARK                            x       y       z     vdW  Elec       q    Type
REMARK                         _______ _______ _______ _____ _____    ______ ____
ROOT
ATOM      1  N   UNL     1      -1.603   7.910  -1.300  0.00  0.00    -0.304 N 
ENDROOT
BRANCH   1   2
ATOM      2  C   UNL     1      -2.874   8.092  -1.711  0.00  0.00    +0.133 C 
ATOM      3  S   UNL     1      -4.166   7.909  -0.603  0.00  0.00    -0.019 S 
BRANCH   2   4
ATOM      4  N   UNL     1      -3.127   8.420  -2.994  0.00  0.00    -0.326 N 
ATOM      5  H   UNL     1      -2.394   8.524  -3.621  0.00  0.00    +0.148 HD
BRANCH   4   6
ATOM      6  C   UNL     1      -4.508   8.618  -3.440  0.00  0.00    +0.101 C 
BRANCH   6   7
ATOM      7  C   UNL     1      -4.516   8.979  -4.927  0.00  0.00    +0.000 C 
BRANCH   7   8
ATOM      8  C   UNL     1      -5.959   9.187  -5.393  0.00  0.00    -0.078 C 
BRANCH   8  11
ATOM      9  C   UNL     1      -7.333   9.508  -7.361  0.00  0.00    -0.097 C 
ATOM     10  C   UNL     1      -5.334  10.839  -7.049  0.00  0.00    -0.097 C 
ATOM     11  N   UNL     1      -5.951   9.514  -6.835  0.00  0.00    +0.376 N 
ATOM     12  H   UNL     1      -5.401   8.805  -7.335  0.00  0.00    -0.083 HD
ENDBRANCH   8  11
ENDBRANCH   7   8
ENDBRANCH   6   7
ENDBRANCH   4   6
ENDBRANCH   2   4
ENDBRANCH   1   2
BRANCH   1  13
ATOM     13  C   UNL     1      -1.333   7.452   0.065  0.00  0.00    +0.147 C 
BRANCH  13  22
ATOM     14  C   UNL     1      -3.792  12.515   4.957  0.00  0.00    +0.044 C 
ATOM     15  C   UNL     1      -2.686  11.923   4.122  0.00  0.00    -0.050 A 
ATOM     16  C   UNL     1      -1.417  12.483   4.166  0.00  0.00    +0.008 A 
ATOM     17  C   UNL     1      -0.392  11.962   3.406  0.00  0.00    -0.026 A 
ATOM     18  C   UNL     1      -0.627  10.857   2.595  0.00  0.00    +0.052 A 
ATOM     19  C   UNL     1      -1.915  10.292   2.553  0.00  0.00    -0.001 A 
ATOM     20  C   UNL     1      -2.942  10.841   3.329  0.00  0.00    +0.013 A 
ATOM     21  C   UNL     1      -2.154   9.133   1.692  0.00  0.00    +0.020 A 
ATOM     22  C   UNL     1      -1.121   8.644   0.962  0.00  0.00    +0.035 A 
ATOM     23  C   UNL     1       0.152   9.247   1.040  0.00  0.00    +0.254 A 
ATOM     24  O   UNL     1       1.067   8.791   0.376  0.00  0.00    -0.268 OA
ATOM     25  N   UNL     1       0.381  10.312   1.828  0.00  0.00    -0.322 N 
ATOM     26  H   UNL     1       1.269  10.702   1.858  0.00  0.00    +0.169 HD
ATOM     27  C   UNL     1       0.980  12.584   3.459  0.00  0.00    +0.046 C 
ENDBRANCH  13  22
ENDBRANCH   1  13
BRANCH   1  28
ATOM     28  C   UNL     1      -0.492   8.169  -2.219  0.00  0.00    +0.142 C 
BRANCH  28  29
ATOM     29  C   UNL     1      -0.092   6.885  -2.899  0.00  0.00    -0.026 A 
ATOM     30  C   UNL     1       0.795   6.024  -2.280  0.00  0.00    +0.009 A 
ATOM     31  C   UNL     1       1.160   4.842  -2.898  0.00  0.00    +0.050 A 
ATOM     32  C   UNL     1       0.646   4.523  -4.144  0.00  0.00    +0.166 A 
ATOM     33  C   UNL     1      -0.243   5.393  -4.770  0.00  0.00    +0.167 A 
ATOM     34  C   UNL     1      -0.609   6.573  -4.143  0.00  0.00    +0.054 A 
ATOM     35  O   UNL     1      -0.601   4.859  -5.974  0.00  0.00    -0.453 OA
ATOM     36  C   UNL     1       0.390   3.855  -6.259  0.00  0.00    +0.466 C 
ATOM     37  O   UNL     1       0.846   3.445  -4.957  0.00  0.00    -0.453 OA
ENDBRANCH  28  29
ENDBRANCH   1  28
TORSDOF 10
