REMARK  Name = ZINC12381700
REMARK  7 active torsions:
REMARK  status: ('A' for Active; 'I' for Inactive)
REMARK    1  A    between atoms: C_1  and  C_2
REMARK    2  A    between atoms: C_2  and  C_3
REMARK    3  A    between atoms: C_2  and  C_4
REMARK    4  A    between atoms: C_2  and  C_5
REMARK    5  A    between atoms: C_8  and  C_11
REMARK    6  A    between atoms: N_12  and  N_13
REMARK    7  A    between atoms: N_16  and  C_19
REMARK                            x       y       z     vdW  Elec       q    Type
REMARK                         _______ _______ _______ _____ _____    ______ ____
ROOT
ATOM      1  N   UNL     1      -2.981  -2.441   1.079  0.00  0.00    -0.253 N 
ATOM      2  C   UNL     1      -3.106  -2.180  -0.363  0.00  0.00    +0.145 C 
ATOM      3  C   UNL     1      -1.730  -2.364  -1.013  0.00  0.00    +0.127 C 
ATOM      4  N   UNL     1      -0.746  -1.527  -0.313  0.00  0.00    -0.314 N 
ATOM      5  C   UNL     1      -0.594  -1.942   1.088  0.00  0.00    +0.127 C 
ATOM      6  C   UNL     1      -1.923  -1.741   1.824  0.00  0.00    +0.145 C 
ENDROOT
BRANCH   4   7
ATOM      7  C   UNL     1       0.478  -1.541  -0.972  0.00  0.00    +0.099 A 
ATOM      8  C   UNL     1       1.544  -0.806  -0.462  0.00  0.00    +0.042 A 
ATOM      9  C   UNL     1       2.756  -0.830  -1.128  0.00  0.00    +0.005 A 
ATOM     10  C   UNL     1       2.862  -1.590  -2.285  0.00  0.00    +0.018 A 
ATOM     11  C   UNL     1       1.764  -2.295  -2.734  0.00  0.00    +0.084 A 
ATOM     12  N   UNL     1       0.557  -2.295  -2.106  0.00  0.00    -0.350 N 
ATOM     13  H   UNL     1      -0.243  -2.829  -2.463  0.00  0.00    +0.166 HD
ENDBRANCH   4   7
BRANCH   1  15
ATOM     14  C   UNL     1      -4.645  -2.906   2.652  0.00  0.00    +0.138 C 
ATOM     15  N   UNL     1      -3.845  -3.334   1.725  0.00  0.00    -0.192 NA
BRANCH  14  19
ATOM     16  C   UNL     1      -5.247   1.262   3.178  0.00  0.00    -0.042 A 
ATOM     17  C   UNL     1      -4.542   0.801   2.081  0.00  0.00    +0.005 A 
ATOM     18  C   UNL     1      -4.342  -0.552   1.903  0.00  0.00    +0.010 A 
ATOM     19  C   UNL     1      -4.854  -1.458   2.835  0.00  0.00    -0.005 A 
ATOM     20  C   UNL     1      -5.569  -0.986   3.938  0.00  0.00    +0.010 A 
ATOM     21  C   UNL     1      -5.757   0.371   4.105  0.00  0.00    +0.005 A 
BRANCH  16  23
ATOM     22  C   UNL     1      -6.231   3.301   2.166  0.00  0.00    +0.015 C 
ATOM     23  C   UNL     1      -5.461   2.742   3.365  0.00  0.00    -0.013 C 
ATOM     24  C   UNL     1      -6.264   2.984   4.644  0.00  0.00    +0.015 C 
ATOM     25  C   UNL     1      -4.106   3.444   3.472  0.00  0.00    +0.015 C 
ENDBRANCH  16  23
ENDBRANCH  14  19
ENDBRANCH   1  15
TORSDOF 4
