REMARK  Name = ZINC13026645
REMARK  6 active torsions:
REMARK  status: ('A' for Active; 'I' for Inactive)
REMARK    1  A    between atoms: C_1  and  C_2
REMARK    2  A    between atoms: C_5  and  C_23
REMARK    3  A    between atoms: C_7  and  S_8
REMARK    4  A    between atoms: S_8  and  N_11
REMARK    5  A    between atoms: C_17  and  O_21
REMARK    6  A    between atoms: O_21  and  C_22
REMARK                            x       y       z     vdW  Elec       q    Type
REMARK                         _______ _______ _______ _____ _____    ______ ____
ROOT
ATOM      1  S   UNL     1       0.110   0.047  -2.809  0.00  0.00    +0.074 S 
ATOM      2  O   UNL     1       1.252   0.886  -2.913  0.00  0.00    -0.150 OA
ATOM      3  O   UNL     1      -0.131  -1.027  -3.708  0.00  0.00    -0.150 OA
ENDROOT
BRANCH   1   4
ATOM      4  N   UNL     1      -1.214   1.038  -2.891  0.00  0.00    -0.194 N 
ATOM      5  C   UNL     1      -1.279   2.170  -2.102  0.00  0.00    +0.179 A 
ATOM      6  N   UNL     1      -0.445   2.575  -1.173  0.00  0.00    -0.224 NA
ATOM      7  C   UNL     1      -0.636   3.717  -0.473  0.00  0.00    +0.081 A 
ATOM      8  C   UNL     1       0.179   4.262   0.545  0.00  0.00    +0.032 A 
ATOM      9  C   UNL     1      -0.159   5.439   1.160  0.00  0.00    +0.048 A 
ATOM     10  C   UNL     1      -1.309   6.138   0.808  0.00  0.00    +0.121 A 
ATOM     11  C   UNL     1      -2.131   5.630  -0.188  0.00  0.00    +0.063 A 
ATOM     12  C   UNL     1      -1.796   4.451  -0.806  0.00  0.00    +0.044 A 
ATOM     13  S   UNL     1      -2.517   3.460  -2.093  0.00  0.00    -0.051 S 
ATOM     14  H   UNL     1      -1.944   0.824  -3.493  0.00  0.00    +0.176 HD
BRANCH  10  15
ATOM     15  O   UNL     1      -1.624   7.304   1.432  0.00  0.00    -0.495 OA
ATOM     16  C   UNL     1      -0.727   7.760   2.446  0.00  0.00    +0.277 C 
ENDBRANCH  10  15
ENDBRANCH   1   4
BRANCH   1  23
ATOM     17  C   UNL     1      -2.045  -1.754  -1.698  0.00  0.00    +0.046 C 
ATOM     18  C   UNL     1      -0.895  -1.464  -0.770  0.00  0.00    -0.024 A 
ATOM     19  C   UNL     1      -0.875  -2.019   0.498  0.00  0.00    +0.006 A 
ATOM     20  C   UNL     1       0.175  -1.758   1.353  0.00  0.00    +0.015 A 
ATOM     21  C   UNL     1       1.221  -0.931   0.936  0.00  0.00    +0.065 A 
ATOM     22  C   UNL     1       1.195  -0.374  -0.344  0.00  0.00    +0.044 A 
ATOM     23  C   UNL     1       0.141  -0.648  -1.190  0.00  0.00    +0.112 A 
BRANCH  21  24
ATOM     24  C   UNL     1       2.349  -0.647   1.846  0.00  0.00    +0.387 C 
ATOM     25  O   UNL     1       3.258   0.072   1.482  0.00  0.00    -0.241 OA
ATOM     26  O   UNL     1       2.371  -1.185   3.081  0.00  0.00    -0.241 OA
ENDBRANCH  21  24
ENDBRANCH   1  23
TORSDOF 4
