REMARK  Name = ZINC24654314
REMARK  8 active torsions:
REMARK  status: ('A' for Active; 'I' for Inactive)
REMARK    1  A    between atoms: C_1  and  C_2
REMARK    2  A    between atoms: C_5  and  C_7
REMARK    3  A    between atoms: N_9  and  C_10
REMARK    4  A    between atoms: C_10  and  C_11
REMARK    5  A    between atoms: N_13  and  C_14
REMARK    6  A    between atoms: N_13  and  C_15
REMARK    7  A    between atoms: C_15  and  C_16
REMARK    8  A    between atoms: C_19  and  N_22
REMARK                            x       y       z     vdW  Elec       q    Type
REMARK                         _______ _______ _______ _____ _____    ______ ____
ROOT
ATOM      1  C   UNL     1       2.321   4.314   2.019  0.00  0.00    +0.233 C 
ATOM      2  O   UNL     1       3.369   4.132   1.437  0.00  0.00    -0.274 OA
ATOM      3  N   UNL     1       1.151   4.074   1.394  0.00  0.00    -0.299 N 
ATOM      4  C   UNL     1      -0.115   4.294   2.097  0.00  0.00    +0.132 C 
ENDROOT
BRANCH   1   5
ATOM      5  C   UNL     1       2.326   4.809   3.443  0.00  0.00    +0.200 C 
BRANCH   5   8
ATOM      6  C   UNL     1       3.959   5.431   5.140  0.00  0.00    +0.251 C 
ATOM      7  O   UNL     1       3.037   5.676   5.896  0.00  0.00    -0.270 OA
ATOM      8  N   UNL     1       3.708   4.992   3.891  0.00  0.00    -0.302 N 
ATOM      9  H   UNL     1       4.542   4.771   3.208  0.00  0.00    +0.150 HD
BRANCH   6  14
ATOM     10  C   UNL     1       9.488   5.797   5.882  0.00  0.00    +0.051 C 
ATOM     11  C   UNL     1       7.982   5.787   5.938  0.00  0.00    -0.013 A 
ATOM     12  C   UNL     1       7.173   6.132   6.974  0.00  0.00    +0.011 A 
ATOM     13  C   UNL     1       5.812   6.051   6.818  0.00  0.00    +0.021 A 
ATOM     14  C   UNL     1       5.343   5.614   5.589  0.00  0.00    +0.074 A 
ATOM     15  S   UNL     1       6.861   5.326   4.698  0.00  0.00    -0.089 S 
ENDBRANCH   6  14
ENDBRANCH   5   8
ENDBRANCH   1   5
BRANCH   3  16
ATOM     16  C   UNL     1       1.146   3.593   0.010  0.00  0.00    +0.142 C 
BRANCH  16  17
ATOM     17  C   UNL     1       1.171   2.086   0.002  0.00  0.00    -0.030 A 
ATOM     18  C   UNL     1      -0.017   1.377   0.010  0.00  0.00    +0.007 A 
ATOM     19  C   UNL     1       0.002  -0.004   0.002  0.00  0.00    +0.023 A 
ATOM     20  C   UNL     1       1.215  -0.681  -0.013  0.00  0.00    +0.030 A 
ATOM     21  C   UNL     1       2.406   0.035  -0.021  0.00  0.00    +0.023 A 
ATOM     22  C   UNL     1       2.380   1.416  -0.013  0.00  0.00    +0.007 A 
BRANCH  20  23
ATOM     23  N   UNL     1       1.238  -2.077  -0.021  0.00  0.00    -0.330 N 
ATOM     24  C   UNL     1       0.487  -2.622   1.118  0.00  0.00    +0.105 C 
ATOM     25  C   UNL     1       0.410  -4.145   0.998  0.00  0.00    +0.019 C 
ATOM     26  C   UNL     1       1.827  -4.723   0.975  0.00  0.00    +0.003 C 
ATOM     27  C   UNL     1       2.603  -4.104  -0.191  0.00  0.00    +0.019 C 
ATOM     28  C   UNL     1       2.617  -2.581  -0.036  0.00  0.00    +0.105 C 
ENDBRANCH  20  23
ENDBRANCH  16  17
ENDBRANCH   3  16
TORSDOF 6
