REMARK  Name = ZINC37182235
REMARK  4 active torsions:
REMARK  status: ('A' for Active; 'I' for Inactive)
REMARK    1  A    between atoms: C_3  and  S_8
REMARK    2  A    between atoms: C_6  and  N_7
REMARK    3  A    between atoms: S_8  and  C_9
REMARK    4  A    between atoms: C_9  and  C_10
REMARK                            x       y       z     vdW  Elec       q    Type
REMARK                         _______ _______ _______ _____ _____    ______ ____
ROOT
ATOM      1  S   UNL     1       3.896   2.315  -0.023  0.00  0.00    -0.116 S 
ENDROOT
BRANCH   1   4
ATOM      2  C   UNL     1      -0.017   1.385   0.010  0.00  0.00    +0.024 A 
ATOM      3  C   UNL     1       1.169   2.091   0.002  0.00  0.00    +0.016 A 
ATOM      4  C   UNL     1       2.382   1.413  -0.013  0.00  0.00    +0.008 A 
ATOM      5  C   UNL     1       2.400   0.024  -0.021  0.00  0.00    +0.016 A 
ATOM      6  C   UNL     1       1.214  -0.682  -0.013  0.00  0.00    +0.024 A 
ATOM      7  C   UNL     1       0.002  -0.004   0.002  0.00  0.00    +0.025 A 
BRANCH   7   8
ATOM      8  N   UNL     1      -1.201  -0.720   0.010  0.00  0.00    -0.358 N 
ATOM      9  H   UNL     1      -2.047  -0.247   0.020  0.00  0.00    +0.142 HD
ATOM     10  H   UNL     1      -1.188  -1.690   0.004  0.00  0.00    +0.142 HD
ENDBRANCH   7   8
ENDBRANCH   1   4
BRANCH   1  11
ATOM     11  C   UNL     1       5.173   1.027  -0.042  0.00  0.00    +0.170 C 
BRANCH  11  12
ATOM     12  C   UNL     1       6.535   1.671  -0.052  0.00  0.00    +0.233 C 
ATOM     13  O   UNL     1       6.635   2.879  -0.047  0.00  0.00    -0.274 OA
ATOM     14  N   UNL     1       7.644   0.904  -0.067  0.00  0.00    -0.224 N 
ATOM     15  C   UNL     1       9.026   1.404  -0.072  0.00  0.00    +0.136 C 
ATOM     16  C   UNL     1       9.882   0.123  -0.089  0.00  0.00    +0.125 C 
ATOM     17  N   UNL     1       8.891  -0.963  -0.092  0.00  0.00    -0.297 N 
ATOM     18  C   UNL     1       7.660  -0.436  -0.073  0.00  0.00    +0.309 C 
ATOM     19  O   UNL     1       6.650  -1.111  -0.066  0.00  0.00    -0.252 OA
ATOM     20  H   UNL     1       9.096  -1.911  -0.102  0.00  0.00    +0.150 HD
ENDBRANCH  11  12
ENDBRANCH   1  11
TORSDOF 4
