REMARK  Name = ZINC12135853
REMARK  10 active torsions:
REMARK  status: ('A' for Active; 'I' for Inactive)
REMARK    1  A    between atoms: C_1  and  C_2
REMARK    2  A    between atoms: C_4  and  C_10
REMARK    3  A    between atoms: C_6  and  C_9
REMARK    4  A    between atoms: C_7  and  O_8
REMARK    5  A    between atoms: C_10  and  N_69
REMARK    6  A    between atoms: C_22  and  N_28
REMARK    7  A    between atoms: C_24  and  O_26
REMARK    8  A    between atoms: O_26  and  C_27
REMARK    9  A    between atoms: C_29  and  C_31
REMARK   10  A    between atoms: C_31  and  C_32
REMARK                            x       y       z     vdW  Elec       q    Type
REMARK                         _______ _______ _______ _____ _____    ______ ____
ROOT
ATOM      1  C   UNL     1      -2.062   0.977  -1.276  0.00  0.00    -0.077 C 
ATOM      2  C   UNL     1      -2.828   1.622  -2.434  0.00  0.00    -0.005 C 
ATOM      3  C   UNL     1      -2.049   1.416  -3.731  0.00  0.00    +0.021 C 
ATOM      4  C   UNL     1      -0.637   1.980  -3.596  0.00  0.00    -0.005 C 
ATOM      5  C   UNL     1       0.058   1.323  -2.400  0.00  0.00    -0.077 C 
ATOM      6  C   UNL     1      -2.769   2.069  -4.886  0.00  0.00    -0.034 A 
ATOM      7  C   UNL     1      -3.374   3.311  -4.987  0.00  0.00    +0.004 A 
ATOM      8  C   UNL     1      -3.982   3.695  -6.166  0.00  0.00    +0.000 A 
ATOM      9  C   UNL     1      -3.988   2.838  -7.251  0.00  0.00    +0.000 A 
ATOM     10  C   UNL     1      -3.385   1.600  -7.153  0.00  0.00    +0.006 A 
ATOM     11  C   UNL     1      -2.774   1.212  -5.973  0.00  0.00    -0.021 A 
ATOM     12  C   UNL     1      -2.053  -0.070  -5.617  0.00  0.00    +0.133 C 
ATOM     13  C   UNL     1      -1.987  -0.083  -4.074  0.00  0.00    +0.153 C 
ATOM     14  N   UNL     1      -0.726   1.603  -1.178  0.00  0.00    +0.382 N 
ATOM     15  H   UNL     1      -0.841   2.618  -1.081  0.00  0.00    -0.081 HD
ENDROOT
BRANCH  12  16
ATOM     16  N   UNL     1      -0.701  -0.067  -6.183  0.00  0.00    -0.306 N 
ATOM     17  C   UNL     1      -0.498  -0.499  -7.444  0.00  0.00    +0.218 C 
ATOM     18  O   UNL     1      -1.434  -0.889  -8.110  0.00  0.00    -0.275 OA
ATOM     19  H   UNL     1       0.047   0.245  -5.651  0.00  0.00    +0.149 HD
BRANCH  17  20
ATOM     20  C   UNL     1       0.892  -0.495  -8.027  0.00  0.00    +0.138 C 
BRANCH  20  21
ATOM     21  C   UNL     1       0.846  -1.021  -9.438  0.00  0.00    -0.001 A 
ATOM     22  C   UNL     1       0.667  -0.341 -10.597  0.00  0.00    +0.011 A 
ATOM     23  C   UNL     1       0.661  -1.039 -11.790  0.00  0.00    +0.008 A 
ATOM     24  C   UNL     1       0.835  -2.383 -11.766  0.00  0.00    +0.045 A 
ATOM     25  S   UNL     1       1.021  -2.700 -10.019  0.00  0.00    -0.101 S 
ENDBRANCH  20  21
ENDBRANCH  17  20
ENDBRANCH  12  16
BRANCH  13  26
ATOM     26  O   UNL     1      -3.107  -0.778  -3.523  0.00  0.00    -0.377 OA
ATOM     27  C   UNL     1      -2.839  -2.141  -3.188  0.00  0.00    +0.194 C 
ENDBRANCH  13  26
BRANCH  14  28
ATOM     28  C   UNL     1      -0.013   1.086   0.008  0.00  0.00    -0.043 C 
BRANCH  28  32
ATOM     29  C   UNL     1      -3.460   0.416   3.572  0.00  0.00    +0.047 C 
ATOM     30  C   UNL     1      -2.368   1.250   2.953  0.00  0.00    -0.009 A 
ATOM     31  C   UNL     1      -1.720   0.807   1.817  0.00  0.00    +0.008 A 
ATOM     32  C   UNL     1      -0.718   1.572   1.248  0.00  0.00    -0.063 A 
ATOM     33  C   UNL     1      -0.359   2.779   1.818  0.00  0.00    +0.008 A 
ATOM     34  C   UNL     1      -1.008   3.230   2.951  0.00  0.00    -0.009 A 
ATOM     35  C   UNL     1      -2.013   2.464   3.524  0.00  0.00    +0.123 A 
ATOM     36  C   UNL     1      -0.620   4.549   3.568  0.00  0.00    +0.047 C 
BRANCH  35  37
ATOM     37  O   UNL     1      -2.649   2.902   4.642  0.00  0.00    -0.506 OA
ATOM     38  H   UNL     1      -2.234   2.618   5.468  0.00  0.00    +0.292 HD
ENDBRANCH  35  37
ENDBRANCH  28  32
ENDBRANCH  14  28
TORSDOF 7
