REMARK  Name = ZINC59460990
REMARK  7 active torsions:
REMARK  status: ('A' for Active; 'I' for Inactive)
REMARK    1  A    between atoms: C_1  and  C_2
REMARK    2  A    between atoms: C_4  and  C_24
REMARK    3  A    between atoms: C_5  and  C_9
REMARK    4  A    between atoms: C_6  and  C_8
REMARK    5  A    between atoms: N_10  and  C_11
REMARK    6  A    between atoms: C_14  and  S_17
REMARK    7  A    between atoms: S_17  and  N_20
REMARK                            x       y       z     vdW  Elec       q    Type
REMARK                         _______ _______ _______ _____ _____    ______ ____
ROOT
ATOM      1  C   UNL     1       1.002  -6.047   1.545  0.00  0.00    +0.064 A 
ATOM      2  C   UNL     1       0.318  -6.979   0.761  0.00  0.00    +0.029 A 
ATOM      3  C   UNL     1       0.602  -8.322   0.887  0.00  0.00    +0.031 A 
ATOM      4  C   UNL     1       1.562  -8.749   1.787  0.00  0.00    +0.113 A 
ATOM      5  C   UNL     1       2.244  -7.832   2.568  0.00  0.00    +0.031 A 
ATOM      6  C   UNL     1       1.974  -6.484   2.448  0.00  0.00    +0.029 A 
ENDROOT
BRANCH   4   7
ATOM      7  S   UNL     1       1.918 -10.467   1.941  0.00  0.00    +0.102 S 
ATOM      8  O   UNL     1       2.466 -10.654   3.239  0.00  0.00    -0.146 OA
ATOM      9  O   UNL     1       0.762 -11.163   1.495  0.00  0.00    -0.146 OA
BRANCH   7  10
ATOM     10  N   UNL     1       3.126 -10.816   0.863  0.00  0.00    -0.093 NA
ATOM     11  C   UNL     1       3.585 -12.032   0.769  0.00  0.00    +0.212 C 
ATOM     12  N   UNL     1       3.067 -13.025   1.566  0.00  0.00    -0.369 N 
ATOM     13  N   UNL     1       4.588 -12.321  -0.126  0.00  0.00    -0.369 N 
ATOM     14  H   UNL     1       2.360 -12.822   2.197  0.00  0.00    +0.159 HD
ATOM     15  H   UNL     1       4.953 -11.620  -0.688  0.00  0.00    +0.159 HD
ATOM     16  H   UNL     1       4.930 -13.226  -0.196  0.00  0.00    +0.159 HD
ATOM     17  H   UNL     1       3.409 -13.931   1.496  0.00  0.00    +0.159 HD
ENDBRANCH   7  10
ENDBRANCH   4   7
BRANCH   1  19
ATOM     18  C   UNL     1       0.601  -4.176   0.245  0.00  0.00    +0.119 C 
ATOM     19  N   UNL     1       0.725  -4.712   1.426  0.00  0.00    -0.255 NA
BRANCH  18  24
ATOM     20  C   UNL     1      -0.562   1.432  -0.258  0.00  0.00    +0.044 C 
ATOM     21  C   UNL     1      -0.258  -0.038  -0.126  0.00  0.00    -0.050 A 
ATOM     22  C   UNL     1       0.008  -0.790  -1.257  0.00  0.00    +0.007 A 
ATOM     23  C   UNL     1       0.288  -2.135  -1.144  0.00  0.00    -0.041 A 
ATOM     24  C   UNL     1       0.303  -2.740   0.116  0.00  0.00    -0.001 A 
ATOM     25  C   UNL     1       0.034  -1.973   1.254  0.00  0.00    -0.041 A 
ATOM     26  C   UNL     1      -0.239  -0.628   1.126  0.00  0.00    +0.007 A 
ATOM     27  C   UNL     1       0.048  -2.615   2.618  0.00  0.00    +0.044 C 
ATOM     28  C   UNL     1       0.577  -2.953  -2.377  0.00  0.00    +0.044 C 
ENDBRANCH  18  24
ENDBRANCH   1  19
TORSDOF 4
