REMARK  Name = ZINC52095959
REMARK  5 active torsions:
REMARK  status: ('A' for Active; 'I' for Inactive)
REMARK    1  A    between atoms: C_1  and  N_2
REMARK    2  A    between atoms: C_4  and  S_7
REMARK    3  A    between atoms: S_7  and  N_10
REMARK    4  A    between atoms: N_10  and  C_11
REMARK    5  A    between atoms: C_14  and  N_18
REMARK                            x       y       z     vdW  Elec       q    Type
REMARK                         _______ _______ _______ _____ _____    ______ ____
ROOT
ATOM      1  N   UNL     1      -1.534  -3.954  -1.936  0.00  0.00    -0.094 NA
ENDROOT
BRANCH   1   2
ATOM      2  C   UNL     1      -1.835  -5.017  -2.797  0.00  0.00    +0.102 A 
ATOM      3  C   UNL     1      -1.451  -6.310  -2.465  0.00  0.00    +0.045 A 
ATOM      4  C   UNL     1      -1.748  -7.358  -3.315  0.00  0.00    +0.040 A 
ATOM      5  C   UNL     1      -2.429  -7.119  -4.501  0.00  0.00    +0.027 A 
ATOM      6  C   UNL     1      -2.813  -5.826  -4.833  0.00  0.00    +0.040 A 
ATOM      7  C   UNL     1      -2.522  -4.779  -3.980  0.00  0.00    +0.045 A 
ATOM      8 BR   UNL     1      -3.052  -3.019  -4.428  0.00  0.00    -0.048 Br
ATOM      9 BR   UNL     1      -0.522  -6.635  -0.851  0.00  0.00    -0.048 Br
BRANCH   5  10
ATOM     10  N   UNL     1      -2.729  -8.181  -5.362  0.00  0.00    -0.358 N 
ATOM     11  H   UNL     1      -2.461  -9.084  -5.131  0.00  0.00    +0.142 HD
ATOM     12  H   UNL     1      -3.206  -8.014  -6.191  0.00  0.00    +0.142 HD
ENDBRANCH   5  10
ENDBRANCH   1   2
BRANCH   1  13
ATOM     13  S   UNL     1       0.032  -3.439  -1.771  0.00  0.00    +0.109 S 
ATOM     14  O   UNL     1       0.456  -3.010  -3.058  0.00  0.00    -0.147 OA
ATOM     15  O   UNL     1       0.716  -4.447  -1.040  0.00  0.00    -0.147 OA
BRANCH  13  19
ATOM     16  C   UNL     1      -0.201   1.520  -0.021  0.00  0.00    +0.150 C 
ATOM     17  N   UNL     1      -0.096   0.059  -0.053  0.00  0.00    -0.340 N 
ATOM     18  C   UNL     1      -0.122  -0.733  -1.169  0.00  0.00    +0.134 A 
ATOM     19  C   UNL     1       0.004  -2.006  -0.746  0.00  0.00    +0.195 A 
ATOM     20  N   UNL     1       0.105  -1.991   0.591  0.00  0.00    -0.330 N 
ATOM     21  C   UNL     1       0.051  -0.757   1.013  0.00  0.00    +0.175 A 
ATOM     22  H   UNL     1       0.206  -2.774   1.155  0.00  0.00    +0.168 HD
ENDBRANCH  13  19
ENDBRANCH   1  13
TORSDOF 4
