REMARK  Name = ZINC36543470
REMARK  13 active torsions:
REMARK  status: ('A' for Active; 'I' for Inactive)
REMARK    1  A    between atoms: C_1  and  C_2
REMARK    2  A    between atoms: C_2  and  C_3
REMARK    3  A    between atoms: C_2  and  C_4
REMARK    4  A    between atoms: C_2  and  N_5
REMARK    5  A    between atoms: C_6  and  C_8
REMARK    6  A    between atoms: C_8  and  C_10
REMARK    7  A    between atoms: C_8  and  N_19
REMARK    8  A    between atoms: C_11  and  O_18
REMARK    9  A    between atoms: C_13  and  O_17
REMARK   10  A    between atoms: C_15  and  O_16
REMARK   11  A    between atoms: N_19  and  C_20
REMARK   12  A    between atoms: C_27  and  C_29
REMARK   13  A    between atoms: C_34  and  O_35
REMARK                            x       y       z     vdW  Elec       q    Type
REMARK                         _______ _______ _______ _____ _____    ______ ____
ROOT
ATOM      1  C   UNL     1       2.764  -0.592  -2.438  0.00  0.00    +0.204 C 
ENDROOT
BRANCH   1   2
ATOM      2  C   UNL     1       1.483  -0.221  -3.140  0.00  0.00    +0.065 A 
ATOM      3  C   UNL     1       1.348  -0.450  -4.501  0.00  0.00    +0.129 A 
ATOM      4  C   UNL     1       0.170  -0.108  -5.148  0.00  0.00    +0.091 A 
ATOM      5  C   UNL     1      -0.873   0.462  -4.434  0.00  0.00    +0.124 A 
ATOM      6  C   UNL     1      -0.739   0.689  -3.072  0.00  0.00    +0.091 A 
ATOM      7  C   UNL     1       0.438   0.344  -2.425  0.00  0.00    +0.129 A 
BRANCH   7   8
ATOM      8  O   UNL     1       0.569   0.562  -1.090  0.00  0.00    -0.506 OA
ATOM      9  H   UNL     1       0.930   1.431  -0.867  0.00  0.00    +0.292 HD
ENDBRANCH   7   8
BRANCH   5  10
ATOM     10  O   UNL     1      -2.028   0.797  -5.067  0.00  0.00    -0.507 OA
ATOM     11  H   UNL     1      -2.687   0.090  -5.085  0.00  0.00    +0.292 HD
ENDBRANCH   5  10
BRANCH   3  12
ATOM     12  O   UNL     1       2.370  -1.008  -5.202  0.00  0.00    -0.506 OA
ATOM     13  H   UNL     1       2.384  -1.974  -5.175  0.00  0.00    +0.292 HD
ENDBRANCH   3  12
ENDBRANCH   1   2
BRANCH   1  15
ATOM     14  N   UNL     1       1.684  -2.259  -0.963  0.00  0.00    -0.309 N 
ATOM     15  C   UNL     1       2.445  -1.152  -1.075  0.00  0.00    +0.239 C 
ATOM     16  O   UNL     1       2.873  -0.607  -0.080  0.00  0.00    -0.273 OA
ATOM     17  H   UNL     1       1.341  -2.695  -1.758  0.00  0.00    +0.149 HD
BRANCH  14  19
ATOM     18  C   UNL     1       0.622  -1.752   1.182  0.00  0.00    +0.031 C 
ATOM     19  C   UNL     1       1.374  -2.803   0.362  0.00  0.00    +0.026 C 
ATOM     20  C   UNL     1       2.674  -3.174   1.078  0.00  0.00    +0.031 C 
ATOM     21  C   UNL     1       0.501  -4.050   0.209  0.00  0.00    +0.031 C 
ENDBRANCH  14  19
ENDBRANCH   1  15
BRANCH   1  22
ATOM     22  N   UNL     1       3.604   0.599  -2.292  0.00  0.00    -0.250 N 
ATOM     23  C   UNL     1       4.888   0.572  -2.699  0.00  0.00    +0.255 C 
ATOM     24  O   UNL     1       5.325  -0.410  -3.267  0.00  0.00    -0.269 OA
BRANCH  22  25
ATOM     25  C   UNL     1       3.073   1.765  -1.729  0.00  0.00    +0.056 A 
ATOM     26  C   UNL     1       3.205   2.003  -0.367  0.00  0.00    +0.025 A 
ATOM     27  C   UNL     1       2.680   3.155   0.185  0.00  0.00    +0.002 A 
ATOM     28  C   UNL     1       2.023   4.071  -0.616  0.00  0.00    +0.002 A 
ATOM     29  C   UNL     1       1.889   3.838  -1.972  0.00  0.00    +0.022 A 
ATOM     30  C   UNL     1       2.417   2.690  -2.533  0.00  0.00    +0.062 A 
ATOM     31 CL   UNL     1       2.255   2.401  -4.237  0.00  0.00    -0.082 Cl
ENDBRANCH  22  25
BRANCH  23  32
ATOM     32  C   UNL     1       5.763   1.735  -2.457  0.00  0.00    +0.079 A 
ATOM     33  C   UNL     1       5.907   2.249  -1.166  0.00  0.00    +0.017 A 
ATOM     34  C   UNL     1       6.726   3.335  -0.947  0.00  0.00    +0.001 A 
ATOM     35  C   UNL     1       7.409   3.920  -2.001  0.00  0.00    +0.004 A 
ATOM     36  C   UNL     1       7.276   3.422  -3.281  0.00  0.00    +0.046 A 
ATOM     37  C   UNL     1       6.460   2.326  -3.520  0.00  0.00    +0.129 A 
BRANCH  37  38
ATOM     38  O   UNL     1       6.333   1.832  -4.777  0.00  0.00    -0.506 OA
ATOM     39  H   UNL     1       5.615   2.232  -5.286  0.00  0.00    +0.292 HD
ENDBRANCH  37  38
ENDBRANCH  23  32
ENDBRANCH   1  22
TORSDOF 10
