REMARK  Name = ZINC12359157
REMARK  3 active torsions:
REMARK  status: ('A' for Active; 'I' for Inactive)
REMARK    1  A    between atoms: C_1  and  O_2
REMARK    2  A    between atoms: O_2  and  C_3
REMARK    3  A    between atoms: C_6  and  N_10
REMARK                            x       y       z     vdW  Elec       q    Type
REMARK                         _______ _______ _______ _____ _____    ______ ____
ROOT
ATOM      1  C   UNL     1      -1.234   2.563   0.022  0.00  0.00    +0.169 A 
ATOM      2  C   UNL     1      -1.253   3.952   0.035  0.00  0.00    +0.168 A 
ATOM      3  C   UNL     1      -0.066   4.660   0.028  0.00  0.00    +0.065 A 
ATOM      4  C   UNL     1       1.146   3.982   0.013  0.00  0.00    +0.029 A 
ATOM      5  C   UNL     1       1.164   2.594   0.005  0.00  0.00    +0.041 A 
ATOM      6  C   UNL     1      -0.024   1.887   0.012  0.00  0.00    +0.064 A 
ATOM      7 BR   UNL     1       0.002  -0.004   0.002  0.00  0.00    -0.046 Br
ATOM      8  F   UNL     1      -2.433   4.611   0.050  0.00  0.00    -0.202 F 
ENDROOT
BRANCH   4   9
ATOM      9  N   UNL     1       2.349   4.698   0.005  0.00  0.00    -0.358 N 
ATOM     10  H   UNL     1       3.195   4.224  -0.005  0.00  0.00    +0.142 HD
ATOM     11  H   UNL     1       2.336   5.668   0.011  0.00  0.00    +0.142 HD
ENDBRANCH   4   9
BRANCH   1  13
ATOM     12  C   UNL     1      -2.954   1.527   1.297  0.00  0.00    +0.277 C 
ATOM     13  O   UNL     1      -2.403   1.867   0.023  0.00  0.00    -0.491 OA
ENDBRANCH   1  13
TORSDOF 2
