REMARK  Name = ZINC61721205
REMARK  8 active torsions:
REMARK  status: ('A' for Active; 'I' for Inactive)
REMARK    1  A    between atoms: C_1  and  C_2
REMARK    2  A    between atoms: C_3  and  C_24
REMARK    3  A    between atoms: C_8  and  C_10
REMARK    4  A    between atoms: C_12  and  C_21
REMARK    5  A    between atoms: C_16  and  C_20
REMARK    6  A    between atoms: N_18  and  C_19
REMARK    7  A    between atoms: C_21  and  C_22
REMARK    8  A    between atoms: C_21  and  C_23
REMARK                            x       y       z     vdW  Elec       q    Type
REMARK                         _______ _______ _______ _____ _____    ______ ____
ROOT
ATOM      1  C   UNL     1      -0.407  -3.293   4.660  0.00  0.00    +0.051 A 
ATOM      2  C   UNL     1      -0.650  -4.655   4.492  0.00  0.00    +0.037 A 
ATOM      3  C   UNL     1      -0.530  -5.506   5.579  0.00  0.00    +0.047 A 
ATOM      4  N   UNL     1      -0.192  -5.063   6.770  0.00  0.00    -0.232 NA
ATOM      5  C   UNL     1       0.052  -3.780   6.997  0.00  0.00    +0.159 A 
ATOM      6  C   UNL     1      -0.040  -2.843   5.948  0.00  0.00    +0.054 A 
ATOM      7  C   UNL     1       0.279  -1.580   6.490  0.00  0.00    +0.070 A 
ATOM      8  N   UNL     1       0.548  -1.727   7.756  0.00  0.00    -0.174 NA
ATOM      9  N   UNL     1       0.412  -3.073   8.115  0.00  0.00    -0.249 N 
ATOM     10  C   UNL     1       0.632  -3.632   9.452  0.00  0.00    +0.174 C 
ATOM     11  C   UNL     1       0.304  -0.278   5.731  0.00  0.00    +0.068 C 
ENDROOT
BRANCH   1  19
ATOM     12  C   UNL     1      -1.270   1.519   0.125  0.00  0.00    +0.066 C 
ATOM     13  C   UNL     1      -0.733   0.111   0.130  0.00  0.00    +0.050 A 
ATOM     14  C   UNL     1      -0.266  -0.473  -1.001  0.00  0.00    +0.011 A 
ATOM     15  S   UNL     1       0.212  -2.076  -0.374  0.00  0.00    -0.057 S 
ATOM     16  C   UNL     1      -0.225  -1.837   1.233  0.00  0.00    +0.165 A 
ATOM     17  N   UNL     1      -0.691  -0.606   1.238  0.00  0.00    -0.230 NA
ATOM     18  N   UNL     1      -0.116  -2.722   2.298  0.00  0.00    -0.261 N 
ATOM     19  C   UNL     1      -0.523  -2.351   3.527  0.00  0.00    +0.250 C 
ATOM     20  O   UNL     1      -0.985  -1.240   3.705  0.00  0.00    -0.270 OA
ATOM     21  C   UNL     1      -0.177   0.077  -2.401  0.00  0.00    +0.053 C 
ATOM     22  H   UNL     1       0.253  -3.608   2.156  0.00  0.00    +0.157 HD
ENDBRANCH   1  19
BRANCH   3  23
ATOM     23  C   UNL     1      -0.794  -6.978   5.391  0.00  0.00    +0.032 C 
ATOM     24  C   UNL     1      -2.294  -7.248   5.522  0.00  0.00    +0.014 C 
ATOM     25  C   UNL     1      -0.317  -7.409   4.003  0.00  0.00    +0.014 C 
ENDBRANCH   3  23
TORSDOF 2
