REMARK  Name = ZINC09373183
REMARK  12 active torsions:
REMARK  status: ('A' for Active; 'I' for Inactive)
REMARK    1  A    between atoms: C_1  and  C_2
REMARK    2  A    between atoms: C_5  and  N_9
REMARK    3  A    between atoms: C_6  and  C_8
REMARK    4  A    between atoms: N_9  and  S_10
REMARK    5  A    between atoms: S_10  and  C_13
REMARK    6  A    between atoms: C_16  and  C_32
REMARK    7  A    between atoms: C_17  and  N_19
REMARK    8  A    between atoms: N_19  and  C_20
REMARK    9  A    between atoms: C_20  and  N_22
REMARK   10  A    between atoms: N_22  and  C_23
REMARK   11  A    between atoms: C_26  and  C_29
REMARK   12  A    between atoms: C_29  and  C_31
REMARK                            x       y       z     vdW  Elec       q    Type
REMARK                         _______ _______ _______ _____ _____    ______ ____
ROOT
ATOM      1  C   UNL     1       1.043   2.770   1.531  0.00  0.00    +0.110 A 
ATOM      2  C   UNL     1       0.302   3.926   1.700  0.00  0.00    +0.029 A 
ATOM      3  C   UNL     1       0.359   4.618   2.895  0.00  0.00    +0.007 A 
ATOM      4  C   UNL     1       1.165   4.163   3.921  0.00  0.00    -0.029 A 
ATOM      5  C   UNL     1       1.914   3.007   3.752  0.00  0.00    +0.037 A 
ATOM      6  C   UNL     1       1.851   2.310   2.552  0.00  0.00    +0.052 A 
ATOM      7  C   UNL     1       1.230   4.922   5.222  0.00  0.00    +0.045 C 
ENDROOT
BRANCH   1   8
ATOM      8  S   UNL     1       0.963   1.888   0.007  0.00  0.00    +0.072 S 
ATOM      9  O   UNL     1       2.171   1.147  -0.097  0.00  0.00    -0.150 OA
ATOM     10  O   UNL     1       0.555   2.823  -0.982  0.00  0.00    -0.150 OA
BRANCH   8  11
ATOM     11  N   UNL     1      -0.261   0.782   0.146  0.00  0.00    -0.216 N 
ATOM     12  H   UNL     1      -0.071  -0.165   0.058  0.00  0.00    +0.174 HD
BRANCH  11  17
ATOM     13  C   UNL     1      -5.568   2.530   1.116  0.00  0.00    +0.044 C 
ATOM     14  C   UNL     1      -4.157   2.066   0.859  0.00  0.00    -0.050 A 
ATOM     15  C   UNL     1      -3.325   2.808   0.041  0.00  0.00    +0.005 A 
ATOM     16  C   UNL     1      -2.033   2.385  -0.198  0.00  0.00    +0.025 A 
ATOM     17  C   UNL     1      -1.568   1.213   0.386  0.00  0.00    +0.051 A 
ATOM     18  C   UNL     1      -2.408   0.467   1.203  0.00  0.00    -0.028 A 
ATOM     19  C   UNL     1      -3.699   0.899   1.441  0.00  0.00    +0.008 A 
ATOM     20  C   UNL     1      -1.911  -0.808   1.833  0.00  0.00    +0.046 C 
ENDBRANCH  11  17
ENDBRANCH   8  11
ENDBRANCH   1   8
BRANCH   5  21
ATOM     21  N   UNL     1       2.731   2.544   4.789  0.00  0.00    -0.296 N 
ATOM     22  H   UNL     1       3.231   3.174   5.331  0.00  0.00    +0.154 HD
BRANCH  21  23
ATOM     23  C   UNL     1       2.825   1.222   5.034  0.00  0.00    +0.139 C 
ATOM     24  S   UNL     1       1.856   0.117   4.156  0.00  0.00    -0.018 S 
BRANCH  23  25
ATOM     25  N   UNL     1       3.681   0.769   5.972  0.00  0.00    -0.297 N 
ATOM     26  H   UNL     1       4.184   1.398   6.513  0.00  0.00    +0.154 HD
BRANCH  25  27
ATOM     27  C   UNL     1       3.843  -0.600   6.163  0.00  0.00    +0.033 A 
ATOM     28  C   UNL     1       2.726  -1.427   6.241  0.00  0.00    +0.024 A 
ATOM     29  C   UNL     1       2.880  -2.772   6.424  0.00  0.00    +0.013 A 
ATOM     30  C   UNL     1       4.165  -3.317   6.545  0.00  0.00    +0.017 A 
ATOM     31  C   UNL     1       5.286  -2.480   6.471  0.00  0.00    +0.013 A 
ATOM     32  C   UNL     1       5.122  -1.137   6.283  0.00  0.00    +0.024 A 
BRANCH  30  33
ATOM     33  C   UNL     1       4.336  -4.761   6.747  0.00  0.00    +0.160 C 
ATOM     34  O   UNL     1       5.449  -5.231   6.851  0.00  0.00    -0.292 OA
ATOM     35  C   UNL     1       3.128  -5.659   6.825  0.00  0.00    +0.091 C 
ENDBRANCH  30  33
ENDBRANCH  25  27
ENDBRANCH  23  25
ENDBRANCH  21  23
ENDBRANCH   5  21
TORSDOF 8
