REMARK  Name = ZINC39986310
REMARK  6 active torsions:
REMARK  status: ('A' for Active; 'I' for Inactive)
REMARK    1  A    between atoms: C_1  and  C_2
REMARK    2  A    between atoms: C_5  and  S_11
REMARK    3  A    between atoms: C_7  and  N_8
REMARK    4  A    between atoms: S_11  and  N_14
REMARK    5  A    between atoms: N_14  and  C_15
REMARK    6  A    between atoms: C_18  and  O_22
REMARK                            x       y       z     vdW  Elec       q    Type
REMARK                         _______ _______ _______ _____ _____    ______ ____
ROOT
ATOM      1  S   UNL     1       0.734  -4.453   0.185  0.00  0.00    +0.072 S 
ATOM      2  O   UNL     1       0.208  -4.875   1.436  0.00  0.00    -0.150 OA
ATOM      3  O   UNL     1       0.384  -5.083  -1.039  0.00  0.00    -0.150 OA
ENDROOT
BRANCH   1   8
ATOM      4  C   UNL     1      -0.693   1.380  -0.406  0.00  0.00    +0.046 C 
ATOM      5  C   UNL     1      -0.337  -0.077  -0.259  0.00  0.00    -0.020 A 
ATOM      6  C   UNL     1      -0.035  -0.832  -1.377  0.00  0.00    +0.007 A 
ATOM      7  C   UNL     1       0.292  -2.168  -1.241  0.00  0.00    +0.029 A 
ATOM      8  C   UNL     1       0.318  -2.749   0.013  0.00  0.00    +0.111 A 
ATOM      9  C   UNL     1       0.018  -1.995   1.131  0.00  0.00    +0.061 A 
ATOM     10  C   UNL     1      -0.306  -0.657   0.996  0.00  0.00    +0.131 A 
BRANCH  10  11
ATOM     11  N   UNL     1      -0.623   0.152   2.193  0.00  0.00    +0.057 N 
ATOM     12  O   UNL     1      -0.265   1.306   2.256  0.00  0.00    -0.126 OA
ATOM     13  O   UNL     1      -1.239  -0.339   3.110  0.00  0.00    -0.126 OA
ENDBRANCH  10  11
ENDBRANCH   1   8
BRANCH   1  14
ATOM     14  N   UNL     1       2.383  -4.544   0.310  0.00  0.00    -0.216 N 
ATOM     15  H   UNL     1       2.789  -4.898   1.117  0.00  0.00    +0.174 HD
BRANCH  14  16
ATOM     16  C   UNL     1       3.190  -4.111  -0.748  0.00  0.00    +0.049 A 
ATOM     17  C   UNL     1       2.881  -4.476  -2.051  0.00  0.00    +0.028 A 
ATOM     18  C   UNL     1       3.678  -4.049  -3.095  0.00  0.00    +0.048 A 
ATOM     19  C   UNL     1       4.786  -3.254  -2.842  0.00  0.00    +0.131 A 
ATOM     20  C   UNL     1       5.096  -2.889  -1.540  0.00  0.00    +0.061 A 
ATOM     21  C   UNL     1       4.296  -3.311  -0.495  0.00  0.00    +0.043 A 
ATOM     22 BR   UNL     1       6.607  -1.806  -1.196  0.00  0.00    -0.046 Br
BRANCH  19  23
ATOM     23  O   UNL     1       5.570  -2.834  -3.871  0.00  0.00    -0.506 OA
ATOM     24  H   UNL     1       5.297  -1.988  -4.253  0.00  0.00    +0.292 HD
ENDBRANCH  19  23
ENDBRANCH  14  16
ENDBRANCH   1  14
TORSDOF 5
