REMARK  Name = ZINC63493351
REMARK  8 active torsions:
REMARK  status: ('A' for Active; 'I' for Inactive)
REMARK    1  A    between atoms: C_1  and  C_2
REMARK    2  A    between atoms: C_7  and  O_28
REMARK    3  A    between atoms: C_13  and  C_15
REMARK    4  A    between atoms: C_15  and  C_16
REMARK    5  A    between atoms: N_18  and  C_19
REMARK    6  A    between atoms: O_28  and  C_29
REMARK    7  A    between atoms: C_29  and  C_30
REMARK    8  A    between atoms: C_30  and  C_32
REMARK                            x       y       z     vdW  Elec       q    Type
REMARK                         _______ _______ _______ _____ _____    ______ ____
ROOT
ATOM      1  C   UNL     1      -0.019   1.526   0.010  0.00  0.00    +0.013 C 
ATOM      2  C   UNL     1       0.002  -0.004   0.002  0.00  0.00    +0.034 C 
ATOM      3  C   UNL     1       0.705  -0.489  -1.241  0.00  0.00    +0.000 A 
ATOM      4  C   UNL     1       0.474   0.182  -2.433  0.00  0.00    +0.031 A 
ATOM      5  C   UNL     1       1.090  -0.231  -3.598  0.00  0.00    +0.083 A 
ATOM      6  C   UNL     1       1.946  -1.324  -3.580  0.00  0.00    +0.143 A 
ATOM      7  C   UNL     1       2.180  -1.994  -2.391  0.00  0.00    +0.093 A 
ATOM      8  C   UNL     1       1.562  -1.574  -1.218  0.00  0.00    +0.139 A 
ATOM      9  O   UNL     1       1.836  -2.249  -0.068  0.00  0.00    -0.425 OA
ATOM     10  C   UNL     1       1.083  -1.967   1.014  0.00  0.00    +0.316 C 
ATOM     11  O   UNL     1       0.702  -2.836   1.762  0.00  0.00    -0.250 OA
ATOM     12  C   UNL     1       0.740  -0.510   1.245  0.00  0.00    +0.114 C 
ATOM     13 CL   UNL     1       0.793   0.617  -5.084  0.00  0.00    -0.080 Cl
ENDROOT
BRANCH  12  14
ATOM     14  C   UNL     1       2.021   0.299   1.454  0.00  0.00    +0.111 C 
BRANCH  14  15
ATOM     15  C   UNL     1       2.676  -0.121   2.744  0.00  0.00    +0.217 C 
ATOM     16  O   UNL     1       2.169  -0.983   3.430  0.00  0.00    -0.276 OA
ATOM     17  N   UNL     1       3.827   0.461   3.137  0.00  0.00    -0.278 N 
ATOM     18  H   UNL     1       4.233   1.151   2.589  0.00  0.00    +0.152 HD
BRANCH  17  19
ATOM     19  C   UNL     1       4.464   0.052   4.391  0.00  0.00    +0.269 C 
ATOM     20  N   UNL     1       3.771   0.665   5.531  0.00  0.00    -0.348 N 
ATOM     21  C   UNL     1       4.634   1.411   6.158  0.00  0.00    +0.061 A 
ATOM     22  C   UNL     1       4.538   2.261   7.353  0.00  0.00    +0.027 A 
ATOM     23  C   UNL     1       5.625   2.934   7.780  0.00  0.00    +0.002 A 
ATOM     24  C   UNL     1       6.867   2.861   7.124  0.00  0.00    +0.002 A 
ATOM     25  C   UNL     1       7.064   2.112   6.021  0.00  0.00    +0.027 A 
ATOM     26  C   UNL     1       5.949   1.333   5.465  0.00  0.00    +0.061 A 
ATOM     27  N   UNL     1       5.848   0.542   4.436  0.00  0.00    -0.348 N 
ATOM     28  H   UNL     1       2.840   0.537   5.773  0.00  0.00    +0.163 HD
ATOM     29  H   UNL     1       6.557   0.316   3.814  0.00  0.00    +0.163 HD
ENDBRANCH  17  19
ENDBRANCH  14  15
ENDBRANCH  12  14
BRANCH   6  30
ATOM     30  O   UNL     1       2.550  -1.736  -4.726  0.00  0.00    -0.486 OA
BRANCH  30  31
ATOM     31  C   UNL     1       3.418  -2.867  -4.631  0.00  0.00    +0.259 C 
BRANCH  31  32
ATOM     32  C   UNL     1       3.993  -3.175  -5.990  0.00  0.00    -0.043 C 
ATOM     33  C   UNL     1       3.665  -2.437  -7.021  0.00  0.00    +0.011 C 
ATOM     34  C   UNL     1       4.944  -4.331  -6.161  0.00  0.00    +0.042 C 
ENDBRANCH  31  32
ENDBRANCH  30  31
ENDBRANCH   6  30
TORSDOF 6
