REMARK  Name = ZINC04655545
REMARK  7 active torsions:
REMARK  status: ('A' for Active; 'I' for Inactive)
REMARK    1  A    between atoms: C_1  and  O_2
REMARK    2  A    between atoms: O_2  and  C_3
REMARK    3  A    between atoms: C_3  and  C_5
REMARK    4  A    between atoms: C_6  and  N_27
REMARK    5  A    between atoms: C_12  and  C_25
REMARK    6  A    between atoms: C_15  and  C_17
REMARK    7  A    between atoms: C_25  and  O_26
REMARK                            x       y       z     vdW  Elec       q    Type
REMARK                         _______ _______ _______ _____ _____    ______ ____
ROOT
ATOM      1  C   UNL     1       0.682  -2.014   1.088  0.00  0.00    +0.108 C 
ATOM      2  C   UNL     1       1.386  -2.618   2.082  0.00  0.00    +0.196 C 
ATOM      3  O   UNL     1       1.458  -3.956   2.169  0.00  0.00    -0.435 OA
ATOM      4  C   UNL     1       1.185  -4.720   1.083  0.00  0.00    +0.215 A 
ATOM      5  C   UNL     1       1.658  -6.064   1.043  0.00  0.00    +0.228 A 
ATOM      6  O   UNL     1       2.301  -6.532   1.970  0.00  0.00    -0.284 OA
ATOM      7  C   UNL     1       1.358  -6.840  -0.104  0.00  0.00    +0.098 A 
ATOM      8  C   UNL     1       0.646  -6.275  -1.099  0.00  0.00    +0.134 A 
ATOM      9  O   UNL     1       0.220  -5.014  -1.030  0.00  0.00    -0.457 OA
ATOM     10  C   UNL     1       0.478  -4.243   0.039  0.00  0.00    +0.163 A 
ATOM     11  C   UNL     1      -0.046  -2.827   0.055  0.00  0.00    +0.132 C 
ENDROOT
BRANCH  11  12
ATOM     12  C   UNL     1      -1.518  -2.838   0.376  0.00  0.00    -0.014 A 
ATOM     13  C   UNL     1      -1.958  -3.349   1.583  0.00  0.00    +0.007 A 
ATOM     14  C   UNL     1      -3.308  -3.359   1.879  0.00  0.00    +0.020 A 
ATOM     15  C   UNL     1      -4.220  -2.859   0.966  0.00  0.00    +0.042 A 
ATOM     16  C   UNL     1      -3.781  -2.347  -0.241  0.00  0.00    +0.040 A 
ATOM     17  C   UNL     1      -2.429  -2.333  -0.534  0.00  0.00    +0.047 A 
ATOM     18 CL   UNL     1      -1.875  -1.685  -2.047  0.00  0.00    -0.083 Cl
ATOM     19 CL   UNL     1      -5.916  -2.873   1.337  0.00  0.00    -0.083 Cl
ENDBRANCH  11  12
BRANCH   2  20
ATOM     20  N   UNL     1       2.034  -1.848   3.011  0.00  0.00    -0.329 N 
ATOM     21  H   UNL     1       1.926  -0.884   3.002  0.00  0.00    +0.145 HD
ATOM     22  H   UNL     1       2.600  -2.266   3.678  0.00  0.00    +0.145 HD
ENDBRANCH   2  20
BRANCH   1  23
ATOM     23  C   UNL     1       0.630  -0.615   1.030  0.00  0.00    +0.341 C 
ATOM     24  O   UNL     1       1.335  -0.011   0.240  0.00  0.00    -0.245 OA
BRANCH  23  26
ATOM     25  C   UNL     1      -0.203   1.490   1.735  0.00  0.00    +0.280 C 
ATOM     26  O   UNL     1      -0.202   0.065   1.849  0.00  0.00    -0.465 OA
ENDBRANCH  23  26
ENDBRANCH   1  23
BRANCH   8  27
ATOM     27  C   UNL     1       0.322  -7.092  -2.323  0.00  0.00    +0.230 C 
BRANCH  27  28
ATOM     28  O   UNL     1       0.873  -8.403  -2.181  0.00  0.00    -0.387 OA
ATOM     29  H   UNL     1       0.703  -8.985  -2.934  0.00  0.00    +0.210 HD
ENDBRANCH  27  28
ENDBRANCH   8  27
TORSDOF 6
