REMARK  Name = ZINC56546390
REMARK  5 active torsions:
REMARK  status: ('A' for Active; 'I' for Inactive)
REMARK    1  A    between atoms: C_1  and  C_2
REMARK    2  A    between atoms: C_7  and  N_12
REMARK    3  A    between atoms: C_9  and  C_11
REMARK    4  A    between atoms: N_15  and  N_16
REMARK    5  A    between atoms: N_19  and  C_20
REMARK                            x       y       z     vdW  Elec       q    Type
REMARK                         _______ _______ _______ _____ _____    ______ ____
ROOT
ATOM      1  N   UNL     1       1.457  -2.519   2.432  0.00  0.00    -0.295 N 
ATOM      2  C   UNL     1       1.191  -3.746   2.920  0.00  0.00    +0.316 C 
ATOM      3  O   UNL     1       0.358  -4.449   2.380  0.00  0.00    -0.251 OA
ATOM      4  N   UNL     1       1.848  -4.195   4.008  0.00  0.00    -0.217 N 
ATOM      5  H   UNL     1       2.121  -1.958   2.863  0.00  0.00    +0.151 HD
ATOM      6  H   UNL     1       1.657  -5.079   4.360  0.00  0.00    +0.174 HD
ENDROOT
BRANCH   1  12
ATOM      7  C   UNL     1      -0.034   1.539   0.033  0.00  0.00    +0.008 C 
ATOM      8  C   UNL     1      -0.019   0.009   0.024  0.00  0.00    -0.009 C 
ATOM      9  C   UNL     1       0.688  -0.486  -1.240  0.00  0.00    +0.003 C 
ATOM     10  C   UNL     1       0.703  -2.016  -1.249  0.00  0.00    +0.002 C 
ATOM     11  C   UNL     1       1.449  -2.526  -0.014  0.00  0.00    +0.022 C 
ATOM     12  C   UNL     1       0.743  -2.030   1.249  0.00  0.00    +0.078 C 
ATOM     13  C   UNL     1       0.727  -0.501   1.258  0.00  0.00    +0.009 C 
ATOM     14  C   UNL     1       0.020  -0.005   2.522  0.00  0.00    +0.009 C 
ENDBRANCH   1  12
BRANCH   4  15
ATOM     15  N   UNL     1       2.807  -3.386   4.631  0.00  0.00    -0.217 N 
ATOM     16  C   UNL     1       3.464  -3.835   5.718  0.00  0.00    +0.320 C 
ATOM     17  O   UNL     1       4.297  -3.133   6.259  0.00  0.00    -0.251 OA
ATOM     18  N   UNL     1       3.199  -5.063   6.207  0.00  0.00    -0.268 N 
ATOM     19  H   UNL     1       2.998  -2.503   4.279  0.00  0.00    +0.174 HD
ATOM     20  H   UNL     1       2.488  -5.596   5.818  0.00  0.00    +0.156 HD
BRANCH  18  21
ATOM     21  C   UNL     1       3.948  -5.568   7.276  0.00  0.00    +0.035 A 
ATOM     22  C   UNL     1       4.248  -6.923   7.337  0.00  0.00    +0.024 A 
ATOM     23  C   UNL     1       4.988  -7.418   8.392  0.00  0.00    +0.017 A 
ATOM     24  C   UNL     1       5.430  -6.566   9.389  0.00  0.00    +0.018 A 
ATOM     25  C   UNL     1       5.132  -5.216   9.331  0.00  0.00    +0.017 A 
ATOM     26  C   UNL     1       4.398  -4.715   8.275  0.00  0.00    +0.024 A 
ATOM     27 BR   UNL     1       6.443  -7.249  10.832  0.00  0.00    -0.050 Br
ENDBRANCH  18  21
ENDBRANCH   4  15
TORSDOF 3
