REMARK  Name = ZINC04239582
REMARK  3 active torsions:
REMARK  status: ('A' for Active; 'I' for Inactive)
REMARK    1  A    between atoms: C_1  and  N_2
REMARK    2  A    between atoms: C_5  and  C_10
REMARK    3  A    between atoms: N_19  and  C_21
REMARK                            x       y       z     vdW  Elec       q    Type
REMARK                         _______ _______ _______ _____ _____    ______ ____
ROOT
ATOM      1  C   UNL     1      -6.342   2.217  -0.861  0.00  0.00    +0.139 C 
ATOM      2  N   UNL     1      -5.029   2.791  -0.556  0.00  0.00    -0.260 N 
ATOM      3  C   UNL     1      -4.311   3.340  -1.581  0.00  0.00    +0.042 C 
ATOM      4  C   UNL     1      -3.096   3.884  -1.369  0.00  0.00    +0.058 C 
ATOM      5  C   UNL     1      -2.553   3.868   0.046  0.00  0.00    +0.142 C 
ATOM      6  N   UNL     1      -3.404   3.254   1.079  0.00  0.00    -0.288 N 
ATOM      7  C   UNL     1      -4.598   2.749   0.711  0.00  0.00    +0.307 C 
ATOM      8  O   UNL     1      -5.308   2.240   1.557  0.00  0.00    -0.252 OA
ATOM      9  C   UNL     1      -2.563   4.380  -2.577  0.00  0.00    +0.247 C 
ATOM     10  O   UNL     1      -1.479   4.924  -2.679  0.00  0.00    -0.270 OA
ATOM     11  N   UNL     1      -3.410   4.173  -3.602  0.00  0.00    -0.289 N 
ATOM     12  C   UNL     1      -4.595   3.494  -3.058  0.00  0.00    +0.159 C 
ATOM     13  H   UNL     1      -3.112   3.213   2.003  0.00  0.00    +0.151 HD
ENDROOT
BRANCH   5  14
ATOM     14  C   UNL     1      -1.238   3.133   0.030  0.00  0.00    -0.022 A 
ATOM     15  C   UNL     1      -1.218   1.751   0.017  0.00  0.00    +0.008 A 
ATOM     16  C   UNL     1      -0.013   1.076   0.008  0.00  0.00    +0.038 A 
ATOM     17  C   UNL     1       1.177   1.785   0.000  0.00  0.00    +0.123 A 
ATOM     18  C   UNL     1       1.157   3.169   0.008  0.00  0.00    +0.038 A 
ATOM     19  C   UNL     1      -0.051   3.842   0.023  0.00  0.00    +0.008 A 
ATOM     20  F   UNL     1       2.356   1.126  -0.015  0.00  0.00    -0.205 F 
ENDBRANCH   5  14
BRANCH  11  21
ATOM     21  C   UNL     1      -3.192   4.554  -4.999  0.00  0.00    +0.077 C 
ATOM     22  C   UNL     1      -1.803   5.071  -5.382  0.00  0.00    +0.024 C 
ATOM     23  C   UNL     1      -2.984   6.040  -5.302  0.00  0.00    +0.024 C 
ENDBRANCH  11  21
TORSDOF 2
