REMARK  Name = ZINC00680535
REMARK  5 active torsions:
REMARK  status: ('A' for Active; 'I' for Inactive)
REMARK    1  A    between atoms: C_1  and  N_2
REMARK    2  A    between atoms: C_10  and  C_11
REMARK    3  A    between atoms: C_17  and  C_19
REMARK    4  A    between atoms: C_19  and  S_20
REMARK    5  A    between atoms: S_20  and  C_21
REMARK                            x       y       z     vdW  Elec       q    Type
REMARK                         _______ _______ _______ _____ _____    ______ ____
ROOT
ATOM      1  C   UNL     1      -2.354   6.604   0.061  0.00  0.00    +0.191 A 
ATOM      2  C   UNL     1      -1.789   7.973   0.069  0.00  0.00    +0.200 A 
ATOM      3  N   UNL     1      -2.864   8.724   0.078  0.00  0.00    -0.033 NA
ATOM      4  O   UNL     1      -3.848   8.022   0.085  0.00  0.00    -0.240 OA
ATOM      5  N   UNL     1      -3.650   6.830   0.076  0.00  0.00    -0.044 NA
ATOM      6  N   UNL     1      -0.452   8.364   0.064  0.00  0.00    -0.265 N 
ATOM      7  C   UNL     1      -0.134   9.673   0.073  0.00  0.00    +0.229 C 
ATOM      8  O   UNL     1      -1.010  10.511   0.085  0.00  0.00    -0.275 OA
ATOM      9  H   UNL     1       0.249   7.694   0.055  0.00  0.00    +0.156 HD
ENDROOT
BRANCH   1  19
ATOM     10  C   UNL     1      -3.682   3.814   0.059  0.00  0.00    +0.151 C 
ATOM     11  N   UNL     1      -2.241   4.078   0.046  0.00  0.00    -0.325 N 
ATOM     12  C   UNL     1      -1.236   3.132   0.031  0.00  0.00    +0.069 A 
ATOM     13  C   UNL     1      -1.218   1.744   0.017  0.00  0.00    +0.028 A 
ATOM     14  C   UNL     1      -0.013   1.076   0.008  0.00  0.00    +0.002 A 
ATOM     15  C   UNL     1       1.183   1.781   0.000  0.00  0.00    +0.002 A 
ATOM     16  C   UNL     1       1.187   3.147   0.007  0.00  0.00    +0.030 A 
ATOM     17  C   UNL     1      -0.025   3.847   0.022  0.00  0.00    +0.090 A 
ATOM     18  N   UNL     1      -0.338   5.165   0.033  0.00  0.00    -0.226 NA
ATOM     19  C   UNL     1      -1.640   5.307   0.046  0.00  0.00    +0.167 A 
ENDBRANCH   1  19
BRANCH   7  20
ATOM     20  C   UNL     1       1.313  10.097   0.068  0.00  0.00    +0.175 C 
BRANCH  20  21
ATOM     21  S   UNL     1       1.413  11.904   0.082  0.00  0.00    -0.058 S 
BRANCH  21  22
ATOM     22  C   UNL     1       3.162  12.114   0.074  0.00  0.00    +0.258 A 
ATOM     23  N   UNL     1       4.035  11.138   0.067  0.00  0.00    -0.203 NA
ATOM     24  C   UNL     1       5.287  11.672   0.059  0.00  0.00    +0.110 A 
ATOM     25  C   UNL     1       6.569  11.122   0.048  0.00  0.00    +0.031 A 
ATOM     26  C   UNL     1       7.669  11.952   0.049  0.00  0.00    +0.002 A 
ATOM     27  C   UNL     1       7.508  13.329   0.061  0.00  0.00    +0.004 A 
ATOM     28  C   UNL     1       6.245  13.886   0.071  0.00  0.00    +0.048 A 
ATOM     29  C   UNL     1       5.129  13.066   0.071  0.00  0.00    +0.156 A 
ATOM     30  O   UNL     1       3.796  13.300   0.080  0.00  0.00    -0.431 OA
ENDBRANCH  21  22
ENDBRANCH  20  21
ENDBRANCH   7  20
TORSDOF 4
