REMARK  Name = ZINC40805371
REMARK  6 active torsions:
REMARK  status: ('A' for Active; 'I' for Inactive)
REMARK    1  A    between atoms: C_1  and  C_2
REMARK    2  A    between atoms: C_2  and  C_3
REMARK    3  A    between atoms: C_13  and  C_15
REMARK    4  A    between atoms: C_15  and  C_28
REMARK    5  A    between atoms: N_18  and  C_27
REMARK    6  A    between atoms: C_21  and  C_26
REMARK                            x       y       z     vdW  Elec       q    Type
REMARK                         _______ _______ _______ _____ _____    ______ ____
ROOT
ATOM      1  C   UNL     1       0.707  -0.490  -1.238  0.00  0.00    -0.046 A 
ATOM      2  C   UNL     1      -0.006  -0.722  -2.405  0.00  0.00    +0.006 A 
ATOM      3  C   UNL     1       0.611  -1.163  -3.546  0.00  0.00    +0.029 A 
ATOM      4  C   UNL     1       2.005  -1.399  -3.569  0.00  0.00    +0.080 A 
ATOM      5  C   UNL     1       2.699  -1.153  -2.362  0.00  0.00    +0.041 A 
ATOM      6  C   UNL     1       2.073  -0.704  -1.226  0.00  0.00    +0.021 A 
ATOM      7  S   UNL     1       4.373  -1.557  -2.800  0.00  0.00    -0.052 S 
ATOM      8  C   UNL     1       4.057  -2.013  -4.499  0.00  0.00    +0.166 A 
ATOM      9  N   UNL     1       2.761  -1.831  -4.601  0.00  0.00    -0.225 NA
ATOM     10  N   UNL     1       4.952  -2.447  -5.463  0.00  0.00    -0.261 N 
ATOM     11  C   UNL     1       4.515  -2.746  -6.702  0.00  0.00    +0.272 C 
ATOM     12  O   UNL     1       3.339  -2.634  -6.974  0.00  0.00    -0.270 OA
ATOM     13  H   UNL     1       5.893  -2.537  -5.245  0.00  0.00    +0.157 HD
ENDROOT
BRANCH  11  14
ATOM     14  C   UNL     1       5.489  -3.219  -7.751  0.00  0.00    +0.258 C 
ATOM     15  C   UNL     1       4.941  -2.908  -9.121  0.00  0.00    +0.273 C 
ATOM     16  O   UNL     1       4.287  -3.736  -9.717  0.00  0.00    -0.270 OA
ATOM     17  N   UNL     1       5.182  -1.704  -9.680  0.00  0.00    -0.268 N 
ATOM     18  C   UNL     1       6.044  -0.808  -9.032  0.00  0.00    +0.078 A 
ATOM     19  C   UNL     1       6.137   0.509  -9.452  0.00  0.00    +0.030 A 
ATOM     20  C   UNL     1       6.982   1.383  -8.793  0.00  0.00    -0.048 A 
ATOM     21  C   UNL     1       7.733   0.946  -7.717  0.00  0.00    +0.007 A 
ATOM     22  C   UNL     1       7.649  -0.368  -7.297  0.00  0.00    +0.048 A 
ATOM     23  C   UNL     1       6.810  -1.251  -7.955  0.00  0.00    +0.144 A 
ATOM     24  O   UNL     1       6.742  -2.554  -7.571  0.00  0.00    -0.465 OA
ATOM     25  C   UNL     1       7.085   2.816  -9.249  0.00  0.00    +0.044 C 
ATOM     26  C   UNL     1       4.551  -1.337 -10.950  0.00  0.00    +0.138 C 
ATOM     27  C   UNL     1       5.690  -4.729  -7.614  0.00  0.00    +0.076 C 
ENDBRANCH  11  14
BRANCH   1  29
ATOM     28  C   UNL     1      -0.019   1.526   0.010  0.00  0.00    +0.009 C 
ATOM     29  C   UNL     1       0.002  -0.004   0.002  0.00  0.00    +0.032 C 
ENDBRANCH   1  29
TORSDOF 2
