REMARK  Name = ZINC49300613
REMARK  6 active torsions:
REMARK  status: ('A' for Active; 'I' for Inactive)
REMARK    1  A    between atoms: C_1  and  O_2
REMARK    2  A    between atoms: O_2  and  C_3
REMARK    3  A    between atoms: N_5  and  C_6
REMARK    4  A    between atoms: C_9  and  N_12
REMARK    5  A    between atoms: N_15  and  C_16
REMARK    6  A    between atoms: C_16  and  C_17
REMARK                            x       y       z     vdW  Elec       q    Type
REMARK                         _______ _______ _______ _____ _____    ______ ____
ROOT
ATOM      1  C   UNL     1       1.197  -2.630  -2.211  0.00  0.00    +0.037 A 
ATOM      2  C   UNL     1       1.776  -1.904  -3.243  0.00  0.00    +0.025 A 
ATOM      3  C   UNL     1       2.295  -2.560  -4.342  0.00  0.00    +0.025 A 
ATOM      4  C   UNL     1       2.237  -3.945  -4.415  0.00  0.00    +0.035 A 
ATOM      5  C   UNL     1       1.658  -4.671  -3.382  0.00  0.00    +0.025 A 
ATOM      6  C   UNL     1       1.145  -4.016  -2.281  0.00  0.00    +0.025 A 
ENDROOT
BRANCH   4   7
ATOM      7  N   UNL     1       2.763  -4.611  -5.530  0.00  0.00    -0.269 N 
ATOM      8  C   UNL     1       2.167  -5.729  -5.991  0.00  0.00    +0.304 C 
ATOM      9  O   UNL     1       1.224  -6.207  -5.390  0.00  0.00    -0.252 OA
ATOM     10  N   UNL     1       2.616  -6.316  -7.117  0.00  0.00    -0.295 N 
ATOM     11  H   UNL     1       3.556  -4.267  -5.971  0.00  0.00    +0.156 HD
ATOM     12  H   UNL     1       3.368  -5.935  -7.597  0.00  0.00    +0.151 HD
BRANCH  10  13
ATOM     13  C   UNL     1       1.968  -7.531  -7.618  0.00  0.00    +0.148 C 
BRANCH  13  14
ATOM     14  C   UNL     1       2.655  -7.983  -8.881  0.00  0.00    +0.006 C 
ATOM     15  C   UNL     1       3.299  -9.125  -8.905  0.00  0.00    +0.021 C 
ATOM     16 BR   UNL     1       2.590  -6.902 -10.431  0.00  0.00    -0.054 Br
ENDBRANCH  13  14
ENDBRANCH  10  13
ENDBRANCH   4   7
BRANCH   1  19
ATOM     17  C   UNL     1       0.071  -0.767  -1.246  0.00  0.00    +0.404 C 
ATOM     18  O   UNL     1       0.059  -0.226  -2.334  0.00  0.00    -0.226 OA
ATOM     19  N   UNL     1       0.671  -1.964  -1.095  0.00  0.00    -0.251 N 
ATOM     20  H   UNL     1       0.740  -2.365  -0.215  0.00  0.00    +0.158 HD
BRANCH  17  22
ATOM     21  C   UNL     1      -1.134   1.097  -0.424  0.00  0.00    +0.282 C 
ATOM     22  O   UNL     1      -0.516  -0.171  -0.191  0.00  0.00    -0.453 OA
ENDBRANCH  17  22
ENDBRANCH   1  19
TORSDOF 5
