REMARK  Name = ZINC40020495
REMARK  7 active torsions:
REMARK  status: ('A' for Active; 'I' for Inactive)
REMARK    1  A    between atoms: N_14  and  C_28
REMARK    2  A    between atoms: C_15  and  C_17
REMARK    3  A    between atoms: C_20  and  O_23
REMARK    4  A    between atoms: O_23  and  C_24
REMARK    5  A    between atoms: C_24  and  C_25
REMARK    6  A    between atoms: C_28  and  C_29
REMARK    7  A    between atoms: C_29  and  O_30
REMARK                            x       y       z     vdW  Elec       q    Type
REMARK                         _______ _______ _______ _____ _____    ______ ____
ROOT
ATOM      1  C   UNL     1       0.494   1.751  -0.185  0.00  0.00    +0.001 A 
ATOM      2  C   UNL     1       1.730   2.378  -0.121  0.00  0.00    +0.004 A 
ATOM      3  C   UNL     1       2.893   1.642  -0.079  0.00  0.00    +0.047 A 
ATOM      4  C   UNL     1       2.840   0.249  -0.099  0.00  0.00    +0.139 A 
ATOM      5  C   UNL     1       1.583  -0.375  -0.158  0.00  0.00    +0.064 A 
ATOM      6  C   UNL     1       0.415   0.386  -0.204  0.00  0.00    +0.015 A 
ATOM      7  C   UNL     1       1.514  -1.858  -0.163  0.00  0.00    +0.199 A 
ATOM      8  O   UNL     1       0.488  -2.478  -0.380  0.00  0.00    -0.287 OA
ATOM      9  C   UNL     1       2.800  -2.506   0.117  0.00  0.00    +0.072 A 
ATOM     10  C   UNL     1       3.959  -1.783   0.156  0.00  0.00    +0.199 A 
ATOM     11  O   UNL     1       3.994  -0.454  -0.064  0.00  0.00    -0.450 OA
ATOM     12  C   UNL     1       5.067  -2.704   0.466  0.00  0.00    +0.283 C 
ATOM     13  O   UNL     1       6.232  -2.377   0.577  0.00  0.00    -0.267 OA
ATOM     14  N   UNL     1       4.600  -3.961   0.608  0.00  0.00    -0.282 N 
ATOM     15  C   UNL     1       3.143  -3.932   0.398  0.00  0.00    +0.145 C 
ENDROOT
BRANCH  15  16
ATOM     16  C   UNL     1       2.430  -4.404   1.638  0.00  0.00    -0.022 A 
ATOM     17  C   UNL     1       2.853  -3.975   2.883  0.00  0.00    +0.009 A 
ATOM     18  C   UNL     1       2.201  -4.406   4.022  0.00  0.00    +0.046 A 
ATOM     19  C   UNL     1       1.120  -5.270   3.916  0.00  0.00    +0.121 A 
ATOM     20  C   UNL     1       0.697  -5.698   2.666  0.00  0.00    +0.046 A 
ATOM     21  C   UNL     1       1.350  -5.260   1.530  0.00  0.00    +0.009 A 
BRANCH  19  22
ATOM     22  O   UNL     1       0.477  -5.696   5.035  0.00  0.00    -0.483 OA
BRANCH  22  23
ATOM     23  C   UNL     1      -0.627  -6.584   4.850  0.00  0.00    +0.324 C 
BRANCH  23  24
ATOM     24  C   UNL     1      -1.210  -6.946   6.192  0.00  0.00    +0.248 C 
ATOM     25  O   UNL     1      -0.728  -6.489   7.206  0.00  0.00    -0.272 OA
ATOM     26  N   UNL     1      -2.268  -7.778   6.264  0.00  0.00    -0.327 N 
ATOM     27  H   UNL     1      -2.654  -8.144   5.453  0.00  0.00    +0.145 HD
ATOM     28  H   UNL     1      -2.644  -8.011   7.128  0.00  0.00    +0.145 HD
ENDBRANCH  23  24
ENDBRANCH  22  23
ENDBRANCH  19  22
ENDBRANCH  15  16
BRANCH  14  29
ATOM     29  C   UNL     1       5.402  -5.147   0.917  0.00  0.00    +0.137 C 
BRANCH  29  30
ATOM     30  C   UNL     1       5.770  -5.867  -0.383  0.00  0.00    +0.175 C 
BRANCH  30  31
ATOM     31  O   UNL     1       6.629  -5.032  -1.162  0.00  0.00    -0.393 OA
ATOM     32  H   UNL     1       6.903  -5.426  -2.002  0.00  0.00    +0.209 HD
ENDBRANCH  30  31
ENDBRANCH  29  30
ENDBRANCH  14  29
TORSDOF 7
