REMARK  Name = ZINC36358207
REMARK  3 active torsions:
REMARK  status: ('A' for Active; 'I' for Inactive)
REMARK    1  A    between atoms: C_1  and  C_2
REMARK    2  A    between atoms: C_4  and  C_8
REMARK    3  A    between atoms: C_11  and  C_16
REMARK                            x       y       z     vdW  Elec       q    Type
REMARK                         _______ _______ _______ _____ _____    ______ ____
ROOT
ATOM      1  C   UNL     1       0.042  -3.329  -1.536  0.00  0.00    +0.152 A 
ATOM      2  N   UNL     1       0.041  -3.393  -2.842  0.00  0.00    -0.154 NA
ATOM      3  N   UNL     1       0.054  -4.615  -3.502  0.00  0.00    -0.185 N 
ATOM      4  C   UNL     1       0.059  -5.122  -4.794  0.00  0.00    +0.189 A 
ATOM      5  N   UNL     1       0.074  -6.432  -4.710  0.00  0.00    -0.126 NA
ATOM      6  N   UNL     1       0.078  -6.793  -3.474  0.00  0.00    -0.120 NA
ATOM      7  C   UNL     1       0.067  -5.739  -2.713  0.00  0.00    +0.219 A 
ATOM      8  S   UNL     1       0.069  -5.054  -1.074  0.00  0.00    -0.025 S 
ENDROOT
BRANCH   4   9
ATOM      9  C   UNL     1       0.049  -4.328  -6.041  0.00  0.00    +0.056 A 
ATOM     10  C   UNL     1       0.039  -2.934  -5.984  0.00  0.00    +0.016 A 
ATOM     11  C   UNL     1       0.030  -2.199  -7.151  0.00  0.00    +0.021 A 
ATOM     12  C   UNL     1       0.030  -2.840  -8.379  0.00  0.00    +0.044 A 
ATOM     13  C   UNL     1       0.040  -4.223  -8.443  0.00  0.00    +0.059 A 
ATOM     14  C   UNL     1       0.055  -4.971  -7.282  0.00  0.00    +0.135 A 
ATOM     15  F   UNL     1       0.071  -6.321  -7.346  0.00  0.00    -0.205 F 
ATOM     16 CL   UNL     1       0.018  -1.907  -9.842  0.00  0.00    -0.083 Cl
ENDBRANCH   4   9
BRANCH   1  20
ATOM     17  C   UNL     1      -0.018   1.503   0.010  0.00  0.00    +0.065 C 
ATOM     18  C   UNL     1       0.002  -0.004   0.002  0.00  0.00    +0.034 A 
ATOM     19  C   UNL     1       0.008  -0.792  -1.095  0.00  0.00    +0.054 A 
ATOM     20  C   UNL     1       0.029  -2.134  -0.663  0.00  0.00    +0.119 A 
ATOM     21  N   UNL     1       0.035  -2.135   0.654  0.00  0.00    -0.172 NA
ATOM     22  N   UNL     1       0.024  -0.804   1.090  0.00  0.00    -0.281 N 
ATOM     23  H   UNL     1       0.028  -0.507   2.014  0.00  0.00    +0.189 HD
ENDBRANCH   1  20
TORSDOF 2
