REMARK  Name = ZINC13657724
REMARK  8 active torsions:
REMARK  status: ('A' for Active; 'I' for Inactive)
REMARK    1  A    between atoms: C_1  and  O_2
REMARK    2  A    between atoms: O_2  and  C_3
REMARK    3  A    between atoms: C_7  and  C_10
REMARK    4  A    between atoms: C_8  and  O_9
REMARK    5  A    between atoms: N_11  and  N_12
REMARK    6  A    between atoms: N_12  and  C_13
REMARK    7  A    between atoms: C_13  and  N_15
REMARK    8  A    between atoms: N_15  and  C_16
REMARK                            x       y       z     vdW  Elec       q    Type
REMARK                         _______ _______ _______ _____ _____    ______ ____
ROOT
ATOM      1  N   UNL     1      -2.442  -2.780   0.018  0.00  0.00    -0.218 N 
ATOM      2  H   UNL     1      -3.404  -2.246   0.037  0.00  0.00    +0.176 HD
ENDROOT
BRANCH   1   4
ATOM      3  C   UNL     1      -1.262  -0.762   0.009  0.00  0.00    +0.142 C 
ATOM      4  N   UNL     1      -1.241  -2.060   0.002  0.00  0.00    -0.188 NA
BRANCH   3   9
ATOM      5  C   UNL     1       2.413   0.044  -0.048  0.00  0.00    +0.162 A 
ATOM      6  C   UNL     1       2.379   1.429  -0.040  0.00  0.00    +0.049 A 
ATOM      7  C   UNL     1       1.168   2.099  -0.016  0.00  0.00    +0.004 A 
ATOM      8  C   UNL     1      -0.017   1.393   0.000  0.00  0.00    +0.013 A 
ATOM      9  C   UNL     1       0.002  -0.004  -0.008  0.00  0.00    +0.040 A 
ATOM     10  C   UNL     1       1.228  -0.681  -0.032  0.00  0.00    +0.167 A 
BRANCH   5  12
ATOM     11  C   UNL     1       4.786   0.200  -0.087  0.00  0.00    +0.277 C 
ATOM     12  O   UNL     1       3.607  -0.607  -0.071  0.00  0.00    -0.491 OA
ENDBRANCH   5  12
BRANCH  10  13
ATOM     13  O   UNL     1       1.257  -2.039  -0.040  0.00  0.00    -0.503 OA
ATOM     14  H   UNL     1       0.317  -2.610  -0.027  0.00  0.00    +0.292 HD
ENDBRANCH  10  13
ENDBRANCH   3   9
ENDBRANCH   1   4
BRANCH   1  15
ATOM     15  C   UNL     1      -2.420  -4.128   0.011  0.00  0.00    +0.150 C 
ATOM     16  S   UNL     1      -3.889  -5.008   0.030  0.00  0.00    -0.017 S 
BRANCH  15  17
ATOM     17  N   UNL     1      -1.242  -4.782  -0.012  0.00  0.00    -0.322 N 
ATOM     18  H   UNL     1      -0.299  -4.217  -0.025  0.00  0.00    +0.148 HD
BRANCH  17  19
ATOM     19  C   UNL     1      -1.219  -6.247  -0.020  0.00  0.00    +0.076 C 
ATOM     20  C   UNL     1       0.159  -6.779   0.461  0.00  0.00    +0.026 C 
ATOM     21  C   UNL     1       0.638  -7.785  -0.611  0.00  0.00    -0.005 C 
ATOM     22  C   UNL     1      -0.780  -8.255  -1.166  0.00  0.00    +0.009 C 
ATOM     23  C   UNL     1      -1.298  -6.803  -1.499  0.00  0.00    +0.017 C 
ATOM     24  C   UNL     1      -0.071  -6.064  -2.079  0.00  0.00    +0.020 C 
ATOM     25  C   UNL     1       1.056  -7.163  -1.873  0.00  0.00    +0.003 C 
ATOM     26  C   UNL     1       2.152  -6.438  -2.543  0.00  0.00    +0.031 C 
ATOM     27  C   UNL     1       1.403  -6.008  -3.826  0.00  0.00    -0.030 C 
ATOM     28  C   UNL     1       0.102  -5.851  -3.549  0.00  0.00    -0.027 C 
ENDBRANCH  17  19
ENDBRANCH  15  17
ENDBRANCH   1  15
TORSDOF 7
