REMARK  Name = ZINC39715520
REMARK  9 active torsions:
REMARK  status: ('A' for Active; 'I' for Inactive)
REMARK    1  A    between atoms: C_1  and  C_2
REMARK    2  A    between atoms: C_6  and  C_7
REMARK    3  A    between atoms: C_7  and  C_9
REMARK    4  A    between atoms: C_7  and  C_20
REMARK    5  A    between atoms: C_14  and  O_15
REMARK    6  A    between atoms: O_15  and  C_16
REMARK    7  A    between atoms: C_16  and  C_17
REMARK    8  A    between atoms: C_21  and  C_27
REMARK    9  A    between atoms: C_24  and  O_26
REMARK                            x       y       z     vdW  Elec       q    Type
REMARK                         _______ _______ _______ _____ _____    ______ ____
ROOT
ATOM      1  C   UNL     1       0.032  -0.370   2.566  0.00  0.00    +0.092 C 
ENDROOT
BRANCH   1   7
ATOM      2  C   UNL     1       2.550  -0.947   0.730  0.00  0.00    +0.068 C 
ATOM      3  C   UNL     1       1.107  -1.122   0.333  0.00  0.00    +0.068 A 
ATOM      4  N   UNL     1       0.678  -1.545  -0.829  0.00  0.00    -0.176 NA
ATOM      5  N   UNL     1      -0.723  -1.568  -0.800  0.00  0.00    -0.243 N 
ATOM      6  C   UNL     1      -1.120  -1.144   0.420  0.00  0.00    +0.271 A 
ATOM      7  C   UNL     1      -0.003  -0.867   1.144  0.00  0.00    +0.053 A 
ATOM      8  O   UNL     1      -2.403  -1.022   0.847  0.00  0.00    -0.266 OA
ATOM      9  H   UNL     1      -1.304  -1.840  -1.527  0.00  0.00    +0.192 HD
ENDBRANCH   1   7
BRANCH   1  10
ATOM     10  C   UNL     1       1.211  -0.977   3.281  0.00  0.00    +0.007 A 
ATOM     11  C   UNL     1       1.391  -2.347   3.277  0.00  0.00    +0.023 A 
ATOM     12  C   UNL     1       2.474  -2.905   3.933  0.00  0.00    +0.018 A 
ATOM     13  C   UNL     1       3.377  -2.094   4.595  0.00  0.00    +0.019 A 
ATOM     14  C   UNL     1       3.201  -0.724   4.602  0.00  0.00    +0.047 A 
ATOM     15  C   UNL     1       2.119  -0.162   3.940  0.00  0.00    +0.126 A 
ATOM     16 BR   UNL     1       2.717  -4.781   3.926  0.00  0.00    -0.050 Br
BRANCH  15  17
ATOM     17  O   UNL     1       1.946   1.187   3.941  0.00  0.00    -0.479 OA
BRANCH  17  18
ATOM     18  C   UNL     1       2.921   1.965   4.639  0.00  0.00    +0.317 C 
BRANCH  18  19
ATOM     19  C   UNL     1       2.575   3.392   4.535  0.00  0.00    -0.065 C 
ATOM     20  C   UNL     1       2.300   4.530   4.452  0.00  0.00    +0.007 C 
ENDBRANCH  18  19
ENDBRANCH  17  18
ENDBRANCH  15  17
ENDBRANCH   1  10
BRANCH   1  21
ATOM     21  C   UNL     1      -1.241  -0.766   3.269  0.00  0.00    +0.017 C 
ATOM     22  C   UNL     1      -2.156   0.031   3.823  0.00  0.00    +0.065 C 
ATOM     23  N   UNL     1      -3.162  -0.695   4.360  0.00  0.00    -0.156 NA
ATOM     24  N   UNL     1      -3.037  -1.915   4.234  0.00  0.00    -0.151 NA
ATOM     25  C   UNL     1      -1.783  -2.165   3.504  0.00  0.00    +0.284 C 
ATOM     26  C   UNL     1      -2.079   1.536   3.848  0.00  0.00    +0.067 C 
BRANCH  25  27
ATOM     27  O   UNL     1      -0.879  -2.929   4.305  0.00  0.00    -0.366 OA
ATOM     28  H   UNL     1      -1.178  -3.830   4.485  0.00  0.00    +0.212 HD
ENDBRANCH  25  27
ENDBRANCH   1  21
TORSDOF 7
