REMARK  Name = ZINC13008089
REMARK  10 active torsions:
REMARK  status: ('A' for Active; 'I' for Inactive)
REMARK    1  A    between atoms: C_1  and  C_2
REMARK    2  A    between atoms: C_4  and  C_33
REMARK    3  A    between atoms: C_5  and  N_9
REMARK    4  A    between atoms: C_6  and  C_8
REMARK    5  A    between atoms: C_10  and  C_12
REMARK    6  A    between atoms: N_14  and  C_15
REMARK    7  A    between atoms: C_15  and  C_16
REMARK    8  A    between atoms: C_16  and  C_18
REMARK    9  A    between atoms: C_16  and  N_69
REMARK   10  A    between atoms: N_26  and  C_27
REMARK                            x       y       z     vdW  Elec       q    Type
REMARK                         _______ _______ _______ _____ _____    ______ ____
ROOT
ATOM      1  C   UNL     1      -5.676   5.038  -2.203  0.00  0.00    +0.094 C 
ENDROOT
BRANCH   1   4
ATOM      2  C   UNL     1      -7.183   6.948  -2.063  0.00  0.00    +0.299 C 
ATOM      3  O   UNL     1      -7.714   6.422  -1.107  0.00  0.00    -0.265 OA
ATOM      4  N   UNL     1      -6.154   6.337  -2.683  0.00  0.00    -0.309 N 
ATOM      5  H   UNL     1      -5.730   6.757  -3.447  0.00  0.00    +0.149 HD
BRANCH   2   7
ATOM      6  N   UNL     1      -8.699   8.883  -1.933  0.00  0.00    -0.277 N 
ATOM      7  C   UNL     1      -7.670   8.272  -2.553  0.00  0.00    +0.303 C 
ATOM      8  O   UNL     1      -7.139   8.798  -3.509  0.00  0.00    -0.265 OA
ATOM      9  H   UNL     1      -9.089   8.488  -1.137  0.00  0.00    +0.155 HD
BRANCH   6  14
ATOM     10  C   UNL     1     -10.745  13.764  -3.971  0.00  0.00    +0.044 C 
ATOM     11  C   UNL     1     -10.201  12.467  -3.429  0.00  0.00    -0.050 A 
ATOM     12  C   UNL     1     -11.040  11.379  -3.273  0.00  0.00    +0.008 A 
ATOM     13  C   UNL     1     -10.546  10.189  -2.777  0.00  0.00    -0.029 A 
ATOM     14  C   UNL     1      -9.203  10.085  -2.435  0.00  0.00    +0.040 A 
ATOM     15  C   UNL     1      -8.364  11.182  -2.589  0.00  0.00    -0.029 A 
ATOM     16  C   UNL     1      -8.864  12.367  -3.090  0.00  0.00    +0.008 A 
ATOM     17  C   UNL     1      -6.908  11.076  -2.214  0.00  0.00    +0.045 C 
ATOM     18  C   UNL     1     -11.461   9.004  -2.607  0.00  0.00    +0.045 C 
ENDBRANCH   6  14
ENDBRANCH   2   7
ENDBRANCH   1   4
BRANCH   1  19
ATOM     19  C   UNL     1      -4.592   4.513  -3.146  0.00  0.00    -0.020 C 
BRANCH  19  20
ATOM     20  C   UNL     1      -4.065   3.201  -2.624  0.00  0.00    -0.059 A 
ATOM     21  C   UNL     1      -3.241   3.179  -1.513  0.00  0.00    +0.004 A 
ATOM     22  C   UNL     1      -2.759   1.980  -1.030  0.00  0.00    +0.023 A 
ATOM     23  C   UNL     1      -3.098   0.783  -1.658  0.00  0.00    +0.033 A 
ATOM     24  C   UNL     1      -3.921   0.817  -2.777  0.00  0.00    -0.025 A 
ATOM     25  C   UNL     1      -4.403   2.018  -3.255  0.00  0.00    +0.007 A 
ATOM     26  C   UNL     1      -4.116  -0.607  -3.258  0.00  0.00    +0.056 C 
ATOM     27  C   UNL     1      -2.985  -1.372  -2.532  0.00  0.00    +0.109 C 
ATOM     28  N   UNL     1      -2.736  -0.534  -1.339  0.00  0.00    -0.332 N 
ATOM     29  C   UNL     1      -1.329  -0.613  -0.924  0.00  0.00    +0.129 C 
ENDBRANCH  19  20
BRANCH  19  35
ATOM     30  C   UNL     1      -2.222   4.822  -3.530  0.00  0.00    -0.078 C 
ATOM     31  C   UNL     1      -1.134   5.877  -3.745  0.00  0.00    -0.019 C 
ATOM     32  C   UNL     1      -0.995   6.725  -2.477  0.00  0.00    -0.004 C 
ATOM     33  C   UNL     1      -2.346   7.366  -2.151  0.00  0.00    -0.019 C 
ATOM     34  C   UNL     1      -3.399   6.269  -1.983  0.00  0.00    -0.078 C 
ATOM     35  N   UNL     1      -3.502   5.505  -3.244  0.00  0.00    +0.385 N 
ATOM     36  H   UNL     1      -3.711   6.155  -4.011  0.00  0.00    -0.081 HD
ENDBRANCH  19  35
ENDBRANCH   1  19
TORSDOF 6
