REMARK  Name = ZINC21359370
REMARK  7 active torsions:
REMARK  status: ('A' for Active; 'I' for Inactive)
REMARK    1  A    between atoms: C_1  and  C_2
REMARK    2  A    between atoms: C_2  and  C_3
REMARK    3  A    between atoms: C_2  and  C_4
REMARK    4  A    between atoms: C_10  and  S_12
REMARK    5  A    between atoms: S_12  and  C_13
REMARK    6  A    between atoms: C_13  and  C_14
REMARK    7  A    between atoms: C_17  and  C_19
REMARK                            x       y       z     vdW  Elec       q    Type
REMARK                         _______ _______ _______ _____ _____    ______ ____
ROOT
ATOM      1  C   UNL     1      -3.481   5.013   0.045  0.00  0.00    +0.174 C 
ENDROOT
BRANCH   1   2
ATOM      2  C   UNL     1      -2.799   3.669   0.035  0.00  0.00    +0.228 A 
ATOM      3  N   UNL     1      -3.389   2.507   0.032  0.00  0.00    -0.111 NA
ATOM      4  N   UNL     1      -2.502   1.575   0.023  0.00  0.00    -0.107 NA
ATOM      5  C   UNL     1      -1.306   2.115   0.020  0.00  0.00    +0.248 A 
ATOM      6  O   UNL     1      -1.472   3.453   0.033  0.00  0.00    -0.419 OA
BRANCH   5   7
ATOM      7  C   UNL     1      -0.017   1.392   0.010  0.00  0.00    +0.042 A 
ATOM      8  C   UNL     1       1.185   2.103   0.002  0.00  0.00    +0.017 A 
ATOM      9  C   UNL     1       2.386   1.426  -0.013  0.00  0.00    +0.050 A 
ATOM     10  C   UNL     1       2.406   0.039  -0.021  0.00  0.00    +0.166 A 
ATOM     11  C   UNL     1       1.210  -0.677  -0.013  0.00  0.00    +0.167 A 
ATOM     12  C   UNL     1       0.002  -0.004   0.002  0.00  0.00    +0.062 A 
ATOM     13  O   UNL     1       1.500  -2.011  -0.023  0.00  0.00    -0.453 OA
ATOM     14  C   UNL     1       2.880  -2.107   0.376  0.00  0.00    +0.466 C 
ATOM     15  O   UNL     1       3.444  -0.848  -0.036  0.00  0.00    -0.453 OA
ENDBRANCH   5   7
ENDBRANCH   1   2
BRANCH   1  16
ATOM     16  S   UNL     1      -3.746   5.544   1.759  0.00  0.00    -0.087 S 
BRANCH  16  23
ATOM     17  C   UNL     1      -6.765  11.487   0.988  0.00  0.00    +0.221 C 
ATOM     18  O   UNL     1      -6.588  11.133  -0.158  0.00  0.00    -0.275 OA
ATOM     19  N   UNL     1      -6.362  10.700   2.006  0.00  0.00    -0.263 N 
ATOM     20  C   UNL     1      -5.744   9.480   1.740  0.00  0.00    +0.189 A 
ATOM     21  N   UNL     1      -5.457   8.907   0.583  0.00  0.00    -0.125 NA
ATOM     22  N   UNL     1      -4.887   7.783   0.517  0.00  0.00    -0.133 NA
ATOM     23  C   UNL     1      -4.540   7.109   1.603  0.00  0.00    +0.160 A 
ATOM     24  S   UNL     1      -5.118   8.237   2.867  0.00  0.00    -0.024 S 
ATOM     25  H   UNL     1      -6.522  11.020   3.046  0.00  0.00    +0.157 HD
BRANCH  17  27
ATOM     26  C   UNL     1      -6.482  13.696   2.078  0.00  0.00    +0.017 C 
ATOM     27  C   UNL     1      -7.434  12.806   1.276  0.00  0.00    +0.069 C 
ATOM     28  C   UNL     1      -7.788  13.496  -0.043  0.00  0.00    +0.017 C 
ENDBRANCH  17  27
ENDBRANCH  16  23
ENDBRANCH   1  16
TORSDOF 5
