REMARK  Name = ZINC36822366
REMARK  7 active torsions:
REMARK  status: ('A' for Active; 'I' for Inactive)
REMARK    1  A    between atoms: C_1  and  C_2
REMARK    2  A    between atoms: C_9  and  C_16
REMARK    3  A    between atoms: C_11  and  O_12
REMARK    4  A    between atoms: C_16  and  S_17
REMARK    5  A    between atoms: S_17  and  C_18
REMARK    6  A    between atoms: N_23  and  C_24
REMARK    7  A    between atoms: C_24  and  C_25
REMARK                            x       y       z     vdW  Elec       q    Type
REMARK                         _______ _______ _______ _____ _____    ______ ____
ROOT
ATOM      1  C   UNL     1       0.076   1.452   0.029  0.00  0.00    +0.109 C 
ATOM      2  C   UNL     1      -0.007  -0.031  -0.226  0.00  0.00    +0.214 C 
ATOM      3  O   UNL     1       0.965  -0.631  -0.650  0.00  0.00    -0.276 OA
ATOM      4  N   UNL     1      -1.131  -0.679   0.009  0.00  0.00    -0.286 N 
ATOM      5  C   UNL     1      -1.167  -2.037  -0.086  0.00  0.00    +0.037 A 
ATOM      6  C   UNL     1      -2.404  -2.699  -0.180  0.00  0.00    +0.024 A 
ATOM      7  C   UNL     1      -2.453  -4.053  -0.276  0.00  0.00    +0.013 A 
ATOM      8  C   UNL     1      -1.261  -4.800  -0.281  0.00  0.00    +0.022 A 
ATOM      9  C   UNL     1      -1.291  -6.207  -0.380  0.00  0.00    -0.020 A 
ATOM     10  C   UNL     1      -0.093  -6.893  -0.381  0.00  0.00    +0.092 A 
ATOM     11  C   UNL     1       1.104  -6.197  -0.285  0.00  0.00    +0.285 A 
ATOM     12  O   UNL     1       1.127  -4.863  -0.192  0.00  0.00    -0.425 OA
ATOM     13  C   UNL     1      -0.014  -4.143  -0.186  0.00  0.00    +0.141 A 
ATOM     14  C   UNL     1       0.025  -2.763  -0.095  0.00  0.00    +0.070 A 
ATOM     15  H   UNL     1      -1.932  -0.188   0.250  0.00  0.00    +0.155 HD
ENDROOT
BRANCH  11  16
ATOM     16  O   UNL     1       2.265  -6.878  -0.288  0.00  0.00    -0.480 OA
ATOM     17  H   UNL     1       3.050  -6.318  -0.218  0.00  0.00    +0.295 HD
ENDBRANCH  11  16
BRANCH   9  18
ATOM     18  C   UNL     1      -2.601  -6.944  -0.482  0.00  0.00    +0.112 C 
BRANCH  18  19
ATOM     19  S   UNL     1      -2.845  -7.510  -2.188  0.00  0.00    -0.092 S 
BRANCH  19  20
ATOM     20  C   UNL     1      -4.397  -8.342  -2.143  0.00  0.00    +0.160 A 
ATOM     21  N   UNL     1      -5.220  -8.524  -1.127  0.00  0.00    -0.133 NA
ATOM     22  N   UNL     1      -6.396  -9.212  -1.314  0.00  0.00    -0.125 NA
ATOM     23  C   UNL     1      -6.697  -9.686  -2.507  0.00  0.00    +0.183 A 
ATOM     24  S   UNL     1      -5.283  -9.159  -3.462  0.00  0.00    -0.025 S 
ATOM     25  N   UNL     1      -7.818 -10.400  -2.914  0.00  0.00    -0.319 N 
ATOM     26  H   UNL     1      -7.902 -10.687  -3.837  0.00  0.00    +0.148 HD
BRANCH  25  27
ATOM     27  C   UNL     1      -8.873 -10.721  -1.948  0.00  0.00    +0.130 C 
BRANCH  27  28
ATOM     28  C   UNL     1      -9.966 -11.495  -2.638  0.00  0.00    -0.016 C 
ATOM     29  C   UNL     1     -10.339 -12.660  -2.170  0.00  0.00    +0.005 C 
ENDBRANCH  27  28
ENDBRANCH  25  27
ENDBRANCH  19  20
ENDBRANCH  18  19
ENDBRANCH   9  18
TORSDOF 6
