REMARK  Name = ZINC64007070
REMARK  10 active torsions:
REMARK  status: ('A' for Active; 'I' for Inactive)
REMARK    1  A    between atoms: C_1  and  O_2
REMARK    2  A    between atoms: O_2  and  C_3
REMARK    3  A    between atoms: C_7  and  C_23
REMARK    4  A    between atoms: N_10  and  C_16
REMARK    5  A    between atoms: C_13  and  O_14
REMARK    6  A    between atoms: O_14  and  C_15
REMARK    7  A    between atoms: C_16  and  C_17
REMARK    8  A    between atoms: C_23  and  N_24
REMARK    9  A    between atoms: N_24  and  C_25
REMARK   10  A    between atoms: C_25  and  C_26
REMARK                            x       y       z     vdW  Elec       q    Type
REMARK                         _______ _______ _______ _____ _____    ______ ____
ROOT
ATOM      1  C   UNL     1       0.606  -0.608  -1.057  0.00  0.00    +0.162 A 
ATOM      2  C   UNL     1       1.168   0.159  -2.054  0.00  0.00    +0.059 A 
ATOM      3  C   UNL     1       1.789  -0.468  -3.142  0.00  0.00    +0.003 A 
ATOM      4  C   UNL     1       2.396   0.316  -4.217  0.00  0.00    +0.020 A 
ATOM      5  C   UNL     1       2.985  -0.342  -5.248  0.00  0.00    +0.031 A 
ATOM      6  C   UNL     1       3.005  -1.751  -5.271  0.00  0.00    +0.256 A 
ATOM      7  O   UNL     1       3.540  -2.322  -6.207  0.00  0.00    -0.267 OA
ATOM      8  N   UNL     1       2.451  -2.482  -4.288  0.00  0.00    -0.307 N 
ATOM      9  C   UNL     1       1.837  -1.874  -3.212  0.00  0.00    +0.056 A 
ATOM     10  C   UNL     1       1.265  -2.631  -2.198  0.00  0.00    +0.076 A 
ATOM     11  C   UNL     1       0.660  -2.003  -1.125  0.00  0.00    +0.163 A 
ENDROOT
BRANCH   1  13
ATOM     12  C   UNL     1      -0.017   1.425   0.010  0.00  0.00    +0.277 C 
ATOM     13  O   UNL     1       0.002  -0.004   0.002  0.00  0.00    -0.491 OA
ENDBRANCH   1  13
BRANCH  11  14
ATOM     14  O   UNL     1       0.107  -2.748  -0.133  0.00  0.00    -0.491 OA
ATOM     15  C   UNL     1       0.195  -4.169  -0.262  0.00  0.00    +0.277 C 
ENDBRANCH  11  14
BRANCH   8  16
ATOM     16  C   UNL     1       2.499  -3.944  -4.361  0.00  0.00    +0.129 C 
BRANCH  16  17
ATOM     17  C   UNL     1       3.771  -4.447  -3.674  0.00  0.00    +0.009 C 
ATOM     18  C   UNL     1       4.996  -3.962  -4.451  0.00  0.00    +0.005 C 
ATOM     19  C   UNL     1       6.267  -4.465  -3.764  0.00  0.00    +0.000 C 
ATOM     20  C   UNL     1       6.257  -5.995  -3.729  0.00  0.00    +0.000 C 
ATOM     21  C   UNL     1       5.032  -6.479  -2.951  0.00  0.00    +0.000 C 
ATOM     22  C   UNL     1       3.760  -5.976  -3.639  0.00  0.00    +0.005 C 
ENDBRANCH  16  17
ENDBRANCH   8  16
BRANCH   5  23
ATOM     23  C   UNL     1       3.619   0.437  -6.372  0.00  0.00    +0.121 C 
BRANCH  23  24
ATOM     24  N   UNL     1       5.056   0.593  -6.109  0.00  0.00    -0.312 NA
ATOM     25  H   UNL     1       5.215   1.030  -5.213  0.00  0.00    +0.122 HD
BRANCH  24  26
ATOM     26  C   UNL     1       5.709   1.349  -7.186  0.00  0.00    +0.083 C 
BRANCH  26  27
ATOM     27  C   UNL     1       7.201   1.491  -6.878  0.00  0.00    -0.011 C 
ATOM     28  C   UNL     1       7.381   2.338  -5.617  0.00  0.00    +0.001 C 
ATOM     29  C   UNL     1       6.827   3.741  -5.886  0.00  0.00    -0.018 C 
ATOM     30  C   UNL     1       7.560   4.340  -7.085  0.00  0.00    -0.078 C 
ATOM     31  N   UNL     1       7.349   3.505  -8.277  0.00  0.00    +0.382 N 
ATOM     32  C   UNL     1       7.903   2.167  -8.060  0.00  0.00    -0.064 C 
ATOM     33  C   UNL     1       7.681   1.300  -9.305  0.00  0.00    -0.015 C 
ATOM     34  C   UNL     1       8.351   1.953 -10.516  0.00  0.00    -0.003 C 
ATOM     35  C   UNL     1       7.778   3.363 -10.693  0.00  0.00    -0.019 C 
ATOM     36  C   UNL     1       8.021   4.155  -9.413  0.00  0.00    -0.078 C 
ATOM     37  H   UNL     1       6.361   3.434  -8.467  0.00  0.00    -0.081 HD
ENDBRANCH  26  27
ENDBRANCH  24  26
ENDBRANCH  23  24
ENDBRANCH   5  23
TORSDOF 8
