REMARK  Name = ZINC40447329
REMARK  7 active torsions:
REMARK  status: ('A' for Active; 'I' for Inactive)
REMARK    1  A    between atoms: C_1  and  C_2
REMARK    2  A    between atoms: C_3  and  C_8
REMARK    3  A    between atoms: C_5  and  C_7
REMARK    4  A    between atoms: C_8  and  C_10
REMARK    5  A    between atoms: C_8  and  N_11
REMARK    6  A    between atoms: N_11  and  S_12
REMARK    7  A    between atoms: S_12  and  C_15
REMARK                            x       y       z     vdW  Elec       q    Type
REMARK                         _______ _______ _______ _____ _____    ______ ____
ROOT
ATOM      1  N   UNL     1      -0.978  -0.991  -3.359  0.00  0.00    -0.182 NA
ATOM      2  H   UNL     1      -1.109  -1.933  -3.168  0.00  0.00    +0.149 HD
ENDROOT
BRANCH   1   3
ATOM      3  S   UNL     1      -1.851  -0.261  -4.562  0.00  0.00    +0.059 S 
ATOM      4  O   UNL     1      -2.673  -1.268  -5.136  0.00  0.00    -0.153 OA
ATOM      5  O   UNL     1      -2.386   0.933  -4.008  0.00  0.00    -0.153 OA
BRANCH   3   6
ATOM      6  C   UNL     1      -0.709   0.230  -5.810  0.00  0.00    +0.106 A 
ATOM      7  C   UNL     1      -0.119   1.479  -5.754  0.00  0.00    +0.028 A 
ATOM      8  C   UNL     1       0.777   1.865  -6.733  0.00  0.00    +0.003 A 
ATOM      9  C   UNL     1       1.084   1.003  -7.769  0.00  0.00    +0.015 A 
ATOM     10  C   UNL     1       0.494  -0.247  -7.825  0.00  0.00    +0.020 A 
ATOM     11  C   UNL     1      -0.399  -0.635  -6.842  0.00  0.00    +0.043 A 
ATOM     12 BR   UNL     1       0.912  -1.427  -9.242  0.00  0.00    -0.050 Br
ENDBRANCH   3   6
ENDBRANCH   1   3
BRANCH   1  13
ATOM     13  C   UNL     1      -0.008  -0.215  -2.583  0.00  0.00    +0.112 C 
ATOM     14  C   UNL     1       1.384  -0.381  -3.194  0.00  0.00    +0.031 C 
BRANCH  13  17
ATOM     15  C   UNL     1      -0.018   1.503   0.010  0.00  0.00    +0.066 C 
ATOM     16  C   UNL     1       0.002  -0.004   0.002  0.00  0.00    +0.050 A 
ATOM     17  C   UNL     1       0.006  -0.708  -1.159  0.00  0.00    +0.031 A 
ATOM     18  S   UNL     1       0.032  -2.379  -0.531  0.00  0.00    -0.075 S 
ATOM     19  C   UNL     1       0.036  -2.009   1.111  0.00  0.00    +0.076 A 
ATOM     20  N   UNL     1       0.023  -0.699   1.122  0.00  0.00    -0.249 NA
ATOM     21  C   UNL     1       0.055  -2.955   2.284  0.00  0.00    +0.073 C 
ENDBRANCH  13  17
ENDBRANCH   1  13
TORSDOF 4
