REMARK  Name = ZINC32104134
REMARK  7 active torsions:
REMARK  status: ('A' for Active; 'I' for Inactive)
REMARK    1  A    between atoms: C_1  and  C_2
REMARK    2  A    between atoms: C_3  and  C_26
REMARK    3  A    between atoms: C_9  and  C_20
REMARK    4  A    between atoms: N_14  and  C_15
REMARK    5  A    between atoms: C_15  and  C_16
REMARK    6  A    between atoms: C_16  and  C_18
REMARK    7  A    between atoms: C_16  and  O_19
REMARK                            x       y       z     vdW  Elec       q    Type
REMARK                         _______ _______ _______ _____ _____    ______ ____
ROOT
ATOM      1  C   UNL     1       3.721   6.705   0.004  0.00  0.00    +0.045 C 
ATOM      2  C   UNL     1       5.210   6.478  -0.010  0.00  0.00    -0.028 A 
ATOM      3  C   UNL     1       6.056   7.521  -0.011  0.00  0.00    -0.008 A 
ATOM      4  S   UNL     1       7.663   6.749  -0.028  0.00  0.00    -0.073 S 
ATOM      5  C   UNL     1       7.151   5.050  -0.034  0.00  0.00    +0.116 A 
ATOM      6  C   UNL     1       5.747   5.131  -0.022  0.00  0.00    +0.055 A 
ATOM      7  C   UNL     1       5.044   3.833  -0.024  0.00  0.00    +0.170 A 
ATOM      8  N   UNL     1       3.769   3.497  -0.015  0.00  0.00    -0.206 NA
ATOM      9  C   UNL     1       3.660   2.164  -0.021  0.00  0.00    +0.182 A 
ATOM     10  N   UNL     1       4.864   1.628  -0.029  0.00  0.00    -0.142 NA
ATOM     11  N   UNL     1       5.785   2.686  -0.036  0.00  0.00    -0.181 N 
ATOM     12  C   UNL     1       7.149   2.739  -0.047  0.00  0.00    +0.219 A 
ATOM     13  N   UNL     1       7.790   3.885  -0.046  0.00  0.00    -0.207 NA
ATOM     14  N   UNL     1       7.869   1.565  -0.059  0.00  0.00    -0.311 N 
ATOM     15  C   UNL     1       5.726   8.992   0.000  0.00  0.00    +0.052 C 
ATOM     16  H   UNL     1       7.345   0.599  -0.060  0.00  0.00    +0.149 HD
ENDROOT
BRANCH   9  17
ATOM     17  C   UNL     1       2.384   1.408  -0.013  0.00  0.00    +0.021 A 
ATOM     18  C   UNL     1       1.168   2.088   0.002  0.00  0.00    +0.011 A 
ATOM     19  C   UNL     1      -0.017   1.379   0.010  0.00  0.00    +0.001 A 
ATOM     20  C   UNL     1       0.002  -0.004   0.002  0.00  0.00    +0.000 A 
ATOM     21  C   UNL     1       1.206  -0.684  -0.013  0.00  0.00    +0.001 A 
ATOM     22  C   UNL     1       2.397   0.014  -0.021  0.00  0.00    +0.011 A 
ENDBRANCH   9  17
BRANCH  14  23
ATOM     23  C   UNL     1       9.334   1.604  -0.070  0.00  0.00    +0.135 C 
BRANCH  23  24
ATOM     24  C   UNL     1       9.882   0.176  -0.082  0.00  0.00    +0.128 C 
ATOM     25  C   UNL     1      11.411   0.216  -0.094  0.00  0.00    +0.039 C 
BRANCH  24  26
ATOM     26  O   UNL     1       9.432  -0.516   1.084  0.00  0.00    -0.391 OA
ATOM     27  H   UNL     1       9.727  -1.563   1.250  0.00  0.00    +0.210 HD
ENDBRANCH  24  26
ENDBRANCH  23  24
ENDBRANCH  14  23
TORSDOF 4
