REMARK  Name = ZINC09237881
REMARK  6 active torsions:
REMARK  status: ('A' for Active; 'I' for Inactive)
REMARK    1  A    between atoms: C_1  and  C_2
REMARK    2  A    between atoms: C_2  and  C_3
REMARK    3  A    between atoms: C_8  and  N_9
REMARK    4  A    between atoms: C_10  and  C_12
REMARK    5  A    between atoms: C_14  and  C_24
REMARK    6  A    between atoms: C_18  and  C_23
REMARK                            x       y       z     vdW  Elec       q    Type
REMARK                         _______ _______ _______ _____ _____    ______ ____
ROOT
ATOM      1  C   UNL     1      -2.569   4.140   0.252  0.00  0.00    +0.166 C 
ATOM      2  C   UNL     1      -2.369   5.443   1.037  0.00  0.00    +0.140 C 
ATOM      3  N   UNL     1      -3.661   6.019   1.411  0.00  0.00    -0.272 N 
ATOM      4  N   UNL     1      -4.458   6.310   0.351  0.00  0.00    -0.225 N 
ATOM      5  C   UNL     1      -5.502   7.189   0.309  0.00  0.00    +0.148 A 
ATOM      6  N   UNL     1      -6.000   7.143  -0.896  0.00  0.00    -0.132 NA
ATOM      7  N   UNL     1      -5.341   6.303  -1.617  0.00  0.00    -0.121 NA
ATOM      8  C   UNL     1      -4.388   5.772  -0.903  0.00  0.00    +0.209 A 
ATOM      9  S   UNL     1      -3.190   4.575  -1.401  0.00  0.00    -0.069 S 
ATOM     10  C   UNL     1      -5.989   8.051   1.445  0.00  0.00    +0.090 C 
ATOM     11  H   UNL     1      -3.539   6.826   2.004  0.00  0.00    +0.167 HD
ENDROOT
BRANCH   2  12
ATOM     12  C   UNL     1      -1.571   5.157   2.283  0.00  0.00    -0.024 A 
ATOM     13  C   UNL     1      -2.195   4.627   3.396  0.00  0.00    +0.005 A 
ATOM     14  C   UNL     1      -1.462   4.361   4.538  0.00  0.00    +0.000 A 
ATOM     15  C   UNL     1      -0.107   4.633   4.569  0.00  0.00    +0.000 A 
ATOM     16  C   UNL     1       0.516   5.168   3.456  0.00  0.00    +0.000 A 
ATOM     17  C   UNL     1      -0.216   5.430   2.314  0.00  0.00    +0.005 A 
ENDBRANCH   2  12
BRANCH   1  19
ATOM     18  N   UNL     1      -1.237   2.069   0.019  0.00  0.00    -0.284 N 
ATOM     19  C   UNL     1      -1.255   3.412   0.128  0.00  0.00    +0.233 C 
ATOM     20  O   UNL     1      -0.215   4.035   0.127  0.00  0.00    -0.274 OA
ATOM     21  H   UNL     1      -2.070   1.576  -0.045  0.00  0.00    +0.155 HD
BRANCH  18  27
ATOM     22  C   UNL     1       0.087   0.129   0.582  0.00  0.00    -0.026 A 
ATOM     23  C   UNL     1       1.292  -0.546   0.555  0.00  0.00    +0.005 A 
ATOM     24  C   UNL     1       2.394   0.028  -0.051  0.00  0.00    +0.000 A 
ATOM     25  C   UNL     1       2.294   1.279  -0.633  0.00  0.00    +0.002 A 
ATOM     26  C   UNL     1       1.093   1.959  -0.609  0.00  0.00    +0.023 A 
ATOM     27  C   UNL     1      -0.016   1.385  -0.001  0.00  0.00    +0.037 A 
BRANCH  22  29
ATOM     28  C   UNL     1      -1.958  -1.217   0.190  0.00  0.00    +0.009 C 
ATOM     29  C   UNL     1      -1.114  -0.497   1.243  0.00  0.00    +0.033 C 
ENDBRANCH  22  29
ENDBRANCH  18  27
ENDBRANCH   1  19
TORSDOF 4
