REMARK  Name = ZINC11381376
REMARK  13 active torsions:
REMARK  status: ('A' for Active; 'I' for Inactive)
REMARK    1  A    between atoms: C_1  and  C_2
REMARK    2  A    between atoms: C_2  and  N_68
REMARK    3  A    between atoms: C_3  and  C_4
REMARK    4  A    between atoms: C_3  and  N_68
REMARK    5  A    between atoms: C_5  and  C_7
REMARK    6  A    between atoms: C_5  and  C_28
REMARK    7  A    between atoms: C_5  and  N_68
REMARK    8  A    between atoms: C_7  and  N_8
REMARK    9  A    between atoms: C_9  and  C_11
REMARK   10  A    between atoms: C_11  and  C_12
REMARK   11  A    between atoms: C_12  and  C_13
REMARK   12  A    between atoms: C_32  and  O_34
REMARK   13  A    between atoms: O_34  and  C_35
REMARK                            x       y       z     vdW  Elec       q    Type
REMARK                         _______ _______ _______ _____ _____    ______ ____
ROOT
ATOM      1  N   UNL     1      -1.426   4.136  -0.032  0.00  0.00    -0.317 N 
ATOM      2  C   UNL     1      -1.573   4.772  -1.211  0.00  0.00    +0.213 C 
ATOM      3  O   UNL     1      -2.246   4.275  -2.088  0.00  0.00    -0.276 OA
ATOM      4  H   UNL     1      -0.888   4.535   0.670  0.00  0.00    +0.149 HD
ENDROOT
BRANCH   1   5
ATOM      5  C   UNL     1      -2.079   2.844   0.190  0.00  0.00    +0.093 C 
BRANCH   5   6
ATOM      6  C   UNL     1      -1.753   2.343   1.599  0.00  0.00    -0.020 C 
BRANCH   6   7
ATOM      7  C   UNL     1      -2.252   0.930   1.757  0.00  0.00    -0.056 A 
ATOM      8  C   UNL     1      -1.699  -0.087   1.001  0.00  0.00    +0.002 A 
ATOM      9  C   UNL     1      -2.151  -1.386   1.148  0.00  0.00    +0.004 A 
ATOM     10  C   UNL     1      -3.165  -1.668   2.043  0.00  0.00    +0.045 A 
ATOM     11  C   UNL     1      -3.725  -0.649   2.799  0.00  0.00    +0.120 A 
ATOM     12  C   UNL     1      -3.266   0.652   2.653  0.00  0.00    +0.047 A 
BRANCH  11  13
ATOM     13  O   UNL     1      -4.723  -0.924   3.680  0.00  0.00    -0.495 OA
ATOM     14  C   UNL     1      -5.145  -2.286   3.777  0.00  0.00    +0.277 C 
ENDBRANCH  11  13
ENDBRANCH   6   7
BRANCH   6  15
ATOM     15  N   UNL     1      -0.289   2.400   1.796  0.00  0.00    +0.385 N 
ATOM     16  H   UNL     1       0.054   3.315   1.483  0.00  0.00    -0.081 HD
BRANCH  15  18
ATOM     17  C   UNL     1       0.156   1.634  -0.484  0.00  0.00    -0.017 C 
ATOM     18  C   UNL     1       0.370   1.342   1.002  0.00  0.00    -0.081 C 
ENDBRANCH  15  18
BRANCH  15  19
ATOM     19  C   UNL     1       0.034   2.231   3.229  0.00  0.00    -0.081 C 
ATOM     20  C   UNL     1      -0.470   3.456   3.996  0.00  0.00    -0.017 C 
ENDBRANCH  15  19
ENDBRANCH   6  15
ENDBRANCH   5   6
ENDBRANCH   1   5
BRANCH   2  21
ATOM     21  C   UNL     1      -0.902   6.102  -1.439  0.00  0.00    +0.103 C 
BRANCH  21  22
ATOM     22  C   UNL     1      -1.228   6.603  -2.847  0.00  0.00    +0.083 C 
BRANCH  22  23
ATOM     23  C   UNL     1      -0.556   7.933  -3.075  0.00  0.00    +0.111 A 
ATOM     24  N   UNL     1      -0.712   8.563  -4.267  0.00  0.00    -0.310 N 
ATOM     25  H   UNL     1      -1.254   8.148  -4.957  0.00  0.00    +0.170 HD
ATOM     26  C   UNL     1      -0.130   9.752  -4.513  0.00  0.00    +0.260 A 
ATOM     27  O   UNL     1      -0.280  10.305  -5.589  0.00  0.00    -0.267 OA
ATOM     28  C   UNL     1       0.669  10.356  -3.488  0.00  0.00    +0.075 A 
ATOM     29  C   UNL     1       1.389  11.628  -3.530  0.00  0.00    -0.023 A 
ATOM     30  C   UNL     1       2.077  11.979  -2.422  0.00  0.00    -0.004 A 
ATOM     31  S   UNL     1       1.809  10.654  -1.276  0.00  0.00    -0.073 S 
ATOM     32  C   UNL     1       0.771   9.631  -2.290  0.00  0.00    +0.116 A 
ATOM     33  N   UNL     1       0.162   8.461  -2.120  0.00  0.00    -0.227 NA
ATOM     34  C   UNL     1       2.889  13.220  -2.214  0.00  0.00    +0.043 C 
ATOM     35  C   UNL     1       3.134  13.874  -3.582  0.00  0.00    +0.005 C 
ATOM     36  C   UNL     1       1.805  13.940  -4.340  0.00  0.00    +0.005 C 
ATOM     37  C   UNL     1       1.376  12.533  -4.759  0.00  0.00    +0.037 C 
ENDBRANCH  22  23
ENDBRANCH  21  22
ENDBRANCH   2  21
TORSDOF 10
