REMARK  Name = ZINC14742239
REMARK  7 active torsions:
REMARK  status: ('A' for Active; 'I' for Inactive)
REMARK    1  A    between atoms: C_2  and  C_3
REMARK    2  A    between atoms: C_3  and  N_4
REMARK    3  A    between atoms: C_7  and  C_9
REMARK    4  A    between atoms: C_19  and  N_74
REMARK    5  A    between atoms: C_23  and  C_24
REMARK    6  A    between atoms: C_23  and  N_74
REMARK    7  A    between atoms: C_24  and  C_30
REMARK                            x       y       z     vdW  Elec       q    Type
REMARK                         _______ _______ _______ _____ _____    ______ ____
ROOT
ATOM      1  N   UNL     1       0.005  11.211  -1.720  0.00  0.00    -0.264 N 
ATOM      2  C   UNL     1       0.285   9.950  -1.354  0.00  0.00    +0.043 A 
ATOM      3  C   UNL     1       0.659   9.281  -2.472  0.00  0.00    +0.004 A 
ATOM      4  C   UNL     1       0.583  10.212  -3.522  0.00  0.00    +0.151 A 
ATOM      5  N   UNL     1       0.182  11.353  -2.988  0.00  0.00    -0.166 NA
ATOM      6  C   UNL     1       1.062   7.833  -2.507  0.00  0.00    +0.023 C 
ATOM      7  C   UNL     1       1.369   7.384  -1.072  0.00  0.00    -0.067 C 
ATOM      8  C   UNL     1       0.220   7.799  -0.150  0.00  0.00    -0.009 C 
ATOM      9  C   UNL     1       0.217   9.324   0.016  0.00  0.00    +0.054 C 
ENDROOT
BRANCH   4  10
ATOM     10  C   UNL     1       0.891   9.964  -4.945  0.00  0.00    +0.267 C 
ATOM     11  O   UNL     1       1.318   8.881  -5.295  0.00  0.00    -0.268 OA
ATOM     12  N   UNL     1       0.699  10.939  -5.856  0.00  0.00    -0.296 N 
ATOM     13  C   UNL     1       0.307  12.252  -5.394  0.00  0.00    +0.108 C 
ATOM     14  C   UNL     1      -1.231  12.343  -5.315  0.00  0.00    +0.019 C 
ATOM     15  C   UNL     1      -1.810  12.378  -6.667  0.00  0.00    +0.002 C 
ATOM     16  C   UNL     1      -1.547  11.125  -7.496  0.00  0.00    +0.002 C 
ATOM     17  C   UNL     1      -0.203  11.244  -8.170  0.00  0.00    +0.019 C 
ATOM     18  C   UNL     1       0.891  10.620  -7.284  0.00  0.00    +0.108 C 
ENDBRANCH   4  10
BRANCH   7  19
ATOM     19  N   UNL     1       1.516   5.916  -1.046  0.00  0.00    +0.382 N 
ATOM     20  H   UNL     1       1.952   5.603  -1.921  0.00  0.00    -0.085 HD
ATOM     21  H   UNL     1       0.589   5.485  -0.952  0.00  0.00    -0.085 HD
BRANCH  19  22
ATOM     22  C   UNL     1       2.361   5.507   0.093  0.00  0.00    -0.071 C 
BRANCH  22  23
ATOM     23  C   UNL     1       2.605   3.998   0.018  0.00  0.00    -0.015 C 
ATOM     24  C   UNL     1       3.342   3.536   1.279  0.00  0.00    +0.038 C 
ATOM     25  C   UNL     1       2.455   3.788   2.501  0.00  0.00    +0.160 C 
ATOM     26  O   UNL     1       1.212   3.103   2.336  0.00  0.00    -0.380 OA
ATOM     27  C   UNL     1       0.457   3.530   1.200  0.00  0.00    +0.160 C 
ATOM     28  C   UNL     1       1.263   3.266  -0.074  0.00  0.00    +0.038 C 
BRANCH  23  29
ATOM     29  C   UNL     1       3.437   3.682  -1.197  0.00  0.00    -0.043 A 
ATOM     30  C   UNL     1       3.850   2.384  -1.434  0.00  0.00    +0.004 A 
ATOM     31  C   UNL     1       4.614   2.093  -2.549  0.00  0.00    +0.000 A 
ATOM     32  C   UNL     1       4.970   3.102  -3.425  0.00  0.00    +0.000 A 
ATOM     33  C   UNL     1       4.553   4.399  -3.191  0.00  0.00    +0.000 A 
ATOM     34  C   UNL     1       3.789   4.689  -2.076  0.00  0.00    +0.004 A 
ENDBRANCH  23  29
ENDBRANCH  22  23
ENDBRANCH  19  22
ENDBRANCH   7  19
BRANCH   1  35
ATOM     35  C   UNL     1      -0.437  12.271  -0.810  0.00  0.00    +0.170 C 
BRANCH  35  37
ATOM     36  C   UNL     1      -2.534  12.171   0.437  0.00  0.00    +0.006 C 
ATOM     37  C   UNL     1      -1.941  12.268  -0.728  0.00  0.00    -0.012 C 
ENDBRANCH  35  37
ENDBRANCH   1  35
TORSDOF 7
