REMARK  Name = ZINC09837954
REMARK  9 active torsions:
REMARK  status: ('A' for Active; 'I' for Inactive)
REMARK    1  A    between atoms: C_1  and  C_2
REMARK    2  A    between atoms: C_5  and  N_8
REMARK    3  A    between atoms: N_8  and  C_9
REMARK    4  A    between atoms: N_8  and  S_21
REMARK    5  A    between atoms: C_9  and  C_10
REMARK    6  A    between atoms: N_12  and  C_13
REMARK    7  A    between atoms: S_21  and  C_24
REMARK    8  A    between atoms: C_25  and  C_31
REMARK    9  A    between atoms: C_29  and  C_30
REMARK                            x       y       z     vdW  Elec       q    Type
REMARK                         _______ _______ _______ _____ _____    ______ ____
ROOT
ATOM      1  N   UNL     1      -0.567  -0.121   0.040  0.00  0.00    -0.194 N 
ENDROOT
BRANCH   1   6
ATOM      2  C   UNL     1      -0.284   4.803   2.837  0.00  0.00    +0.044 C 
ATOM      3  C   UNL     1      -0.359   3.495   2.094  0.00  0.00    -0.050 A 
ATOM      4  C   UNL     1       0.782   2.734   1.919  0.00  0.00    +0.005 A 
ATOM      5  C   UNL     1       0.717   1.534   1.239  0.00  0.00    +0.025 A 
ATOM      6  C   UNL     1      -0.497   1.092   0.729  0.00  0.00    +0.052 A 
ATOM      7  C   UNL     1      -1.641   1.861   0.902  0.00  0.00    +0.025 A 
ATOM      8  C   UNL     1      -1.570   3.057   1.589  0.00  0.00    +0.005 A 
ENDBRANCH   1   6
BRANCH   1   9
ATOM      9  S   UNL     1      -1.868  -1.123   0.256  0.00  0.00    +0.079 S 
ATOM     10  O   UNL     1      -2.884  -0.342   0.869  0.00  0.00    -0.150 OA
ATOM     11  O   UNL     1      -2.067  -1.801  -0.976  0.00  0.00    -0.150 OA
BRANCH   9  12
ATOM     12  C   UNL     1      -1.394  -2.346   1.433  0.00  0.00    +0.151 A 
ATOM     13  C   UNL     1      -1.469  -2.227   2.779  0.00  0.00    +0.060 A 
ATOM     14  N   UNL     1      -1.012  -3.376   3.319  0.00  0.00    -0.280 N 
ATOM     15  H   UNL     1      -0.948  -3.582   4.296  0.00  0.00    +0.189 HD
ATOM     16  N   UNL     1      -0.645  -4.229   2.271  0.00  0.00    -0.177 NA
ATOM     17  C   UNL     1      -0.880  -3.613   1.141  0.00  0.00    +0.087 A 
ATOM     18  C   UNL     1      -0.634  -4.171  -0.237  0.00  0.00    +0.069 C 
ATOM     19  C   UNL     1      -1.971  -1.026   3.538  0.00  0.00    +0.067 C 
ENDBRANCH   9  12
ENDBRANCH   1   9
BRANCH   1  20
ATOM     20  C   UNL     1       0.511  -0.507  -0.874  0.00  0.00    +0.227 C 
BRANCH  20  21
ATOM     21  C   UNL     1       1.613  -1.178  -0.096  0.00  0.00    +0.236 C 
ATOM     22  O   UNL     1       1.509  -1.320   1.104  0.00  0.00    -0.274 OA
ATOM     23  N   UNL     1       2.715  -1.621  -0.734  0.00  0.00    -0.284 N 
ATOM     24  H   UNL     1       2.788  -1.529  -1.697  0.00  0.00    +0.155 HD
BRANCH  23  25
ATOM     25  C   UNL     1       3.755  -2.213  -0.007  0.00  0.00    +0.035 A 
ATOM     26  C   UNL     1       4.479  -3.262  -0.558  0.00  0.00    +0.026 A 
ATOM     27  C   UNL     1       5.507  -3.842   0.159  0.00  0.00    +0.041 A 
ATOM     28  C   UNL     1       5.809  -3.386   1.431  0.00  0.00    +0.142 A 
ATOM     29  C   UNL     1       5.085  -2.344   1.985  0.00  0.00    +0.078 A 
ATOM     30  C   UNL     1       4.058  -1.757   1.269  0.00  0.00    +0.046 A 
ATOM     31 CL   UNL     1       5.466  -1.774   3.580  0.00  0.00    -0.081 Cl
ATOM     32  F   UNL     1       6.812  -3.959   2.132  0.00  0.00    -0.204 F 
ENDBRANCH  23  25
ENDBRANCH  20  21
ENDBRANCH   1  20
TORSDOF 6
