REMARK  Name = ZINC08962133
REMARK  7 active torsions:
REMARK  status: ('A' for Active; 'I' for Inactive)
REMARK    1  A    between atoms: C_1  and  C_2
REMARK    2  A    between atoms: C_2  and  C_3
REMARK    3  A    between atoms: C_10  and  N_16
REMARK    4  A    between atoms: N_16  and  S_17
REMARK    5  A    between atoms: S_17  and  C_20
REMARK    6  A    between atoms: C_23  and  O_27
REMARK    7  A    between atoms: O_27  and  C_28
REMARK                            x       y       z     vdW  Elec       q    Type
REMARK                         _______ _______ _______ _____ _____    ______ ____
ROOT
ATOM      1  C   UNL     1      -0.729   1.579   1.267  0.00  0.00    +0.110 C 
ATOM      2  C   UNL     1       0.030   1.098   2.496  0.00  0.00    +0.251 C 
ATOM      3  O   UNL     1      -0.187  -0.286   2.738  0.00  0.00    -0.489 OA
ATOM      4  C   UNL     1      -0.126  -1.119   1.667  0.00  0.00    +0.133 A 
ATOM      5  C   UNL     1       0.961  -1.955   1.477  0.00  0.00    +0.048 A 
ATOM      6  C   UNL     1       1.007  -2.788   0.376  0.00  0.00    +0.028 A 
ATOM      7  C   UNL     1      -0.033  -2.794  -0.548  0.00  0.00    +0.049 A 
ATOM      8  C   UNL     1      -1.128  -1.964  -0.369  0.00  0.00    +0.041 A 
ATOM      9  C   UNL     1      -1.181  -1.123   0.741  0.00  0.00    +0.080 A 
ATOM     10  C   UNL     1      -2.333  -0.230   0.965  0.00  0.00    +0.248 C 
ATOM     11  O   UNL     1      -3.470  -0.651   0.877  0.00  0.00    -0.270 OA
ATOM     12  N   UNL     1      -2.101   1.069   1.272  0.00  0.00    -0.305 N 
ATOM     13  H   UNL     1      -2.840   1.658   1.493  0.00  0.00    +0.149 HD
ENDROOT
BRANCH   1  15
ATOM     14  C   UNL     1       1.347   1.778  -0.110  0.00  0.00    +0.006 C 
ATOM     15  C   UNL     1      -0.013   1.086   0.008  0.00  0.00    +0.022 C 
ENDBRANCH   1  15
BRANCH   7  16
ATOM     16  N   UNL     1       0.026  -3.641  -1.660  0.00  0.00    -0.216 N 
ATOM     17  H   UNL     1      -0.207  -3.304  -2.539  0.00  0.00    +0.174 HD
BRANCH  16  18
ATOM     18  S   UNL     1       0.496  -5.219  -1.476  0.00  0.00    +0.072 S 
ATOM     19  O   UNL     1       0.430  -5.815  -2.764  0.00  0.00    -0.150 OA
ATOM     20  O   UNL     1       1.690  -5.199  -0.706  0.00  0.00    -0.150 OA
BRANCH  18  21
ATOM     21  C   UNL     1      -0.727  -6.014  -0.488  0.00  0.00    +0.111 A 
ATOM     22  C   UNL     1      -0.596  -6.035   0.888  0.00  0.00    +0.032 A 
ATOM     23  C   UNL     1      -1.556  -6.654   1.666  0.00  0.00    +0.050 A 
ATOM     24  C   UNL     1      -2.646  -7.265   1.065  0.00  0.00    +0.155 A 
ATOM     25  C   UNL     1      -2.773  -7.248  -0.318  0.00  0.00    +0.167 A 
ATOM     26  C   UNL     1      -1.812  -6.622  -1.092  0.00  0.00    +0.071 A 
ATOM     27  F   UNL     1      -3.834  -7.843  -0.907  0.00  0.00    -0.202 F 
BRANCH  24  28
ATOM     28  O   UNL     1      -3.589  -7.879   1.828  0.00  0.00    -0.492 OA
ATOM     29  C   UNL     1      -3.393  -7.857   3.244  0.00  0.00    +0.277 C 
ENDBRANCH  24  28
ENDBRANCH  18  21
ENDBRANCH  16  18
ENDBRANCH   7  16
TORSDOF 5
