REMARK  Name = ZINC00336828
REMARK  3 active torsions:
REMARK  status: ('A' for Active; 'I' for Inactive)
REMARK    1  A    between atoms: N_3  and  C_10
REMARK    2  A    between atoms: N_14  and  C_17
REMARK    3  A    between atoms: C_17  and  C_18
REMARK                            x       y       z     vdW  Elec       q    Type
REMARK                         _______ _______ _______ _____ _____    ______ ____
ROOT
ATOM      1  C   UNL     1       2.254   4.732   3.203  0.00  0.00    +0.088 A 
ATOM      2  C   UNL     1       1.497   4.057   2.311  0.00  0.00    +0.097 A 
ATOM      3  N   UNL     1       1.506   4.431   0.994  0.00  0.00    -0.289 N 
ATOM      4  C   UNL     1       2.254   5.470   0.582  0.00  0.00    +0.330 A 
ATOM      5  O   UNL     1       2.244   5.788  -0.591  0.00  0.00    -0.246 OA
ATOM      6  N   UNL     1       3.013   6.164   1.451  0.00  0.00    -0.275 N 
ATOM      7  H   UNL     1       3.563   6.934   1.127  0.00  0.00    +0.173 HD
ATOM      8  C   UNL     1       3.036   5.824   2.756  0.00  0.00    +0.254 A 
ATOM      9  O   UNL     1       3.723   6.451   3.542  0.00  0.00    -0.268 OA
ENDROOT
BRANCH   3  10
ATOM     10  C   UNL     1       0.690   3.695   0.025  0.00  0.00    +0.179 C 
ATOM     11  C   UNL     1      -0.792   3.684   0.465  0.00  0.00    +0.053 C 
ATOM     12  C   UNL     1      -1.241   2.272   0.020  0.00  0.00    +0.110 C 
ATOM     13  N   UNL     1      -0.018   1.461   0.010  0.00  0.00    -0.299 N 
ATOM     14  C   UNL     1       1.081   2.234   0.004  0.00  0.00    +0.239 C 
ATOM     15  O   UNL     1       2.222   1.821  -0.016  0.00  0.00    -0.273 OA
BRANCH  13  16
ATOM     16  C   UNL     1       0.002  -0.004   0.002  0.00  0.00    +0.123 C 
BRANCH  16  17
ATOM     17  C   UNL     1       0.022  -0.522   1.442  0.00  0.00    +0.127 C 
ATOM     18 CL   UNL     1       0.047  -2.325   1.432  0.00  0.00    -0.124 Cl
ENDBRANCH  16  17
ENDBRANCH  13  16
ENDBRANCH   3  10
TORSDOF 3
