REMARK  Name = ZINC12244075
REMARK  10 active torsions:
REMARK  status: ('A' for Active; 'I' for Inactive)
REMARK    1  A    between atoms: C_1  and  C_2
REMARK    2  A    between atoms: C_2  and  C_6
REMARK    3  A    between atoms: C_6  and  N_56
REMARK    4  A    between atoms: C_7  and  C_8
REMARK    5  A    between atoms: C_7  and  N_56
REMARK    6  A    between atoms: C_13  and  S_30
REMARK    7  A    between atoms: C_17  and  O_18
REMARK    8  A    between atoms: O_18  and  C_19
REMARK    9  A    between atoms: C_19  and  C_20
REMARK   10  A    between atoms: S_30  and  C_31
REMARK                            x       y       z     vdW  Elec       q    Type
REMARK                         _______ _______ _______ _____ _____    ______ ____
ROOT
ATOM      1  C   UNL     1       1.175   2.067   0.002  0.00  0.00    -0.002 A 
ATOM      2  C   UNL     1      -0.017   1.404   0.010  0.00  0.00    +0.017 A 
ATOM      3  C   UNL     1       0.002  -0.004   0.002  0.00  0.00    +0.001 A 
ATOM      4  C   UNL     1      -1.191  -0.747   0.010  0.00  0.00    +0.011 A 
ATOM      5  C   UNL     1      -1.143  -2.105   0.002  0.00  0.00    +0.015 A 
ATOM      6  C   UNL     1       0.085  -2.779  -0.014  0.00  0.00    +0.010 A 
ATOM      7  C   UNL     1       1.273  -2.078  -0.021  0.00  0.00    +0.043 A 
ATOM      8  C   UNL     1       1.250  -0.675  -0.013  0.00  0.00    +0.076 A 
ATOM      9  N   UNL     1       2.387   0.030  -0.020  0.00  0.00    -0.213 NA
ATOM     10  C   UNL     1       2.374   1.347  -0.013  0.00  0.00    +0.217 A 
ENDROOT
BRANCH   6  11
ATOM     11  S   UNL     1       0.112  -4.541  -0.023  0.00  0.00    -0.129 S 
ATOM     12  C   UNL     1      -1.641  -5.007  -0.009  0.00  0.00    +0.090 C 
ENDBRANCH   6  11
BRANCH   1  13
ATOM     13  C   UNL     1       1.200   3.574   0.010  0.00  0.00    -0.041 C 
BRANCH  13  14
ATOM     14  N   UNL     1       1.437   4.060  -1.362  0.00  0.00    +0.382 N 
ATOM     15  H   UNL     1       2.337   3.699  -1.700  0.00  0.00    -0.085 HD
ATOM     16  H   UNL     1       0.683   3.728  -1.975  0.00  0.00    -0.085 HD
BRANCH  14  17
ATOM     17  C   UNL     1       1.467   5.535  -1.385  0.00  0.00    -0.071 C 
BRANCH  17  19
ATOM     18  C   UNL     1       0.772   5.360  -3.834  0.00  0.00    +0.014 C 
ATOM     19  C   UNL     1       1.714   6.010  -2.818  0.00  0.00    -0.000 C 
ATOM     20  C   UNL     1       3.196   5.981  -3.236  0.00  0.00    +0.166 C 
ATOM     21  O   UNL     1       2.934   7.272  -3.828  0.00  0.00    -0.379 OA
ATOM     22  C   UNL     1       1.817   7.540  -2.957  0.00  0.00    +0.166 C 
ENDBRANCH  17  19
ENDBRANCH  14  17
ENDBRANCH  13  14
ENDBRANCH   1  13
BRANCH  10  23
ATOM     23  O   UNL     1       3.551   2.020  -0.020  0.00  0.00    -0.471 OA
BRANCH  23  24
ATOM     24  C   UNL     1       4.746   1.238  -0.035  0.00  0.00    +0.267 C 
BRANCH  24  25
ATOM     25  C   UNL     1       5.945   2.151  -0.042  0.00  0.00    +0.012 A 
ATOM     26  C   UNL     1       5.767   3.522  -0.038  0.00  0.00    +0.058 A 
ATOM     27  C   UNL     1       6.867   4.364  -0.039  0.00  0.00    +0.167 A 
ATOM     28  C   UNL     1       8.152   3.826  -0.054  0.00  0.00    +0.168 A 
ATOM     29  C   UNL     1       8.323   2.452  -0.062  0.00  0.00    +0.070 A 
ATOM     30  C   UNL     1       7.220   1.616  -0.057  0.00  0.00    +0.051 A 
ATOM     31 CL   UNL     1       7.438  -0.106  -0.068  0.00  0.00    -0.083 Cl
ATOM     32  O   UNL     1       9.054   4.851  -0.058  0.00  0.00    -0.453 OA
ATOM     33  C   UNL     1       8.318   6.013   0.367  0.00  0.00    +0.466 C 
ATOM     34  O   UNL     1       6.965   5.726  -0.034  0.00  0.00    -0.453 OA
ENDBRANCH  24  25
ENDBRANCH  23  24
ENDBRANCH  10  23
TORSDOF 8
