REMARK  Name = ZINC48642409
REMARK  4 active torsions:
REMARK  status: ('A' for Active; 'I' for Inactive)
REMARK    1  A    between atoms: C_1  and  C_2
REMARK    2  A    between atoms: C_2  and  C_3
REMARK    3  A    between atoms: C_7  and  N_12
REMARK    4  A    between atoms: C_15  and  C_20
REMARK                            x       y       z     vdW  Elec       q    Type
REMARK                         _______ _______ _______ _____ _____    ______ ____
ROOT
ATOM      1  C   UNL     1       0.695  -0.560  -1.218  0.00  0.00    +0.196 A 
ATOM      2  N   UNL     1       1.966  -0.818  -1.297  0.00  0.00    -0.213 NA
ATOM      3  C   UNL     1       2.258  -1.200  -2.570  0.00  0.00    +0.111 A 
ATOM      4  C   UNL     1       3.433  -1.585  -3.216  0.00  0.00    +0.055 A 
ATOM      5  C   UNL     1       3.399  -1.923  -4.556  0.00  0.00    +0.045 A 
ATOM      6  C   UNL     1       2.198  -1.879  -5.261  0.00  0.00    +0.027 A 
ATOM      7  C   UNL     1       1.033  -1.499  -4.630  0.00  0.00    +0.050 A 
ATOM      8  C   UNL     1       1.052  -1.158  -3.286  0.00  0.00    +0.155 A 
ATOM      9  O   UNL     1       0.105  -0.760  -2.407  0.00  0.00    -0.440 OA
ENDROOT
BRANCH   5  10
ATOM     10  N   UNL     1       4.579  -2.311  -5.209  0.00  0.00    -0.220 N 
ATOM     11  C   UNL     1       4.812  -3.554  -5.676  0.00  0.00    +0.245 C 
ATOM     12  O   UNL     1       4.070  -4.511  -5.614  0.00  0.00    -0.273 OA
ATOM     13  C   UNL     1       6.194  -3.505  -6.297  0.00  0.00    +0.156 C 
ATOM     14  N   UNL     1       6.619  -2.110  -6.088  0.00  0.00    -0.315 N 
ATOM     15  C   UNL     1       5.608  -1.492  -5.451  0.00  0.00    +0.144 C 
ATOM     16  S   UNL     1       5.639   0.158  -4.995  0.00  0.00    -0.018 S 
ATOM     17  C   UNL     1       7.139  -4.472  -5.582  0.00  0.00    +0.038 C 
ATOM     18  H   UNL     1       7.461  -1.714  -6.360  0.00  0.00    +0.148 HD
ENDBRANCH   5  10
BRANCH   1  20
ATOM     19  C   UNL     1      -0.005   1.423   0.097  0.00  0.00    +0.013 C 
ATOM     20  C   UNL     1      -0.016  -0.106   0.030  0.00  0.00    +0.093 C 
ENDBRANCH   1  20
TORSDOF 2
