REMARK  Name = ZINC19660945
REMARK  9 active torsions:
REMARK  status: ('A' for Active; 'I' for Inactive)
REMARK    1  A    between atoms: C_1  and  C_2
REMARK    2  A    between atoms: C_2  and  N_3
REMARK    3  A    between atoms: C_4  and  C_30
REMARK    4  A    between atoms: C_5  and  C_9
REMARK    5  A    between atoms: C_6  and  C_8
REMARK    6  A    between atoms: C_11  and  C_15
REMARK    7  A    between atoms: C_20  and  C_22
REMARK    8  A    between atoms: C_20  and  O_29
REMARK    9  A    between atoms: C_25  and  C_28
REMARK                            x       y       z     vdW  Elec       q    Type
REMARK                         _______ _______ _______ _____ _____    ______ ____
ROOT
ATOM      1  C   UNL     1      -4.678   1.184  -2.918  0.00  0.00    +0.264 C 
ATOM      2  O   UNL     1      -3.888   0.598  -3.634  0.00  0.00    -0.268 OA
ATOM      3  N   UNL     1      -5.902   1.502  -3.383  0.00  0.00    -0.293 N 
ATOM      4  C   UNL     1      -6.375   1.300  -4.765  0.00  0.00    +0.111 C 
ATOM      5  C   UNL     1      -7.920   1.219  -4.644  0.00  0.00    +0.060 C 
ATOM      6  C   UNL     1      -8.199   2.269  -3.537  0.00  0.00    +0.108 C 
ATOM      7  C   UNL     1      -6.984   2.114  -2.599  0.00  0.00    +0.147 C 
ENDROOT
BRANCH   6   8
ATOM      8  C   UNL     1      -9.479   1.949  -2.809  0.00  0.00    -0.015 A 
ATOM      9  C   UNL     1      -9.626   0.732  -2.172  0.00  0.00    +0.007 A 
ATOM     10  C   UNL     1     -10.799   0.440  -1.501  0.00  0.00    +0.004 A 
ATOM     11  C   UNL     1     -11.828   1.362  -1.475  0.00  0.00    -0.050 A 
ATOM     12  C   UNL     1     -11.683   2.578  -2.116  0.00  0.00    +0.004 A 
ATOM     13  C   UNL     1     -10.509   2.872  -2.784  0.00  0.00    +0.007 A 
ATOM     14  C   UNL     1     -13.108   1.043  -0.746  0.00  0.00    +0.044 C 
ENDBRANCH   6   8
BRANCH   1  17
ATOM     15  C   UNL     1      -3.192   1.875   0.351  0.00  0.00    +0.097 A 
ATOM     16  C   UNL     1      -3.053   1.386  -0.960  0.00  0.00    +0.062 A 
ATOM     17  C   UNL     1      -4.296   1.545  -1.543  0.00  0.00    +0.121 A 
ATOM     18  N   UNL     1      -5.101   2.103  -0.591  0.00  0.00    -0.272 N 
ATOM     19  H   UNL     1      -6.151   2.332  -0.823  0.00  0.00    +0.189 HD
ATOM     20  N   UNL     1      -4.436   2.277   0.495  0.00  0.00    -0.173 NA
BRANCH  15  23
ATOM     21  N   UNL     1      -1.063   1.735   3.291  0.00  0.00    -0.268 N 
ATOM     22  C   UNL     1      -2.250   1.522   2.685  0.00  0.00    +0.046 A 
ATOM     23  C   UNL     1      -2.128   1.923   1.387  0.00  0.00    +0.045 A 
ATOM     24  C   UNL     1      -0.811   2.387   1.207  0.00  0.00    +0.069 A 
ATOM     25  N   UNL     1      -0.182   2.275   2.347  0.00  0.00    -0.176 NA
ATOM     26  C   UNL     1      -0.231   2.925  -0.076  0.00  0.00    +0.068 C 
ATOM     27  C   UNL     1      -3.487   0.950   3.328  0.00  0.00    +0.066 C 
BRANCH  21  29
ATOM     28  C   UNL     1      -1.067   2.679   5.547  0.00  0.00    +0.029 C 
ATOM     29  C   UNL     1      -0.751   1.449   4.693  0.00  0.00    +0.140 C 
ENDBRANCH  21  29
ENDBRANCH  15  23
ENDBRANCH   1  17
BRANCH   6  30
ATOM     30  O   UNL     1      -8.248   3.587  -4.087  0.00  0.00    -0.382 OA
ATOM     31  H   UNL     1      -8.438   4.450  -3.432  0.00  0.00    +0.211 HD
ENDBRANCH   6  30
TORSDOF 5
