REMARK  Name = ZINC50082571
REMARK  8 active torsions:
REMARK  status: ('A' for Active; 'I' for Inactive)
REMARK    1  A    between atoms: C_1  and  C_2
REMARK    2  A    between atoms: N_5  and  C_11
REMARK    3  A    between atoms: C_7  and  C_10
REMARK    4  A    between atoms: C_14  and  N_17
REMARK    5  A    between atoms: N_20  and  C_21
REMARK    6  A    between atoms: C_21  and  C_22
REMARK    7  A    between atoms: N_28  and  C_29
REMARK    8  A    between atoms: N_28  and  C_30
REMARK                            x       y       z     vdW  Elec       q    Type
REMARK                         _______ _______ _______ _____ _____    ______ ____
ROOT
ATOM      1  N   UNL     1      -4.197  -5.362  -3.220  0.00  0.00    -0.269 N 
ATOM      2  C   UNL     1      -4.412  -5.016  -4.505  0.00  0.00    +0.304 C 
ATOM      3  O   UNL     1      -3.916  -4.000  -4.952  0.00  0.00    -0.252 OA
ATOM      4  N   UNL     1      -5.177  -5.796  -5.293  0.00  0.00    -0.295 N 
ATOM      5  H   UNL     1      -4.524  -6.212  -2.885  0.00  0.00    +0.156 HD
ATOM      6  H   UNL     1      -5.573  -6.607  -4.937  0.00  0.00    +0.151 HD
ENDROOT
BRANCH   1  10
ATOM      7  C   UNL     1      -2.123  -2.781  -0.683  0.00  0.00    +0.030 A 
ATOM      8  C   UNL     1      -2.955  -2.266  -1.669  0.00  0.00    +0.025 A 
ATOM      9  C   UNL     1      -3.642  -3.121  -2.508  0.00  0.00    +0.025 A 
ATOM     10  C   UNL     1      -3.500  -4.495  -2.368  0.00  0.00    +0.035 A 
ATOM     11  C   UNL     1      -2.668  -5.009  -1.382  0.00  0.00    +0.025 A 
ATOM     12  C   UNL     1      -1.977  -4.155  -0.546  0.00  0.00    +0.025 A 
BRANCH   7  16
ATOM     13  C   UNL     1      -0.088  -2.058   3.703  0.00  0.00    +0.039 C 
ATOM     14  C   UNL     1      -1.032  -1.677   2.561  0.00  0.00    +0.133 C 
ATOM     15  C   UNL     1      -0.630  -2.434   1.290  0.00  0.00    +0.136 C 
ATOM     16  N   UNL     1      -1.428  -1.915   0.168  0.00  0.00    -0.325 N 
ATOM     17  C   UNL     1      -1.473  -0.458  -0.032  0.00  0.00    +0.136 C 
ATOM     18  C   UNL     1      -1.835   0.203   1.303  0.00  0.00    +0.133 C 
ATOM     19  O   UNL     1      -0.948  -0.271   2.319  0.00  0.00    -0.371 OA
ATOM     20  C   UNL     1      -1.702   1.722   1.175  0.00  0.00    +0.039 C 
ENDBRANCH   7  16
ENDBRANCH   1  10
BRANCH   4  21
ATOM     21  C   UNL     1      -5.411  -5.420  -6.690  0.00  0.00    +0.141 C 
BRANCH  21  22
ATOM     22  C   UNL     1      -6.292  -6.451  -7.347  0.00  0.00    -0.026 A 
ATOM     23  C   UNL     1      -5.739  -7.557  -7.980  0.00  0.00    +0.023 A 
ATOM     24  C   UNL     1      -6.573  -8.484  -8.572  0.00  0.00    +0.084 A 
ATOM     25  N   UNL     1      -7.884  -8.331  -8.544  0.00  0.00    -0.350 N 
ATOM     26  C   UNL     1      -8.448  -7.291  -7.951  0.00  0.00    +0.098 A 
ATOM     27  C   UNL     1      -7.668  -6.321  -7.329  0.00  0.00    +0.047 A 
ATOM     28  N   UNL     1      -9.833  -7.169  -7.945  0.00  0.00    -0.323 N 
ATOM     29  C   UNL     1     -10.655  -8.123  -8.693  0.00  0.00    +0.130 C 
ATOM     30  C   UNL     1     -10.470  -6.087  -7.190  0.00  0.00    +0.130 C 
ATOM     31  H   UNL     1      -8.447  -8.997  -8.968  0.00  0.00    +0.166 HD
ENDBRANCH  21  22
ENDBRANCH   4  21
TORSDOF 4
