REMARK  Name = ZINC04879267
REMARK  6 active torsions:
REMARK  status: ('A' for Active; 'I' for Inactive)
REMARK    1  A    between atoms: C_1  and  C_2
REMARK    2  A    between atoms: C_2  and  C_30
REMARK    3  A    between atoms: C_13  and  C_15
REMARK    4  A    between atoms: C_15  and  S_16
REMARK    5  A    between atoms: S_16  and  C_17
REMARK    6  A    between atoms: C_19  and  C_23
REMARK                            x       y       z     vdW  Elec       q    Type
REMARK                         _______ _______ _______ _____ _____    ______ ____
ROOT
ATOM      1  C   UNL     1       0.002   1.577   0.026  0.00  0.00    +0.042 C 
ATOM      2  C   UNL     1      -0.194   0.069   0.202  0.00  0.00    +0.113 C 
ATOM      3  C   UNL     1      -1.638  -0.216   0.527  0.00  0.00    +0.241 C 
ATOM      4  O   UNL     1      -2.506   0.506   0.085  0.00  0.00    -0.273 OA
ATOM      5  N   UNL     1      -1.975  -1.264   1.303  0.00  0.00    -0.282 N 
ATOM      6  C   UNL     1      -0.991  -2.083   1.866  0.00  0.00    +0.055 A 
ATOM      7  C   UNL     1      -1.320  -3.313   2.414  0.00  0.00    +0.025 A 
ATOM      8  C   UNL     1      -0.332  -4.105   2.970  0.00  0.00    +0.002 A 
ATOM      9  C   UNL     1       0.983  -3.677   2.983  0.00  0.00    +0.002 A 
ATOM     10  C   UNL     1       1.321  -2.451   2.437  0.00  0.00    +0.025 A 
ATOM     11  C   UNL     1       0.338  -1.655   1.877  0.00  0.00    +0.059 A 
ATOM     12  N   UNL     1       0.650  -0.411   1.306  0.00  0.00    -0.255 N 
ATOM     13  C   UNL     1       1.691   0.318   1.753  0.00  0.00    +0.231 C 
ATOM     14  O   UNL     1       1.903   1.419   1.292  0.00  0.00    -0.274 OA
ATOM     15  C   UNL     1       0.194  -0.651  -1.091  0.00  0.00    +0.042 C 
ATOM     16  H   UNL     1      -2.911  -1.453   1.473  0.00  0.00    +0.155 HD
ENDROOT
BRANCH  13  17
ATOM     17  C   UNL     1       2.592  -0.234   2.828  0.00  0.00    +0.173 C 
BRANCH  17  18
ATOM     18  S   UNL     1       3.542   1.118   3.575  0.00  0.00    -0.077 S 
BRANCH  18  19
ATOM     19  C   UNL     1       4.532   0.320   4.795  0.00  0.00    +0.185 A 
ATOM     20  N   UNL     1       4.542  -0.968   5.061  0.00  0.00    -0.201 NA
ATOM     21  C   UNL     1       5.416  -1.218   6.047  0.00  0.00    +0.185 A 
ATOM     22  N   UNL     1       5.973  -0.087   6.418  0.00  0.00    -0.151 NA
ATOM     23  H   UNL     1       5.632   1.870   5.647  0.00  0.00    +0.191 HD
ATOM     24  N   UNL     1       5.420   0.924   5.616  0.00  0.00    -0.253 N 
BRANCH  21  25
ATOM     25  C   UNL     1       5.706  -2.553   6.624  0.00  0.00    +0.056 A 
ATOM     26  C   UNL     1       5.050  -3.683   6.138  0.00  0.00    +0.014 A 
ATOM     27  C   UNL     1       5.324  -4.923   6.678  0.00  0.00    +0.001 A 
ATOM     28  C   UNL     1       6.248  -5.047   7.701  0.00  0.00    +0.003 A 
ATOM     29  C   UNL     1       6.903  -3.931   8.188  0.00  0.00    +0.039 A 
ATOM     30  C   UNL     1       6.641  -2.684   7.651  0.00  0.00    +0.134 A 
ATOM     31  F   UNL     1       7.286  -1.595   8.123  0.00  0.00    -0.205 F 
ENDBRANCH  21  25
ENDBRANCH  18  19
ENDBRANCH  17  18
ENDBRANCH  13  17
TORSDOF 4
