REMARK  Name = ZINC35426048
REMARK  6 active torsions:
REMARK  status: ('A' for Active; 'I' for Inactive)
REMARK    1  A    between atoms: C_3  and  C_26
REMARK    2  A    between atoms: C_6  and  C_7
REMARK    3  A    between atoms: C_7  and  N_8
REMARK    4  A    between atoms: C_12  and  C_14
REMARK    5  A    between atoms: C_16  and  C_19
REMARK    6  A    between atoms: C_24  and  N_25
REMARK                            x       y       z     vdW  Elec       q    Type
REMARK                         _______ _______ _______ _____ _____    ______ ____
ROOT
ATOM      1  N   UNL     1      -1.727  -1.018  -1.371  0.00  0.00    +0.390 N 
ATOM      2  C   UNL     1      -2.065   0.266  -2.020  0.00  0.00    -0.077 C 
ATOM      3  C   UNL     1      -3.271  -0.058  -2.937  0.00  0.00    -0.020 C 
ATOM      4  C   UNL     1      -4.052  -1.086  -2.075  0.00  0.00    -0.008 C 
ATOM      5  C   UNL     1      -2.928  -1.874  -1.371  0.00  0.00    +0.022 C 
ATOM      6  H   UNL     1      -0.987  -1.472  -1.886  0.00  0.00    -0.080 HD
ENDROOT
BRANCH   5   7
ATOM      7  C   UNL     1      -2.648  -3.150  -2.123  0.00  0.00    +0.214 A 
ATOM      8  N   UNL     1      -2.978  -4.349  -1.736  0.00  0.00    -0.193 NA
ATOM      9  C   UNL     1      -2.575  -5.254  -2.646  0.00  0.00    +0.207 A 
ATOM     10  N   UNL     1      -1.979  -4.623  -3.628  0.00  0.00    -0.056 NA
ATOM     11  O   UNL     1      -2.023  -3.242  -3.304  0.00  0.00    -0.339 OA
BRANCH   9  12
ATOM     12  C   UNL     1      -2.772  -6.721  -2.554  0.00  0.00    +0.080 A 
ATOM     13  C   UNL     1      -3.428  -7.289  -1.463  0.00  0.00    +0.127 A 
ATOM     14  N   UNL     1      -3.583  -8.602  -1.419  0.00  0.00    -0.243 NA
ATOM     15  C   UNL     1      -3.129  -9.375  -2.387  0.00  0.00    +0.223 A 
ATOM     16  N   UNL     1      -2.503  -8.887  -3.438  0.00  0.00    -0.220 NA
ATOM     17  C   UNL     1      -2.308  -7.579  -3.568  0.00  0.00    +0.130 A 
BRANCH  17  18
ATOM     18  N   UNL     1      -1.657  -7.071  -4.676  0.00  0.00    -0.342 N 
ATOM     19  H   UNL     1      -1.515  -6.115  -4.760  0.00  0.00    +0.144 HD
ATOM     20  H   UNL     1      -1.340  -7.670  -5.370  0.00  0.00    +0.144 HD
ENDBRANCH  17  18
ENDBRANCH   9  12
ENDBRANCH   5   7
BRANCH   1  21
ATOM     21  C   UNL     1      -1.293  -0.775   0.011  0.00  0.00    -0.042 C 
BRANCH  21  27
ATOM     22  C   UNL     1      -0.017   1.378   0.010  0.00  0.00    +0.002 A 
ATOM     23  C   UNL     1       1.171   2.086   0.002  0.00  0.00    +0.012 A 
ATOM     24  C   UNL     1       2.377   1.411  -0.013  0.00  0.00    +0.055 A 
ATOM     25  C   UNL     1       2.396   0.029  -0.020  0.00  0.00    +0.012 A 
ATOM     26  C   UNL     1       1.208  -0.679  -0.012  0.00  0.00    +0.002 A 
ATOM     27  C   UNL     1       0.002  -0.004   0.002  0.00  0.00    -0.064 A 
BRANCH  24  28
ATOM     28  C   UNL     1       3.672   2.182  -0.022  0.00  0.00    +0.417 C 
ATOM     29  F   UNL     1       4.086   2.414   1.294  0.00  0.00    -0.166 F 
ATOM     30  F   UNL     1       4.651   1.442  -0.695  0.00  0.00    -0.166 F 
ATOM     31  F   UNL     1       3.482   3.405  -0.674  0.00  0.00    -0.166 F 
ENDBRANCH  24  28
ENDBRANCH  21  27
ENDBRANCH   1  21
TORSDOF 6
