REMARK  Name = ZINC08431273
REMARK  16 active torsions:
REMARK  status: ('A' for Active; 'I' for Inactive)
REMARK    1  A    between atoms: C_1  and  C_2
REMARK    2  A    between atoms: C_2  and  C_3
REMARK    3  A    between atoms: C_3  and  C_21
REMARK    4  A    between atoms: C_4  and  C_5
REMARK    5  A    between atoms: C_4  and  C_13
REMARK    6  A    between atoms: C_8  and  O_11
REMARK    7  A    between atoms: O_11  and  C_12
REMARK    8  A    between atoms: C_16  and  O_19
REMARK    9  A    between atoms: O_19  and  C_20
REMARK   10  A    between atoms: N_23  and  C_30
REMARK   11  A    between atoms: C_30  and  C_31
REMARK   12  A    between atoms: C_31  and  C_33
REMARK   13  A    between atoms: C_31  and  O_36
REMARK   14  A    between atoms: C_33  and  N_72
REMARK   15  A    between atoms: C_34  and  N_72
REMARK   16  A    between atoms: C_35  and  N_72
REMARK                            x       y       z     vdW  Elec       q    Type
REMARK                         _______ _______ _______ _____ _____    ______ ____
ROOT
ATOM      1  C   UNL     1      -0.149   0.045   0.113  0.00  0.00    -0.030 C 
ATOM      2  C   UNL     1      -0.996  -0.653  -0.686  0.00  0.00    -0.007 C 
ENDROOT
BRANCH   1   3
ATOM      3  C   UNL     1       0.925  -0.653   0.830  0.00  0.00    +0.004 A 
ATOM      4  C   UNL     1       2.083  -1.132   0.297  0.00  0.00    +0.095 A 
ATOM      5  N   UNL     1       2.831  -1.717   1.276  0.00  0.00    -0.344 N 
ATOM      6  C   UNL     1       2.179  -1.637   2.488  0.00  0.00    +0.050 A 
ATOM      7  C   UNL     1       0.964  -0.966   2.271  0.00  0.00    +0.007 A 
ATOM      8  C   UNL     1       0.088  -0.746   3.331  0.00  0.00    +0.010 A 
ATOM      9  C   UNL     1       0.424  -1.181   4.595  0.00  0.00    +0.001 A 
ATOM     10  C   UNL     1       1.626  -1.839   4.812  0.00  0.00    +0.002 A 
ATOM     11  C   UNL     1       2.500  -2.068   3.772  0.00  0.00    +0.026 A 
BRANCH   5  12
ATOM     12  C   UNL     1       4.141  -2.341   1.070  0.00  0.00    +0.151 C 
BRANCH  12  13
ATOM     13  C   UNL     1       3.962  -3.845   0.858  0.00  0.00    +0.118 C 
BRANCH  13  14
ATOM     14  O   UNL     1       3.446  -4.436   2.052  0.00  0.00    -0.392 OA
ATOM     15  H   UNL     1       4.016  -4.322   2.825  0.00  0.00    +0.210 HD
ENDBRANCH  13  14
BRANCH  13  16
ATOM     16  C   UNL     1       5.313  -4.477   0.519  0.00  0.00    -0.046 C 
BRANCH  16  19
ATOM     17  C   UNL     1       4.342  -6.059  -1.035  0.00  0.00    -0.096 C 
ATOM     18  C   UNL     1       6.413  -6.593   0.100  0.00  0.00    -0.096 C 
ATOM     19  N   UNL     1       5.108  -5.910   0.220  0.00  0.00    +0.378 N 
ATOM     20  H   UNL     1       4.577  -6.338   0.988  0.00  0.00    -0.083 HD
ENDBRANCH  16  19
ENDBRANCH  13  16
ENDBRANCH  12  13
ENDBRANCH   5  12
ENDBRANCH   1   3
BRANCH   2  21
ATOM     21  C   UNL     1      -0.919  -2.129  -0.736  0.00  0.00    -0.017 A 
ATOM     22  C   UNL     1       0.220  -2.754  -1.249  0.00  0.00    +0.012 A 
ATOM     23  C   UNL     1       0.290  -4.130  -1.289  0.00  0.00    +0.046 A 
ATOM     24  C   UNL     1      -0.774  -4.895  -0.830  0.00  0.00    +0.120 A 
ATOM     25  C   UNL     1      -1.910  -4.278  -0.323  0.00  0.00    +0.046 A 
ATOM     26  C   UNL     1      -1.986  -2.902  -0.275  0.00  0.00    +0.012 A 
BRANCH  24  27
ATOM     27  O   UNL     1      -0.703  -6.251  -0.875  0.00  0.00    -0.495 OA
ATOM     28  C   UNL     1       0.494  -6.821  -1.408  0.00  0.00    +0.277 C 
ENDBRANCH  24  27
ENDBRANCH   2  21
BRANCH   2  29
ATOM     29  C   UNL     1      -1.997   0.063  -1.507  0.00  0.00    -0.017 A 
ATOM     30  C   UNL     1      -3.357  -0.060  -1.218  0.00  0.00    +0.012 A 
ATOM     31  C   UNL     1      -4.286   0.612  -1.983  0.00  0.00    +0.046 A 
ATOM     32  C   UNL     1      -3.872   1.403  -3.046  0.00  0.00    +0.120 A 
ATOM     33  C   UNL     1      -2.520   1.524  -3.340  0.00  0.00    +0.046 A 
ATOM     34  C   UNL     1      -1.584   0.859  -2.577  0.00  0.00    +0.012 A 
BRANCH  32  35
ATOM     35  O   UNL     1      -4.791   2.061  -3.801  0.00  0.00    -0.495 OA
ATOM     36  C   UNL     1      -6.164   1.892  -3.443  0.00  0.00    +0.277 C 
ENDBRANCH  32  35
ENDBRANCH   2  29
BRANCH   1  38
ATOM     37  C   UNL     1      -1.168   1.834   1.495  0.00  0.00    +0.009 C 
ATOM     38  C   UNL     1      -0.311   1.536   0.263  0.00  0.00    +0.033 C 
ENDBRANCH   1  38
TORSDOF 11
