REMARK  Name = ZINC66893878
REMARK  9 active torsions:
REMARK  status: ('A' for Active; 'I' for Inactive)
REMARK    1  A    between atoms: C_1  and  O_2
REMARK    2  A    between atoms: O_2  and  C_3
REMARK    3  A    between atoms: C_8  and  C_9
REMARK    4  A    between atoms: C_9  and  C_10
REMARK    5  A    between atoms: N_15  and  C_17
REMARK    6  A    between atoms: C_17  and  C_18
REMARK    7  A    between atoms: C_18  and  C_19
REMARK    8  A    between atoms: C_19  and  N_20
REMARK    9  A    between atoms: C_28  and  N_29
REMARK                            x       y       z     vdW  Elec       q    Type
REMARK                         _______ _______ _______ _____ _____    ______ ____
ROOT
ATOM      1  C   UNL     1      -1.442  -3.020  -0.309  0.00  0.00    -0.023 C 
ATOM      2  C   UNL     1      -2.155  -1.667  -0.227  0.00  0.00    +0.000 C 
ATOM      3  C   UNL     1      -3.658  -1.881  -0.427  0.00  0.00    -0.018 C 
ATOM      4  C   UNL     1      -4.171  -2.872   0.620  0.00  0.00    -0.079 C 
ATOM      5  N   UNL     1      -3.469  -4.152   0.472  0.00  0.00    +0.380 N 
ATOM      6  C   UNL     1      -2.037  -3.969   0.733  0.00  0.00    -0.075 C 
ATOM      7  H   UNL     1      -3.597  -4.498  -0.467  0.00  0.00    -0.082 HD
ENDROOT
BRANCH   1   8
ATOM      8  C   UNL     1       0.051  -2.828  -0.033  0.00  0.00    +0.040 C 
BRANCH   8  14
ATOM      9  C   UNL     1       0.606  -0.607  -1.056  0.00  0.00    +0.123 A 
ATOM     10  C   UNL     1       1.173   0.161  -2.063  0.00  0.00    +0.046 A 
ATOM     11  C   UNL     1       1.786  -0.455  -3.136  0.00  0.00    +0.004 A 
ATOM     12  C   UNL     1       1.836  -1.835  -3.208  0.00  0.00    +0.000 A 
ATOM     13  C   UNL     1       1.271  -2.602  -2.207  0.00  0.00    +0.007 A 
ATOM     14  C   UNL     1       0.661  -1.991  -1.128  0.00  0.00    -0.006 A 
BRANCH   9  16
ATOM     15  C   UNL     1      -0.017   1.425   0.010  0.00  0.00    +0.277 C 
ATOM     16  O   UNL     1       0.002  -0.004   0.002  0.00  0.00    -0.495 OA
ENDBRANCH   9  16
ENDBRANCH   8  14
ENDBRANCH   1   8
BRANCH   5  17
ATOM     17  C   UNL     1      -4.019  -5.123   1.428  0.00  0.00    -0.077 C 
BRANCH  17  18
ATOM     18  C   UNL     1      -5.478  -5.417   1.073  0.00  0.00    +0.003 C 
BRANCH  18  19
ATOM     19  C   UNL     1      -6.051  -6.428   2.068  0.00  0.00    +0.123 C 
BRANCH  19  20
ATOM     20  N   UNL     1      -7.448  -6.710   1.729  0.00  0.00    -0.315 N 
ATOM     21  C   UNL     1      -8.546  -6.100   2.260  0.00  0.00    +0.201 A 
ATOM     22  N   UNL     1      -9.628  -6.594   1.732  0.00  0.00    -0.231 NA
ATOM     23  C   UNL     1      -9.295  -7.549   0.831  0.00  0.00    +0.147 A 
ATOM     24  C   UNL     1      -7.892  -7.631   0.814  0.00  0.00    +0.165 A 
ATOM     25  N   UNL     1      -7.306  -8.500  -0.002  0.00  0.00    -0.216 NA
ATOM     26  C   UNL     1      -8.025  -9.274  -0.787  0.00  0.00    +0.225 A 
ATOM     27  N   UNL     1      -9.345  -9.231  -0.809  0.00  0.00    -0.219 NA
ATOM     28  C   UNL     1     -10.019  -8.399  -0.021  0.00  0.00    +0.147 A 
BRANCH  28  29
ATOM     29  N   UNL     1     -11.402  -8.360  -0.052  0.00  0.00    -0.341 N 
ATOM     30  H   UNL     1     -11.883  -7.740   0.519  0.00  0.00    +0.144 HD
ATOM     31  H   UNL     1     -11.891  -8.952  -0.645  0.00  0.00    +0.144 HD
ENDBRANCH  28  29
ENDBRANCH  19  20
ENDBRANCH  18  19
ENDBRANCH  17  18
ENDBRANCH   5  17
TORSDOF 8
