REMARK  Name = ZINC01068195
REMARK  7 active torsions:
REMARK  status: ('A' for Active; 'I' for Inactive)
REMARK    1  A    between atoms: C_1  and  C_2
REMARK    2  A    between atoms: C_2  and  O_3
REMARK    3  A    between atoms: O_3  and  C_4
REMARK    4  A    between atoms: C_4  and  C_6
REMARK    5  A    between atoms: C_10  and  N_11
REMARK    6  A    between atoms: C_19  and  S_21
REMARK    7  A    between atoms: S_21  and  C_22
REMARK                            x       y       z     vdW  Elec       q    Type
REMARK                         _______ _______ _______ _____ _____    ______ ____
ROOT
ATOM      1  C   UNL     1      -2.995  -2.320   0.468  0.00  0.00    +0.118 A 
ATOM      2  C   UNL     1      -3.891  -1.816  -0.506  0.00  0.00    +0.151 A 
ATOM      3  N   UNL     1      -4.782  -2.732  -0.756  0.00  0.00    -0.171 NA
ATOM      4  N   UNL     1      -4.519  -3.861   0.027  0.00  0.00    -0.199 N 
ATOM      5  C   UNL     1      -3.415  -3.612   0.779  0.00  0.00    +0.136 A 
ATOM      6  C   UNL     1      -5.260  -5.040   0.031  0.00  0.00    +0.169 A 
ATOM      7  C   UNL     1      -6.675  -5.000   0.142  0.00  0.00    +0.055 A 
ATOM      8  C   UNL     1      -7.550  -3.821   0.263  0.00  0.00    -0.024 A 
ATOM      9  C   UNL     1      -8.869  -4.051   0.354  0.00  0.00    -0.004 A 
ATOM     10  S   UNL     1      -9.038  -5.820   0.284  0.00  0.00    -0.073 S 
ATOM     11  C   UNL     1      -7.325  -6.249   0.135  0.00  0.00    +0.115 A 
ATOM     12  N   UNL     1      -6.650  -7.377   0.033  0.00  0.00    -0.215 NA
ATOM     13  C   UNL     1      -5.327  -7.355  -0.068  0.00  0.00    +0.191 A 
ATOM     14  N   UNL     1      -4.655  -6.210  -0.073  0.00  0.00    -0.202 NA
ATOM     15  C   UNL     1      -9.661  -2.777   0.478  0.00  0.00    +0.043 C 
ATOM     16  C   UNL     1      -8.620  -1.711   0.886  0.00  0.00    +0.010 C 
ATOM     17  C   UNL     1      -7.320  -2.308   0.310  0.00  0.00    +0.037 C 
ENDROOT
BRANCH   5  18
ATOM     18  N   UNL     1      -2.825  -4.473   1.679  0.00  0.00    -0.342 N 
ATOM     19  H   UNL     1      -2.035  -4.195   2.169  0.00  0.00    +0.144 HD
ATOM     20  H   UNL     1      -3.199  -5.356   1.822  0.00  0.00    +0.144 HD
ENDBRANCH   5  18
BRANCH   1  21
ATOM     21  C   UNL     1      -1.840  -1.618   1.037  0.00  0.00    +0.344 C 
ATOM     22  O   UNL     1      -1.143  -2.169   1.867  0.00  0.00    -0.245 OA
BRANCH  21  23
ATOM     23  O   UNL     1      -1.552  -0.362   0.640  0.00  0.00    -0.461 OA
BRANCH  23  25
ATOM     24  C   UNL     1      -0.245   1.670   0.665  0.00  0.00    +0.048 C 
ATOM     25  C   UNL     1      -0.412   0.261   1.236  0.00  0.00    +0.229 C 
ENDBRANCH  23  25
ENDBRANCH  21  23
ENDBRANCH   1  21
BRANCH  13  26
ATOM     26  S   UNL     1      -4.446  -8.875  -0.203  0.00  0.00    -0.089 S 
ATOM     27  C   UNL     1      -5.745 -10.141  -0.159  0.00  0.00    +0.093 C 
ENDBRANCH  13  26
TORSDOF 5
