REMARK  Name = ZINC13494506
REMARK  7 active torsions:
REMARK  status: ('A' for Active; 'I' for Inactive)
REMARK    1  A    between atoms: C_1  and  C_2
REMARK    2  A    between atoms: C_2  and  O_26
REMARK    3  A    between atoms: C_6  and  O_10
REMARK    4  A    between atoms: C_11  and  C_19
REMARK    5  A    between atoms: C_13  and  C_15
REMARK    6  A    between atoms: C_15  and  O_17
REMARK    7  A    between atoms: O_17  and  C_18
REMARK                            x       y       z     vdW  Elec       q    Type
REMARK                         _______ _______ _______ _____ _____    ______ ____
ROOT
ATOM      1  C   UNL     1      -0.301  -3.254  -3.302  0.00  0.00    +0.042 C 
ATOM      2  C   UNL     1       0.881  -3.013  -2.361  0.00  0.00    +0.082 C 
ATOM      3  C   UNL     1       1.749  -1.875  -2.912  0.00  0.00    +0.090 C 
ATOM      4  C   UNL     1       2.756  -1.490  -1.857  0.00  0.00    +0.046 A 
ATOM      5  C   UNL     1       2.654  -1.833  -0.547  0.00  0.00    +0.044 A 
ATOM      6  C   UNL     1       3.761  -1.308   0.123  0.00  0.00    +0.235 A 
ATOM      7  N   UNL     1       4.501  -0.670  -0.755  0.00  0.00    -0.136 NA
ATOM      8  N   UNL     1       3.881  -0.774  -2.010  0.00  0.00    -0.278 N 
ATOM      9  H   UNL     1       4.218  -0.383  -2.866  0.00  0.00    +0.189 HD
ATOM     10  C   UNL     1       1.518  -2.641   0.030  0.00  0.00    +0.072 C 
ATOM     11  C   UNL     1       0.359  -2.632  -0.973  0.00  0.00    +0.141 C 
ENDROOT
BRANCH  10  12
ATOM     12  C   UNL     1       1.069  -2.026   1.331  0.00  0.00    -0.036 A 
ATOM     13  C   UNL     1       1.019  -0.651   1.464  0.00  0.00    +0.004 A 
ATOM     14  C   UNL     1       0.602  -0.086   2.655  0.00  0.00    +0.003 A 
ATOM     15  C   UNL     1       0.245  -0.895   3.717  0.00  0.00    +0.038 A 
ATOM     16  C   UNL     1       0.299  -2.272   3.586  0.00  0.00    +0.124 A 
ATOM     17  C   UNL     1       0.712  -2.837   2.391  0.00  0.00    +0.042 A 
ATOM     18  F   UNL     1      -0.049  -3.064   4.624  0.00  0.00    -0.205 F 
ENDBRANCH  10  12
BRANCH   6  19
ATOM     19  O   UNL     1       4.027  -1.435   1.450  0.00  0.00    -0.491 OA
ATOM     20  H   UNL     1       4.882  -0.964   1.666  0.00  0.00    +0.294 HD
ENDBRANCH   6  19
BRANCH  11  21
ATOM     21  C   UNL     1      -0.249  -1.254  -1.026  0.00  0.00    +0.314 C 
ATOM     22  O   UNL     1       0.445  -0.297  -1.279  0.00  0.00    -0.250 OA
BRANCH  21  23
ATOM     23  O   UNL     1      -1.560  -1.089  -0.793  0.00  0.00    -0.468 OA
ATOM     24  C   UNL     1      -2.077   0.266  -0.861  0.00  0.00    +0.280 C 
ENDBRANCH  21  23
ENDBRANCH  11  21
BRANCH   2  25
ATOM     25  O   UNL     1       1.664  -4.205  -2.265  0.00  0.00    -0.388 OA
ATOM     26  H   UNL     1       2.028  -4.506  -3.108  0.00  0.00    +0.210 HD
ENDBRANCH   2  25
TORSDOF 5
