REMARK  Name = ZINC09577100
REMARK  10 active torsions:
REMARK  status: ('A' for Active; 'I' for Inactive)
REMARK    1  A    between atoms: C_1  and  C_2
REMARK    2  A    between atoms: C_6  and  O_26
REMARK    3  A    between atoms: C_7  and  C_18
REMARK    4  A    between atoms: C_12  and  C_13
REMARK    5  A    between atoms: C_13  and  C_14
REMARK    6  A    between atoms: C_14  and  O_16
REMARK    7  A    between atoms: O_16  and  C_17
REMARK    8  A    between atoms: C_18  and  N_48
REMARK    9  A    between atoms: C_19  and  C_20
REMARK   10  A    between atoms: C_19  and  N_48
REMARK                            x       y       z     vdW  Elec       q    Type
REMARK                         _______ _______ _______ _____ _____    ______ ____
ROOT
ATOM      1  C   UNL     1      -2.412   0.964   2.512  0.00  0.00    +0.045 C 
ATOM      2  C   UNL     1      -2.968   0.489   1.194  0.00  0.00    -0.029 A 
ATOM      3  C   UNL     1      -4.067  -0.476   1.146  0.00  0.00    +0.023 A 
ATOM      4  C   UNL     1      -4.633  -0.984   2.322  0.00  0.00    +0.035 A 
ATOM      5  C   UNL     1      -5.657  -1.884   2.248  0.00  0.00    +0.083 A 
ATOM      6  C   UNL     1      -6.145  -2.299   1.009  0.00  0.00    +0.140 A 
ATOM      7  C   UNL     1      -5.597  -1.806  -0.164  0.00  0.00    +0.021 A 
ATOM      8  C   UNL     1      -4.555  -0.892  -0.107  0.00  0.00    +0.144 A 
ATOM      9  O   UNL     1      -4.007  -0.399  -1.239  0.00  0.00    -0.422 OA
ATOM     10  C   UNL     1      -3.002   0.489  -1.201  0.00  0.00    +0.341 A 
ATOM     11  O   UNL     1      -2.542   0.910  -2.248  0.00  0.00    -0.245 OA
ATOM     12  C   UNL     1      -2.462   0.945   0.019  0.00  0.00    +0.051 A 
ATOM     13 CL   UNL     1      -6.358  -2.514   3.706  0.00  0.00    -0.080 Cl
ENDROOT
BRANCH   6  14
ATOM     14  O   UNL     1      -7.164  -3.193   0.952  0.00  0.00    -0.505 OA
ATOM     15  H   UNL     1      -6.877  -4.117   0.929  0.00  0.00    +0.292 HD
ENDBRANCH   6  14
BRANCH  12  16
ATOM     16  C   UNL     1      -1.329   1.940   0.019  0.00  0.00    +0.163 C 
BRANCH  16  17
ATOM     17  C   UNL     1      -0.014   1.204   0.009  0.00  0.00    +0.311 C 
ATOM     18  O   UNL     1       0.002  -0.004   0.002  0.00  0.00    -0.250 OA
BRANCH  17  19
ATOM     19  O   UNL     1       1.139   1.891   0.001  0.00  0.00    -0.468 OA
ATOM     20  C   UNL     1       2.367   1.117  -0.015  0.00  0.00    +0.280 C 
ENDBRANCH  17  19
ENDBRANCH  16  17
ENDBRANCH  12  16
BRANCH   7  21
ATOM     21  C   UNL     1      -6.131  -2.261  -1.497  0.00  0.00    -0.039 C 
BRANCH  21  22
ATOM     22  N   UNL     1      -5.383  -3.455  -1.936  0.00  0.00    +0.384 N 
ATOM     23  H   UNL     1      -5.498  -4.201  -1.240  0.00  0.00    -0.085 HD
ATOM     24  H   UNL     1      -4.387  -3.218  -2.021  0.00  0.00    -0.085 HD
BRANCH  22  25
ATOM     25  C   UNL     1      -5.886  -3.923  -3.241  0.00  0.00    -0.050 C 
BRANCH  25  26
ATOM     26  C   UNL     1      -5.092  -5.159  -3.669  0.00  0.00    +0.101 C 
ATOM     27  C   UNL     1      -5.604  -5.664  -5.033  0.00  0.00    +0.032 C 
ATOM     28  C   UNL     1      -4.356  -5.617  -5.947  0.00  0.00    +0.030 C 
ATOM     29  C   UNL     1      -3.198  -5.625  -4.917  0.00  0.00    +0.160 C 
ATOM     30  O   UNL     1      -3.706  -4.818  -3.833  0.00  0.00    -0.378 OA
ENDBRANCH  25  26
ENDBRANCH  22  25
ENDBRANCH  21  22
ENDBRANCH   7  21
TORSDOF 8
