REMARK  Name = ZINC39946182
REMARK  8 active torsions:
REMARK  status: ('A' for Active; 'I' for Inactive)
REMARK    1  A    between atoms: C_1  and  C_2
REMARK    2  A    between atoms: C_7  and  N_12
REMARK    3  A    between atoms: C_9  and  C_11
REMARK    4  A    between atoms: C_13  and  C_15
REMARK    5  A    between atoms: C_15  and  S_16
REMARK    6  A    between atoms: S_16  and  C_17
REMARK    7  A    between atoms: C_21  and  C_30
REMARK    8  A    between atoms: N_22  and  C_23
REMARK                            x       y       z     vdW  Elec       q    Type
REMARK                         _______ _______ _______ _____ _____    ______ ____
ROOT
ATOM      1  C   UNL     1       1.851  -0.128   8.364  0.00  0.00    +0.241 C 
ATOM      2  N   UNL     1       3.285  -0.247   8.056  0.00  0.00    -0.237 N 
ATOM      3  N   UNL     1       3.749  -1.372   8.748  0.00  0.00    -0.169 NA
ATOM      4  C   UNL     1       2.788  -1.941   9.427  0.00  0.00    +0.151 C 
ATOM      5  N   UNL     1       1.576  -1.259   9.266  0.00  0.00    -0.254 N 
ATOM      6  H   UNL     1       3.807   0.338   7.485  0.00  0.00    +0.171 HD
ENDROOT
BRANCH   4   7
ATOM      7  C   UNL     1       2.950  -3.088  10.219  0.00  0.00    +0.022 C 
ATOM      8  C   UNL     1       4.142  -3.754  10.506  0.00  0.00    +0.006 A 
ATOM      9  C   UNL     1       5.481  -3.517  10.127  0.00  0.00    +0.010 A 
ATOM     10  C   UNL     1       6.462  -4.347  10.565  0.00  0.00    +0.001 A 
ATOM     11  C   UNL     1       6.182  -5.440  11.388  0.00  0.00    +0.002 A 
ATOM     12  C   UNL     1       4.919  -5.727  11.790  0.00  0.00    +0.026 A 
ATOM     13  C   UNL     1       3.841  -4.904  11.373  0.00  0.00    +0.043 A 
ATOM     14  N   UNL     1       2.548  -4.968  11.622  0.00  0.00    -0.380 N 
ATOM     15  C   UNL     1       1.869  -3.859  10.945  0.00  0.00    +0.152 C 
ATOM     16  H   UNL     1       2.114  -5.641  12.170  0.00  0.00    +0.160 HD
ENDBRANCH   4   7
BRANCH   5  17
ATOM     17  C   UNL     1       0.346  -1.585   9.845  0.00  0.00    +0.038 A 
ATOM     18  C   UNL     1      -0.027  -1.015  11.055  0.00  0.00    +0.025 A 
ATOM     19  C   UNL     1      -1.242  -1.339  11.625  0.00  0.00    +0.022 A 
ATOM     20  C   UNL     1      -2.088  -2.233  10.992  0.00  0.00    +0.041 A 
ATOM     21  C   UNL     1      -1.719  -2.803   9.786  0.00  0.00    +0.022 A 
ATOM     22  C   UNL     1      -0.508  -2.477   9.208  0.00  0.00    +0.025 A 
ATOM     23 CL   UNL     1      -3.615  -2.639  11.711  0.00  0.00    -0.084 Cl
ENDBRANCH   5  17
BRANCH   1  24
ATOM     24  S   UNL     1       0.863  -0.270   6.849  0.00  0.00    -0.108 S 
BRANCH  24  25
ATOM     25  C   UNL     1       1.350  -1.873   6.156  0.00  0.00    +0.168 C 
BRANCH  25  27
ATOM     26  N   UNL     1       0.793  -3.256   4.181  0.00  0.00    -0.312 N 
ATOM     27  C   UNL     1       0.592  -2.119   4.876  0.00  0.00    +0.223 C 
ATOM     28  O   UNL     1      -0.199  -1.293   4.472  0.00  0.00    -0.275 OA
ATOM     29  H   UNL     1       1.425  -3.916   4.504  0.00  0.00    +0.149 HD
BRANCH  26  35
ATOM     30  C   UNL     1      -0.119  -3.379   0.015  0.00  0.00    +0.008 C 
ATOM     31  C   UNL     1       0.080  -4.705   0.752  0.00  0.00    -0.009 C 
ATOM     32  C   UNL     1      -1.284  -5.317   1.077  0.00  0.00    +0.003 C 
ATOM     33  C   UNL     1      -2.077  -4.355   1.963  0.00  0.00    +0.002 C 
ATOM     34  C   UNL     1      -1.308  -4.107   3.262  0.00  0.00    +0.022 C 
ATOM     35  C   UNL     1       0.056  -3.494   2.938  0.00  0.00    +0.076 C 
ATOM     36  C   UNL     1       0.850  -4.456   2.051  0.00  0.00    +0.009 C 
ATOM     37  C   UNL     1       2.213  -3.843   1.726  0.00  0.00    +0.009 C 
ENDBRANCH  26  35
ENDBRANCH  25  27
ENDBRANCH  24  25
ENDBRANCH   1  24
TORSDOF 6
