REMARK  Name = ZINC47740730
REMARK  9 active torsions:
REMARK  status: ('A' for Active; 'I' for Inactive)
REMARK    1  A    between atoms: C_1  and  C_2
REMARK    2  A    between atoms: C_5  and  N_12
REMARK    3  A    between atoms: C_7  and  S_8
REMARK    4  A    between atoms: S_8  and  N_11
REMARK    5  A    between atoms: C_13  and  C_15
REMARK    6  A    between atoms: C_16  and  C_17
REMARK    7  A    between atoms: C_18  and  C_24
REMARK    8  A    between atoms: N_20  and  C_23
REMARK    9  A    between atoms: C_21  and  C_22
REMARK                            x       y       z     vdW  Elec       q    Type
REMARK                         _______ _______ _______ _____ _____    ______ ____
ROOT
ATOM      1  N   UNL     1       0.059  -4.169  -0.021  0.00  0.00    -0.282 N 
ATOM      2  C   UNL     1      -0.040  -4.838  -1.187  0.00  0.00    +0.241 C 
ATOM      3  O   UNL     1      -0.054  -4.227  -2.240  0.00  0.00    -0.270 OA
ATOM      4  H   UNL     1       0.147  -4.657   0.812  0.00  0.00    +0.155 HD
ENDROOT
BRANCH   1   9
ATOM      5  C   UNL     1      -0.039   1.502   0.011  0.00  0.00    +0.046 C 
ATOM      6  C   UNL     1      -0.013  -0.004   0.003  0.00  0.00    -0.024 A 
ATOM      7  C   UNL     1       0.749  -0.687   0.934  0.00  0.00    +0.007 A 
ATOM      8  C   UNL     1       0.775  -2.067   0.929  0.00  0.00    +0.024 A 
ATOM      9  C   UNL     1       0.034  -2.771  -0.013  0.00  0.00    +0.036 A 
ATOM     10  C   UNL     1      -0.730  -2.083  -0.946  0.00  0.00    +0.052 A 
ATOM     11  C   UNL     1      -0.755  -0.702  -0.932  0.00  0.00    +0.110 A 
BRANCH  11  12
ATOM     12  S   UNL     1      -1.730   0.172  -2.111  0.00  0.00    +0.056 S 
ATOM     13  O   UNL     1      -0.889   1.169  -2.675  0.00  0.00    -0.153 OA
ATOM     14  O   UNL     1      -2.386  -0.808  -2.903  0.00  0.00    -0.153 OA
BRANCH  12  15
ATOM     15  N   UNL     1      -2.913   0.972  -1.272  0.00  0.00    -0.204 NA
ATOM     16  H   UNL     1      -2.959   0.895  -0.306  0.00  0.00    +0.144 HD
ATOM     17  H   UNL     1      -3.561   1.516  -1.747  0.00  0.00    +0.144 HD
ENDBRANCH  12  15
ENDBRANCH  11  12
ENDBRANCH   1   9
BRANCH   2  18
ATOM     18  C   UNL     1      -0.129  -6.253  -1.187  0.00  0.00    +0.068 C 
ATOM     19  C   UNL     1      -0.228  -6.923  -2.355  0.00  0.00    +0.016 C 
BRANCH  19  20
ATOM     20  C   UNL     1      -0.319  -8.390  -2.356  0.00  0.00    +0.018 A 
ATOM     21  C   UNL     1       0.530  -9.284  -1.663  0.00  0.00    +0.067 A 
ATOM     22  N   UNL     1       0.126 -10.499  -1.913  0.00  0.00    -0.176 NA
ATOM     23  N   UNL     1      -0.983 -10.444  -2.765  0.00  0.00    -0.271 N 
ATOM     24  C   UNL     1      -1.254  -9.155  -3.028  0.00  0.00    +0.043 A 
ATOM     25  C   UNL     1      -2.371  -8.637  -3.898  0.00  0.00    +0.066 C 
ATOM     26  C   UNL     1      -1.726 -11.598  -3.278  0.00  0.00    +0.172 C 
ATOM     27  C   UNL     1       1.696  -8.901  -0.790  0.00  0.00    +0.068 C 
ENDBRANCH  19  20
ENDBRANCH   2  18
TORSDOF 5
