REMARK  Name = ZINC22848106
REMARK  8 active torsions:
REMARK  status: ('A' for Active; 'I' for Inactive)
REMARK    1  A    between atoms: C_1  and  O_2
REMARK    2  A    between atoms: O_2  and  C_3
REMARK    3  A    between atoms: C_6  and  C_9
REMARK    4  A    between atoms: C_11  and  C_14
REMARK    5  A    between atoms: C_14  and  O_15
REMARK    6  A    between atoms: O_15  and  C_16
REMARK    7  A    between atoms: C_16  and  C_18
REMARK    8  A    between atoms: C_18  and  N_19
REMARK                            x       y       z     vdW  Elec       q    Type
REMARK                         _______ _______ _______ _____ _____    ______ ____
ROOT
ATOM      1  C   UNL     1       8.852  -1.722  -0.085  0.00  0.00    +0.238 C 
ENDROOT
BRANCH   1   2
ATOM      2  N   UNL     1      10.291  -1.449  -0.097  0.00  0.00    -0.213 N 
ATOM      3  C   UNL     1      11.027  -1.308  -1.219  0.00  0.00    +0.252 C 
ATOM      4  O   UNL     1      10.638  -1.381  -2.365  0.00  0.00    -0.272 OA
ATOM      5  C   UNL     1      12.438  -1.038  -0.747  0.00  0.00    +0.138 C 
ATOM      6  C   UNL     1      13.373  -2.138  -1.235  0.00  0.00    +0.040 C 
ATOM      7  C   UNL     1      14.815  -1.735  -0.902  0.00  0.00    +0.008 C 
ATOM      8  C   UNL     1      15.200  -0.548  -1.781  0.00  0.00    +0.035 C 
ATOM      9  C   UNL     1      14.169   0.546  -1.680  0.00  0.00    -0.042 A 
ATOM     10  C   UNL     1      12.894   0.317  -1.209  0.00  0.00    -0.012 A 
ATOM     11  C   UNL     1      11.985   1.365  -1.152  0.00  0.00    +0.006 A 
ATOM     12  C   UNL     1      12.349   2.632  -1.558  0.00  0.00    +0.000 A 
ATOM     13  C   UNL     1      13.629   2.862  -2.027  0.00  0.00    +0.000 A 
ATOM     14  C   UNL     1      14.534   1.822  -2.087  0.00  0.00    +0.004 A 
ATOM     15  N   UNL     1      12.333  -1.069   0.719  0.00  0.00    -0.281 N 
ATOM     16  C   UNL     1      11.041  -1.314   1.004  0.00  0.00    +0.310 C 
ATOM     17  O   UNL     1      10.603  -1.404   2.135  0.00  0.00    -0.252 OA
ATOM     18  H   UNL     1      13.228  -0.904   1.337  0.00  0.00    +0.152 HD
ENDBRANCH   1   2
BRANCH   1  19
ATOM     19  C   UNL     1       8.094  -0.420  -0.072  0.00  0.00    +0.326 C 
ATOM     20  O   UNL     1       8.694   0.628  -0.073  0.00  0.00    -0.249 OA
BRANCH  19  21
ATOM     21  O   UNL     1       6.752  -0.425  -0.060  0.00  0.00    -0.457 OA
BRANCH  21  22
ATOM     22  C   UNL     1       6.088   0.866  -0.048  0.00  0.00    +0.290 C 
BRANCH  22  25
ATOM     23  C   UNL     1       2.478   1.073  -0.015  0.00  0.00    +0.227 A 
ATOM     24  N   UNL     1       3.665   1.631  -0.023  0.00  0.00    -0.211 NA
ATOM     25  C   UNL     1       4.595   0.663  -0.035  0.00  0.00    +0.117 A 
ATOM     26  C   UNL     1       3.956  -0.521  -0.035  0.00  0.00    +0.224 A 
ATOM     27  O   UNL     1       2.633  -0.262  -0.017  0.00  0.00    -0.443 OA
BRANCH  23  31
ATOM     28  C   UNL     1      -1.235   3.138   0.029  0.00  0.00    +0.120 A 
ATOM     29  C   UNL     1      -1.215   1.750   0.017  0.00  0.00    +0.046 A 
ATOM     30  C   UNL     1      -0.013   1.076   0.008  0.00  0.00    +0.017 A 
ATOM     31  C   UNL     1       1.187   1.791   0.000  0.00  0.00    +0.037 A 
ATOM     32  C   UNL     1       1.162   3.187   0.008  0.00  0.00    +0.017 A 
ATOM     33  C   UNL     1      -0.044   3.854   0.022  0.00  0.00    +0.046 A 
BRANCH  28  35
ATOM     34  C   UNL     1      -3.607   3.001   0.049  0.00  0.00    +0.277 C 
ATOM     35  O   UNL     1      -2.422   3.799   0.043  0.00  0.00    -0.495 OA
ENDBRANCH  28  35
ENDBRANCH  23  31
ENDBRANCH  22  25
ENDBRANCH  21  22
ENDBRANCH  19  21
ENDBRANCH   1  19
TORSDOF 7
