REMARK  Name = ZINC46168879
REMARK  5 active torsions:
REMARK  status: ('A' for Active; 'I' for Inactive)
REMARK    1  A    between atoms: C_3  and  C_23
REMARK    2  A    between atoms: C_6  and  N_7
REMARK    3  A    between atoms: C_8  and  C_10
REMARK    4  A    between atoms: C_10  and  N_11
REMARK    5  A    between atoms: N_11  and  C_12
REMARK                            x       y       z     vdW  Elec       q    Type
REMARK                         _______ _______ _______ _____ _____    ______ ____
ROOT
ATOM      1  N   UNL     1      -1.198  -0.716   0.010  0.00  0.00    -0.284 N 
ATOM      2  C   UNL     1      -1.185  -2.060  -0.099  0.00  0.00    +0.234 C 
ATOM      3  O   UNL     1      -0.130  -2.657  -0.113  0.00  0.00    -0.274 OA
ATOM      4  H   UNL     1      -2.041  -0.245   0.098  0.00  0.00    +0.155 HD
ENDROOT
BRANCH   1  10
ATOM      5  C   UNL     1       0.128   1.158   0.752  0.00  0.00    +0.024 A 
ATOM      6  C   UNL     1       1.310   1.864   0.742  0.00  0.00    +0.022 A 
ATOM      7  C   UNL     1       2.385   1.413  -0.029  0.00  0.00    +0.070 A 
ATOM      8  C   UNL     1       2.255   0.245  -0.788  0.00  0.00    +0.060 A 
ATOM      9  C   UNL     1       1.068  -0.456  -0.773  0.00  0.00    +0.044 A 
ATOM     10  C   UNL     1       0.002  -0.004  -0.004  0.00  0.00    +0.035 A 
ATOM     11 CL   UNL     1       3.586  -0.320  -1.749  0.00  0.00    -0.082 Cl
BRANCH   7  12
ATOM     12  C   UNL     1       3.615   2.145  -0.043  0.00  0.00    +0.101 C 
ATOM     13  N   UNL     1       4.591   2.726  -0.054  0.00  0.00    -0.191 NA
ENDBRANCH   7  12
ENDBRANCH   1  10
BRANCH   2  14
ATOM     14  C   UNL     1      -2.482  -2.820  -0.204  0.00  0.00    +0.198 C 
BRANCH  14  15
ATOM     15  N   UNL     1      -2.201  -4.253  -0.311  0.00  0.00    -0.335 N 
ATOM     16  H   UNL     1      -1.284  -4.569  -0.307  0.00  0.00    +0.147 HD
BRANCH  15  17
ATOM     17  C   UNL     1      -3.255  -5.167  -0.421  0.00  0.00    +0.031 A 
ATOM     18  C   UNL     1      -4.568  -4.714  -0.433  0.00  0.00    +0.027 A 
ATOM     19  C   UNL     1      -5.609  -5.616  -0.539  0.00  0.00    +0.051 A 
ATOM     20  C   UNL     1      -5.347  -6.975  -0.635  0.00  0.00    +0.162 A 
ATOM     21  C   UNL     1      -4.034  -7.431  -0.626  0.00  0.00    +0.164 A 
ATOM     22  C   UNL     1      -2.989  -6.525  -0.523  0.00  0.00    +0.072 A 
ATOM     23  O   UNL     1      -3.757  -8.759  -0.727  0.00  0.00    -0.485 OA
ATOM     24  C   UNL     1      -4.834  -9.664  -0.460  0.00  0.00    +0.270 C 
ATOM     25  C   UNL     1      -6.078  -9.165  -1.208  0.00  0.00    +0.270 C 
ATOM     26  O   UNL     1      -6.387  -7.849  -0.736  0.00  0.00    -0.485 OA
ENDBRANCH  15  17
ENDBRANCH  14  15
ENDBRANCH   2  14
TORSDOF 5
