REMARK  Name = ZINC14121662
REMARK  6 active torsions:
REMARK  status: ('A' for Active; 'I' for Inactive)
REMARK    1  A    between atoms: C_1  and  C_2
REMARK    2  A    between atoms: N_5  and  C_11
REMARK    3  A    between atoms: C_7  and  C_10
REMARK    4  A    between atoms: C_11  and  C_12
REMARK    5  A    between atoms: C_18  and  C_20
REMARK    6  A    between atoms: C_23  and  N_27
REMARK                            x       y       z     vdW  Elec       q    Type
REMARK                         _______ _______ _______ _____ _____    ______ ____
ROOT
ATOM      1  C   UNL     1       1.289  -3.985  -2.484  0.00  0.00    +0.064 A 
ATOM      2  C   UNL     1       0.276  -4.576  -3.163  0.00  0.00    +0.073 A 
ATOM      3  S   UNL     1       0.626  -6.299  -2.851  0.00  0.00    -0.060 S 
ATOM      4  C   UNL     1       2.002  -6.089  -1.905  0.00  0.00    +0.165 A 
ATOM      5  N   UNL     1       2.142  -4.781  -1.866  0.00  0.00    -0.228 NA
ATOM      6  N   UNL     1       2.798  -7.060  -1.312  0.00  0.00    -0.261 N 
ATOM      7  C   UNL     1       2.498  -8.365  -1.468  0.00  0.00    +0.251 C 
ATOM      8  O   UNL     1       1.530  -8.691  -2.127  0.00  0.00    -0.270 OA
ATOM      9  H   UNL     1       3.571  -6.800  -0.787  0.00  0.00    +0.157 HD
ENDROOT
BRANCH   7  10
ATOM     10  C   UNL     1       3.345  -9.398  -0.838  0.00  0.00    +0.055 A 
ATOM     11  C   UNL     1       4.455  -9.027  -0.076  0.00  0.00    +0.017 A 
ATOM     12  C   UNL     1       5.242  -9.996   0.509  0.00  0.00    +0.033 A 
ATOM     13  C   UNL     1       4.935 -11.336   0.343  0.00  0.00    +0.128 A 
ATOM     14  C   UNL     1       3.838 -11.712  -0.411  0.00  0.00    +0.053 A 
ATOM     15  C   UNL     1       3.037 -10.752  -0.998  0.00  0.00    +0.055 A 
ATOM     16 CL   UNL     1       1.656 -11.225  -1.937  0.00  0.00    -0.083 Cl
BRANCH  13  17
ATOM     17  N   UNL     1       5.785 -12.370   0.974  0.00  0.00    +0.056 N 
ATOM     18  O   UNL     1       6.744 -12.044   1.633  0.00  0.00    -0.126 OA
ATOM     19  O   UNL     1       5.519 -13.541   0.830  0.00  0.00    -0.126 OA
ENDBRANCH  13  17
ENDBRANCH   7  10
BRANCH   1  20
ATOM     20  C   UNL     1       1.439  -2.486  -2.440  0.00  0.00    +0.140 C 
BRANCH  20  24
ATOM     21  C   UNL     1      -0.019   1.526   0.010  0.00  0.00    +0.039 C 
ATOM     22  C   UNL     1       0.002  -0.004   0.002  0.00  0.00    +0.130 C 
ATOM     23  C   UNL     1       0.720  -0.499  -1.256  0.00  0.00    +0.116 C 
ATOM     24  N   UNL     1       0.805  -1.966  -1.221  0.00  0.00    -0.292 NA
ATOM     25  C   UNL     1       1.523  -2.417  -0.020  0.00  0.00    +0.116 C 
ATOM     26  C   UNL     1       0.797  -1.904   1.226  0.00  0.00    +0.130 C 
ATOM     27  O   UNL     1       0.695  -0.479   1.159  0.00  0.00    -0.371 OA
ATOM     28  C   UNL     1      -0.605  -2.513   1.288  0.00  0.00    +0.039 C 
ENDBRANCH  20  24
ENDBRANCH   1  20
TORSDOF 4
