REMARK  Name = ZINC36586886
REMARK  16 active torsions:
REMARK  status: ('A' for Active; 'I' for Inactive)
REMARK    1  A    between atoms: C_1  and  C_2
REMARK    2  A    between atoms: C_5  and  C_9
REMARK    3  A    between atoms: C_6  and  C_8
REMARK    4  A    between atoms: C_9  and  C_11
REMARK    5  A    between atoms: C_9  and  N_18
REMARK    6  A    between atoms: N_13  and  C_14
REMARK    7  A    between atoms: C_14  and  C_15
REMARK    8  A    between atoms: C_14  and  C_16
REMARK    9  A    between atoms: C_14  and  C_17
REMARK   10  A    between atoms: N_18  and  C_29
REMARK   11  A    between atoms: C_19  and  C_21
REMARK   12  A    between atoms: C_25  and  O_28
REMARK   13  A    between atoms: C_26  and  O_27
REMARK   14  A    between atoms: C_29  and  C_30
REMARK   15  A    between atoms: C_29  and  C_31
REMARK   16  A    between atoms: C_29  and  C_32
REMARK                            x       y       z     vdW  Elec       q    Type
REMARK                         _______ _______ _______ _____ _____    ______ ____
ROOT
ATOM      1  C   UNL     1      -1.493  -4.776   1.171  0.00  0.00    +0.193 C 
ENDROOT
BRANCH   1   6
ATOM      2  C   UNL     1      -0.245   0.866   1.109  0.00  0.00    +0.044 C 
ATOM      3  C   UNL     1      -0.571  -0.606   1.125  0.00  0.00    -0.050 A 
ATOM      4  C   UNL     1      -1.339  -1.155   0.116  0.00  0.00    +0.004 A 
ATOM      5  C   UNL     1      -1.637  -2.504   0.130  0.00  0.00    +0.006 A 
ATOM      6  C   UNL     1      -1.167  -3.305   1.155  0.00  0.00    -0.015 A 
ATOM      7  C   UNL     1      -0.398  -2.756   2.164  0.00  0.00    -0.045 A 
ATOM      8  C   UNL     1      -0.096  -1.407   2.147  0.00  0.00    +0.007 A 
ATOM      9  C   UNL     1       0.114  -3.629   3.281  0.00  0.00    +0.044 C 
ENDBRANCH   1   6
BRANCH   1  10
ATOM     10  C   UNL     1      -0.370  -5.547   0.525  0.00  0.00    +0.239 C 
ATOM     11  O   UNL     1      -0.451  -5.873  -0.641  0.00  0.00    -0.273 OA
ATOM     12  N   UNL     1       0.723  -5.874   1.242  0.00  0.00    -0.309 N 
ATOM     13  H   UNL     1       0.767  -5.656   2.186  0.00  0.00    +0.149 HD
BRANCH  12  14
ATOM     14  C   UNL     1       1.845  -6.558   0.595  0.00  0.00    +0.026 C 
ATOM     15  C   UNL     1       2.393  -5.684  -0.535  0.00  0.00    +0.031 C 
ATOM     16  C   UNL     1       2.949  -6.811   1.624  0.00  0.00    +0.031 C 
ATOM     17  C   UNL     1       1.367  -7.893   0.022  0.00  0.00    +0.031 C 
ENDBRANCH  12  14
ENDBRANCH   1  10
BRANCH   1  18
ATOM     18  N   UNL     1      -2.735  -5.010   0.430  0.00  0.00    -0.277 N 
ATOM     19  C   UNL     1      -2.901  -4.471  -0.794  0.00  0.00    +0.252 C 
ATOM     20  O   UNL     1      -4.005  -4.114  -1.156  0.00  0.00    -0.270 OA
BRANCH  19  21
ATOM     21  C   UNL     1      -1.743  -4.315  -1.694  0.00  0.00    +0.082 A 
ATOM     22  C   UNL     1      -0.479  -4.030  -1.170  0.00  0.00    +0.017 A 
ATOM     23  C   UNL     1       0.601  -3.885  -2.014  0.00  0.00    +0.005 A 
ATOM     24  C   UNL     1       0.441  -4.021  -3.383  0.00  0.00    +0.049 A 
ATOM     25  C   UNL     1      -0.804  -4.302  -3.918  0.00  0.00    +0.159 A 
ATOM     26  C   UNL     1      -1.903  -4.457  -3.078  0.00  0.00    +0.171 A 
BRANCH  26  27
ATOM     27  O   UNL     1      -3.125  -4.739  -3.597  0.00  0.00    -0.503 OA
ATOM     28  H   UNL     1      -3.649  -3.957  -3.817  0.00  0.00    +0.292 HD
ENDBRANCH  26  27
BRANCH  25  29
ATOM     29  O   UNL     1      -0.953  -4.433  -5.263  0.00  0.00    -0.503 OA
ATOM     30  H   UNL     1      -0.829  -5.336  -5.587  0.00  0.00    +0.292 HD
ENDBRANCH  25  29
ENDBRANCH  19  21
BRANCH  18  31
ATOM     31  C   UNL     1      -3.797  -5.829   1.021  0.00  0.00    +0.030 C 
ATOM     32  C   UNL     1      -3.350  -6.330   2.395  0.00  0.00    +0.031 C 
ATOM     33  C   UNL     1      -5.065  -4.987   1.173  0.00  0.00    +0.031 C 
ATOM     34  C   UNL     1      -4.085  -7.024   0.110  0.00  0.00    +0.031 C 
ENDBRANCH  18  31
ENDBRANCH   1  18
TORSDOF 8
