REMARK  Name = ZINC53716106
REMARK  3 active torsions:
REMARK  status: ('A' for Active; 'I' for Inactive)
REMARK    1  A    between atoms: C_1  and  N_2
REMARK    2  A    between atoms: C_6  and  C_12
REMARK    3  A    between atoms: C_12  and  C_14
REMARK                            x       y       z     vdW  Elec       q    Type
REMARK                         _______ _______ _______ _____ _____    ______ ____
ROOT
ATOM      1  C   UNL     1       0.491   1.006  -0.346  0.00  0.00    +0.138 C 
ATOM      2  N   UNL     1       0.362  -0.453  -0.327  0.00  0.00    -0.274 N 
ATOM      3  C   UNL     1      -0.859  -1.125  -0.240  0.00  0.00    +0.040 A 
ATOM      4  C   UNL     1      -2.162  -0.638  -0.156  0.00  0.00    +0.024 A 
ATOM      5  C   UNL     1      -3.224  -1.515  -0.078  0.00  0.00    +0.006 A 
ATOM      6  C   UNL     1      -3.006  -2.880  -0.084  0.00  0.00    -0.033 A 
ATOM      7  C   UNL     1      -1.715  -3.371  -0.168  0.00  0.00    +0.010 A 
ATOM      8  C   UNL     1      -0.652  -2.498  -0.245  0.00  0.00    -0.017 A 
ATOM      9  C   UNL     1       0.842  -2.704  -0.344  0.00  0.00    +0.133 C 
ATOM     10  C   UNL     1       1.404  -1.299  -0.397  0.00  0.00    +0.224 C 
ATOM     11  O   UNL     1       2.574  -0.994  -0.483  0.00  0.00    -0.275 OA
ENDROOT
BRANCH   6  12
ATOM     12  C   UNL     1      -4.171  -3.832   0.001  0.00  0.00    +0.090 C 
ATOM     13 BR   UNL     1      -5.232  -3.427   1.607  0.00  0.00    -0.083 Br
BRANCH  12  14
ATOM     14  C   UNL     1      -5.049  -3.676  -1.242  0.00  0.00    +0.007 C 
ATOM     15  C   UNL     1      -6.248  -4.641  -1.132  0.00  0.00    +0.005 C 
ATOM     16  C   UNL     1      -7.341  -4.151  -2.042  0.00  0.00    +0.000 C 
ATOM     17  C   UNL     1      -7.297  -4.820  -3.429  0.00  0.00    +0.000 C 
ATOM     18  C   UNL     1      -5.865  -4.957  -3.981  0.00  0.00    +0.000 C 
ATOM     19  C   UNL     1      -5.032  -3.729  -3.733  0.00  0.00    +0.000 C 
ATOM     20  C   UNL     1      -4.240  -3.930  -2.425  0.00  0.00    +0.005 C 
ENDBRANCH  12  14
ENDBRANCH   6  12
TORSDOF 2
