REMARK  Name = ZINC50242335
REMARK  3 active torsions:
REMARK  status: ('A' for Active; 'I' for Inactive)
REMARK    1  A    between atoms: C_5  and  N_7
REMARK    2  A    between atoms: C_8  and  C_10
REMARK    3  A    between atoms: C_16  and  C_18
REMARK                            x       y       z     vdW  Elec       q    Type
REMARK                         _______ _______ _______ _____ _____    ______ ____
ROOT
ATOM      1  C   UNL     1       0.008   1.218   0.004  0.00  0.00    +0.004 C 
ATOM      2  C   UNL     1       1.482   1.675   0.004  0.00  0.00    +0.106 C 
ATOM      3  N   UNL     1       2.280   0.576   0.567  0.00  0.00    -0.303 N 
ATOM      4  C   UNL     1       1.372  -0.525   0.938  0.00  0.00    +0.091 C 
ATOM      5  C   UNL     1       0.123  -0.328   0.043  0.00  0.00    -0.056 C 
ATOM      6  C   UNL     1       3.619   0.574   0.719  0.00  0.00    +0.220 C 
ATOM      7  O   UNL     1       4.165  -0.353   1.279  0.00  0.00    -0.275 OA
ENDROOT
BRANCH   6   8
ATOM      8  C   UNL     1       4.438   1.724   0.191  0.00  0.00    +0.093 C 
ATOM      9  C   UNL     1       4.786   2.675   1.338  0.00  0.00    +0.040 C 
ATOM     10  C   UNL     1       5.813   3.673   0.888  0.00  0.00    -0.030 C 
ATOM     11  C   UNL     1       6.548   3.531  -0.168  0.00  0.00    -0.030 C 
ATOM     12  C   UNL     1       6.470   2.353  -1.095  0.00  0.00    +0.042 C 
ATOM     13  C   UNL     1       5.742   1.192  -0.417  0.00  0.00    +0.118 C 
BRANCH  13  14
ATOM     14  C   UNL     1       5.428   0.123  -1.432  0.00  0.00    +0.360 C 
ATOM     15  O   UNL     1       6.238  -0.147  -2.302  0.00  0.00    -0.246 OA
ATOM     16  O   UNL     1       4.365  -0.470  -1.383  0.00  0.00    -0.246 OA
ENDBRANCH  13  14
ENDBRANCH   6   8
BRANCH   5  17
ATOM     17  N   UNL     1      -1.067  -0.930   0.658  0.00  0.00    +0.381 N 
ATOM     18  H   UNL     1      -1.882  -0.700   0.111  0.00  0.00    -0.090 HD
ATOM     19  H   UNL     1      -0.957  -1.933   0.693  0.00  0.00    -0.090 HD
ATOM     20  H   UNL     1      -1.179  -0.571   1.595  0.00  0.00    -0.090 HD
ENDBRANCH   5  17
TORSDOF 3
