REMARK  Name = ZINC51089673
REMARK  4 active torsions:
REMARK  status: ('A' for Active; 'I' for Inactive)
REMARK    1  A    between atoms: C_9  and  N_11
REMARK    2  A    between atoms: C_12  and  C_14
REMARK    3  A    between atoms: C_16  and  N_20
REMARK    4  A    between atoms: N_20  and  N_21
REMARK                            x       y       z     vdW  Elec       q    Type
REMARK                         _______ _______ _______ _____ _____    ______ ____
ROOT
ATOM      1  N   UNL     1       6.022   1.762  -0.045  0.00  0.00    -0.181 NA
ATOM      2  C   UNL     1       6.284   3.048  -0.040  0.00  0.00    +0.296 C 
ATOM      3  O   UNL     1       5.272   3.943  -0.026  0.00  0.00    -0.264 OA
ENDROOT
BRANCH   1  12
ATOM      4  C   UNL     1      -0.017   1.384   0.010  0.00  0.00    +0.022 A 
ATOM      5  C   UNL     1       1.141   2.116   0.003  0.00  0.00    +0.030 A 
ATOM      6  C   UNL     1       2.402   1.474  -0.013  0.00  0.00    +0.081 A 
ATOM      7  C   UNL     1       2.383   0.059  -0.020  0.00  0.00    +0.042 A 
ATOM      8  C   UNL     1       1.218  -0.665  -0.013  0.00  0.00    +0.037 A 
ATOM      9  C   UNL     1       0.002  -0.004   0.002  0.00  0.00    +0.042 A 
ATOM     10 CL   UNL     1      -1.484  -0.901   0.012  0.00  0.00    -0.084 Cl
ATOM     11  S   UNL     1       4.113  -0.344  -0.038  0.00  0.00    -0.048 S 
ATOM     12  C   UNL     1       4.735   1.331  -0.035  0.00  0.00    +0.197 A 
ATOM     13  N   UNL     1       3.625   2.043  -0.021  0.00  0.00    -0.221 NA
ENDBRANCH   1  12
BRANCH   2  14
ATOM     14  C   UNL     1       7.686   3.517  -0.051  0.00  0.00    +0.108 A 
ATOM     15  C   UNL     1       8.723   2.589  -0.071  0.00  0.00    +0.055 A 
ATOM     16  C   UNL     1      10.039   3.048  -0.081  0.00  0.00    +0.044 A 
ATOM     17  C   UNL     1      10.259   4.426  -0.070  0.00  0.00    +0.041 A 
ATOM     18  C   UNL     1       9.177   5.284  -0.050  0.00  0.00    +0.085 A 
ATOM     19  N   UNL     1       7.944   4.821  -0.046  0.00  0.00    -0.357 N 
ATOM     20  H   UNL     1       7.204   5.448  -0.036  0.00  0.00    +0.165 HD
BRANCH  16  21
ATOM     21  N   UNL     1      11.106   2.155  -0.101  0.00  0.00    -0.283 N 
ATOM     22  H   UNL     1      10.939   1.200  -0.108  0.00  0.00    +0.166 HD
BRANCH  21  23
ATOM     23  N   UNL     1      12.389   2.624  -0.110  0.00  0.00    -0.257 NA
ATOM     24  H   UNL     1      13.052   1.864  -0.124  0.00  0.00    +0.140 HD
ATOM     25  H   UNL     1      12.540   3.250  -0.887  0.00  0.00    +0.140 HD
ENDBRANCH  21  23
ENDBRANCH  16  21
ENDBRANCH   2  14
TORSDOF 4
