REMARK  Name = ZINC66908064
REMARK  9 active torsions:
REMARK  status: ('A' for Active; 'I' for Inactive)
REMARK    1  A    between atoms: C_1  and  C_2
REMARK    2  A    between atoms: C_2  and  C_3
REMARK    3  A    between atoms: C_2  and  C_4
REMARK    4  A    between atoms: C_2  and  N_5
REMARK    5  A    between atoms: C_6  and  C_8
REMARK    6  A    between atoms: C_8  and  N_9
REMARK    7  A    between atoms: N_12  and  C_13
REMARK    8  A    between atoms: C_13  and  C_14
REMARK    9  A    between atoms: C_14  and  O_24
REMARK                            x       y       z     vdW  Elec       q    Type
REMARK                         _______ _______ _______ _____ _____    ______ ____
ROOT
ATOM      1  N   UNL     1       4.261  -0.538  -2.418  0.00  0.00    -0.291 N 
ATOM      2  C   UNL     1       5.030  -0.733  -3.507  0.00  0.00    +0.300 C 
ATOM      3  O   UNL     1       4.667  -1.500  -4.378  0.00  0.00    -0.253 OA
ATOM      4  N   UNL     1       6.201  -0.077  -3.632  0.00  0.00    -0.296 N 
ATOM      5  H   UNL     1       4.551   0.074  -1.723  0.00  0.00    +0.151 HD
ATOM      6  H   UNL     1       6.490   0.535  -2.937  0.00  0.00    +0.150 HD
ENDROOT
BRANCH   1   7
ATOM      7  C   UNL     1       2.988  -1.250  -2.282  0.00  0.00    +0.201 C 
BRANCH   7   9
ATOM      8  N   UNL     1       1.139  -1.392  -0.646  0.00  0.00    -0.309 N 
ATOM      9  C   UNL     1       2.329  -0.858  -0.985  0.00  0.00    +0.231 C 
ATOM     10  O   UNL     1       2.869  -0.062  -0.247  0.00  0.00    -0.274 OA
ATOM     11  H   UNL     1       0.707  -2.029  -1.237  0.00  0.00    +0.149 HD
BRANCH   8  13
ATOM     12  C   UNL     1       0.241   0.497   0.621  0.00  0.00    +0.031 C 
ATOM     13  C   UNL     1       0.497  -1.011   0.615  0.00  0.00    +0.026 C 
ATOM     14  C   UNL     1       1.414  -1.378   1.784  0.00  0.00    +0.031 C 
ATOM     15  C   UNL     1      -0.832  -1.755   0.756  0.00  0.00    +0.031 C 
ENDBRANCH   8  13
ENDBRANCH   7   9
ENDBRANCH   1   7
BRANCH   4  16
ATOM     16  C   UNL     1       7.037  -0.289  -4.816  0.00  0.00    +0.145 C 
BRANCH  16  17
ATOM     17  C   UNL     1       8.359   0.461  -4.648  0.00  0.00    +0.107 C 
ATOM     18  C   UNL     1       9.052  -0.019  -3.375  0.00  0.00    +0.041 C 
ATOM     19  C   UNL     1      10.464   0.577  -3.338  0.00  0.00    +0.008 C 
ATOM     20  C   UNL     1      11.298  -0.092  -4.428  0.00  0.00    +0.035 C 
ATOM     21  C   UNL     1      10.580  -0.041  -5.751  0.00  0.00    -0.041 A 
ATOM     22  C   UNL     1       9.229   0.209  -5.852  0.00  0.00    -0.011 A 
ATOM     23  C   UNL     1       8.627   0.237  -7.103  0.00  0.00    +0.007 A 
ATOM     24  C   UNL     1       9.370   0.019  -8.244  0.00  0.00    +0.000 A 
ATOM     25  C   UNL     1      10.726  -0.228  -8.143  0.00  0.00    +0.000 A 
ATOM     26  C   UNL     1      11.327  -0.258  -6.901  0.00  0.00    +0.004 A 
BRANCH  17  27
ATOM     27  O   UNL     1       8.097   1.861  -4.541  0.00  0.00    -0.382 OA
ATOM     28  H   UNL     1       7.649   2.238  -5.311  0.00  0.00    +0.211 HD
ENDBRANCH  17  27
ENDBRANCH  16  17
ENDBRANCH   4  16
TORSDOF 6
