REMARK  Name = ZINC67381251
REMARK  7 active torsions:
REMARK  status: ('A' for Active; 'I' for Inactive)
REMARK    1  A    between atoms: C_1  and  C_2
REMARK    2  A    between atoms: C_7  and  N_12
REMARK    3  A    between atoms: C_9  and  C_11
REMARK    4  A    between atoms: N_15  and  C_16
REMARK    5  A    between atoms: C_16  and  C_17
REMARK    6  A    between atoms: C_17  and  C_18
REMARK    7  A    between atoms: C_18  and  C_19
REMARK                            x       y       z     vdW  Elec       q    Type
REMARK                         _______ _______ _______ _____ _____    ______ ____
ROOT
ATOM      1  N   UNL     1      -0.612  -2.548   1.244  0.00  0.00    -0.296 N 
ATOM      2  C   UNL     1      -0.873  -3.776   1.733  0.00  0.00    +0.300 C 
ATOM      3  O   UNL     1       0.032  -4.463   2.165  0.00  0.00    -0.253 OA
ATOM      4  N   UNL     1      -2.137  -4.243   1.742  0.00  0.00    -0.299 N 
ATOM      5  H   UNL     1      -1.333  -2.000   0.898  0.00  0.00    +0.151 HD
ATOM      6  H   UNL     1      -2.859  -3.694   1.397  0.00  0.00    +0.150 HD
ENDROOT
BRANCH   1  12
ATOM      7  C   UNL     1      -0.019   1.526   0.010  0.00  0.00    +0.008 C 
ATOM      8  C   UNL     1       0.002  -0.004   0.002  0.00  0.00    -0.009 C 
ATOM      9  C   UNL     1       0.718  -0.497  -1.257  0.00  0.00    +0.003 C 
ATOM     10  C   UNL     1       0.739  -2.027  -1.265  0.00  0.00    +0.002 C 
ATOM     11  C   UNL     1       1.479  -2.534  -0.026  0.00  0.00    +0.022 C 
ATOM     12  C   UNL     1       0.763  -2.041   1.233  0.00  0.00    +0.078 C 
ATOM     13  C   UNL     1       0.742  -0.511   1.242  0.00  0.00    +0.009 C 
ATOM     14  C   UNL     1       0.026  -0.018   2.500  0.00  0.00    +0.009 C 
ENDBRANCH   1  12
BRANCH   4  15
ATOM     15  C   UNL     1      -2.422  -5.578   2.274  0.00  0.00    +0.106 C 
BRANCH  15  16
ATOM     16  C   UNL     1      -3.922  -5.860   2.169  0.00  0.00    +0.026 C 
BRANCH  16  17
ATOM     17  C   UNL     1      -4.218  -7.255   2.724  0.00  0.00    +0.078 C 
BRANCH  17  18
ATOM     18  C   UNL     1      -5.696  -7.533   2.620  0.00  0.00    +0.134 A 
ATOM     19  N   UNL     1      -6.602  -7.259   3.521  0.00  0.00    -0.134 NA
ATOM     20  N   UNL     1      -7.761  -7.626   3.096  0.00  0.00    -0.134 NA
ATOM     21  C   UNL     1      -7.645  -8.145   1.907  0.00  0.00    +0.133 A 
ATOM     22  N   UNL     1      -6.333  -8.107   1.576  0.00  0.00    -0.315 N 
ATOM     23  C   UNL     1      -5.732  -8.606   0.339  0.00  0.00    +0.125 C 
ATOM     24  C   UNL     1      -6.762  -8.533  -0.792  0.00  0.00    +0.022 C 
ATOM     25  C   UNL     1      -7.567  -9.831  -0.839  0.00  0.00    +0.002 C 
ATOM     26  C   UNL     1      -8.327 -10.037   0.468  0.00  0.00    +0.008 C 
ATOM     27  C   UNL     1      -8.750  -8.685   1.037  0.00  0.00    +0.076 C 
ENDBRANCH  17  18
ENDBRANCH  16  17
ENDBRANCH  15  16
ENDBRANCH   4  15
TORSDOF 5
