REMARK  Name = ZINC20238915
REMARK  6 active torsions:
REMARK  status: ('A' for Active; 'I' for Inactive)
REMARK    1  A    between atoms: C_1  and  C_2
REMARK    2  A    between atoms: C_5  and  N_27
REMARK    3  A    between atoms: C_7  and  C_8
REMARK    4  A    between atoms: C_11  and  C_13
REMARK    5  A    between atoms: C_24  and  S_25
REMARK    6  A    between atoms: S_25  and  C_26
REMARK                            x       y       z     vdW  Elec       q    Type
REMARK                         _______ _______ _______ _____ _____    ______ ____
ROOT
ATOM      1  C   UNL     1       0.000   0.496   2.066  0.00  0.00    +0.136 A 
ATOM      2  C   UNL     1      -1.144   0.523   2.864  0.00  0.00    +0.050 A 
ATOM      3  C   UNL     1      -0.840   1.271   3.985  0.00  0.00    +0.050 A 
ATOM      4  C   UNL     1       0.493   1.688   3.846  0.00  0.00    +0.129 A 
ATOM      5  O   UNL     1       0.968   1.198   2.681  0.00  0.00    -0.455 OA
ENDROOT
BRANCH   4   6
ATOM      6  C   UNL     1       1.206   2.470   4.757  0.00  0.00    +0.062 C 
ATOM      7  C   UNL     1       2.574   2.684   4.574  0.00  0.00    +0.082 C 
ATOM      8  C   UNL     1       3.325   3.699   5.370  0.00  0.00    +0.138 C 
ATOM      9  N   UNL     1       3.031   4.007   6.603  0.00  0.00    -0.284 NA
ATOM     10  N   UNL     1       4.385   4.290   4.653  0.00  0.00    -0.211 N 
ATOM     11  C   UNL     1       4.913   3.596   3.574  0.00  0.00    +0.183 C 
ATOM     12  N   UNL     1       4.479   2.475   3.076  0.00  0.00    -0.152 NA
ATOM     13  C   UNL     1       3.356   1.914   3.585  0.00  0.00    +0.273 C 
ATOM     14  O   UNL     1       2.996   0.802   3.233  0.00  0.00    -0.268 OA
ATOM     15  S   UNL     1       6.260   4.637   3.090  0.00  0.00    +0.048 S 
ATOM     16  N   UNL     1       6.030   5.847   4.147  0.00  0.00    -0.185 NA
ATOM     17  C   UNL     1       4.985   5.469   4.884  0.00  0.00    +0.175 C 
ATOM     18  H   UNL     1       2.290   3.568   7.049  0.00  0.00    +0.188 HD
BRANCH  17  19
ATOM     19  S   UNL     1       4.422   6.461   6.091  0.00  0.00    -0.093 S 
ATOM     20  C   UNL     1       5.522   7.902   6.024  0.00  0.00    +0.093 C 
ENDBRANCH  17  19
ENDBRANCH   4   6
BRANCH   1  27
ATOM     21  C   UNL     1       1.077   1.930  -0.209  0.00  0.00    +0.044 C 
ATOM     22  C   UNL     1       0.647   0.491  -0.337  0.00  0.00    -0.040 A 
ATOM     23  C   UNL     1       0.768  -0.161  -1.545  0.00  0.00    +0.006 A 
ATOM     24  C   UNL     1       0.374  -1.483  -1.666  0.00  0.00    +0.033 A 
ATOM     25  C   UNL     1      -0.145  -2.162  -0.575  0.00  0.00    +0.127 A 
ATOM     26  C   UNL     1      -0.273  -1.526   0.640  0.00  0.00    +0.044 A 
ATOM     27  C   UNL     1       0.128  -0.189   0.772  0.00  0.00    +0.022 A 
BRANCH  25  28
ATOM     28  N   UNL     1      -0.563  -3.575  -0.716  0.00  0.00    +0.056 N 
ATOM     29  O   UNL     1      -0.441  -4.185  -1.877  0.00  0.00    -0.126 OA
ATOM     30  O   UNL     1      -1.056  -4.222   0.320  0.00  0.00    -0.126 OA
ENDBRANCH  25  28
ENDBRANCH   1  27
TORSDOF 4
