REMARK  Name = ZINC09562729
REMARK  9 active torsions:
REMARK  status: ('A' for Active; 'I' for Inactive)
REMARK    1  A    between atoms: C_4  and  C_7
REMARK    2  A    between atoms: C_7  and  N_8
REMARK    3  A    between atoms: C_12  and  C_14
REMARK    4  A    between atoms: C_14  and  O_15
REMARK    5  A    between atoms: O_15  and  C_16
REMARK    6  A    between atoms: C_16  and  C_18
REMARK    7  A    between atoms: C_19  and  C_27
REMARK    8  A    between atoms: C_27  and  S_28
REMARK    9  A    between atoms: S_28  and  C_29
REMARK                            x       y       z     vdW  Elec       q    Type
REMARK                         _______ _______ _______ _____ _____    ______ ____
ROOT
ATOM      1  C   UNL     1       2.160   6.711   0.016  0.00  0.00    +0.376 C 
ATOM      2  O   UNL     1       3.373   6.798   0.005  0.00  0.00    -0.241 OA
ENDROOT
BRANCH   1   3
ATOM      3  C   UNL     1       1.519   5.391   0.015  0.00  0.00    +0.217 A 
ATOM      4  C   UNL     1       2.177   4.202   0.003  0.00  0.00    +0.022 A 
ATOM      5  C   UNL     1       1.143   3.167   0.008  0.00  0.00    +0.025 A 
ATOM      6  C   UNL     1       1.164   1.770   0.001  0.00  0.00    +0.012 A 
ATOM      7  C   UNL     1      -0.013   1.076   0.008  0.00  0.00    +0.001 A 
ATOM      8  C   UNL     1      -1.227   1.749   0.017  0.00  0.00    +0.004 A 
ATOM      9  C   UNL     1      -1.269   3.126   0.031  0.00  0.00    +0.047 A 
ATOM     10  C   UNL     1      -0.085   3.855   0.023  0.00  0.00    +0.136 A 
ATOM     11  O   UNL     1       0.187   5.174   0.027  0.00  0.00    -0.448 OA
BRANCH   4  12
ATOM     12  C   UNL     1       3.669   3.992  -0.012  0.00  0.00    +0.108 C 
BRANCH  12  13
ATOM     13  S   UNL     1       4.251   3.917  -1.729  0.00  0.00    -0.161 S 
BRANCH  13  14
ATOM     14  C   UNL     1       6.041   3.664  -1.574  0.00  0.00    +0.048 C 
ATOM     15  C   UNL     1       7.582   2.573  -0.006  0.00  0.00    -0.069 C 
ATOM     16  C   UNL     1       7.550   3.930   0.759  0.00  0.00    +0.049 C 
ATOM     17  S   UNL     1       6.803   4.993  -0.552  0.00  0.00    -0.168 S 
ATOM     18  N   UNL     1       6.325   2.425  -0.787  0.00  0.00    +0.393 N 
ATOM     19  H   UNL     1       6.421   1.631  -1.431  0.00  0.00    -0.083 HD
ATOM     20  H   UNL     1       5.546   2.249  -0.141  0.00  0.00    -0.083 HD
ENDBRANCH  13  14
ENDBRANCH  12  13
ENDBRANCH   4  12
ENDBRANCH   1   3
BRANCH   1  21
ATOM     21  O   UNL     1       1.404   7.828   0.029  0.00  0.00    -0.450 OA
BRANCH  21  22
ATOM     22  C   UNL     1       2.106   9.099   0.029  0.00  0.00    +0.328 C 
BRANCH  22  27
ATOM     23  N   UNL     1       1.060  13.791   0.062  0.00  0.00    -0.295 N 
ATOM     24  C   UNL     1       0.635  12.512   0.060  0.00  0.00    +0.306 C 
ATOM     25  O   UNL     1      -0.555  12.267   0.070  0.00  0.00    -0.252 OA
ATOM     26  N   UNL     1       1.530  11.505   0.046  0.00  0.00    -0.237 N 
ATOM     27  C   UNL     1       1.105  10.226   0.044  0.00  0.00    +0.258 C 
ATOM     28  O   UNL     1      -0.082   9.982   0.053  0.00  0.00    -0.272 OA
ATOM     29  H   UNL     1       2.010  13.987   0.054  0.00  0.00    +0.151 HD
ATOM     30  H   UNL     1       2.480  11.700   0.038  0.00  0.00    +0.159 HD
BRANCH  23  31
ATOM     31  C   UNL     1       0.087  14.886   0.077  0.00  0.00    +0.141 C 
BRANCH  31  35
ATOM     32  C   UNL     1       2.151  18.626   0.076  0.00  0.00    +0.000 A 
ATOM     33  C   UNL     1       1.806  18.027  -1.121  0.00  0.00    +0.000 A 
ATOM     34  C   UNL     1       1.138  16.817  -1.121  0.00  0.00    +0.005 A 
ATOM     35  C   UNL     1       0.815  16.206   0.076  0.00  0.00    -0.030 A 
ATOM     36  C   UNL     1       1.156  16.807   1.274  0.00  0.00    +0.005 A 
ATOM     37  C   UNL     1       1.828  18.015   1.273  0.00  0.00    +0.000 A 
ENDBRANCH  31  35
ENDBRANCH  23  31
ENDBRANCH  22  27
ENDBRANCH  21  22
ENDBRANCH   1  21
TORSDOF 9
