REMARK  Name = ZINC31256818
REMARK  4 active torsions:
REMARK  status: ('A' for Active; 'I' for Inactive)
REMARK    1  A    between atoms: C_6  and  N_7
REMARK    2  A    between atoms: C_8  and  C_10
REMARK    3  A    between atoms: C_10  and  O_11
REMARK    4  A    between atoms: O_11  and  C_12
REMARK                            x       y       z     vdW  Elec       q    Type
REMARK                         _______ _______ _______ _____ _____    ______ ____
ROOT
ATOM      1  N   UNL     1      -1.202  -0.721   0.010  0.00  0.00    -0.283 N 
ATOM      2  C   UNL     1      -2.374  -0.067   0.126  0.00  0.00    +0.255 C 
ATOM      3  O   UNL     1      -2.394   1.146   0.133  0.00  0.00    -0.272 OA
ATOM      4  H   UNL     1      -1.191  -1.688  -0.063  0.00  0.00    +0.155 HD
ENDROOT
BRANCH   1  10
ATOM      5  C   UNL     1       1.139  -0.542   0.583  0.00  0.00    +0.027 A 
ATOM      6  C   UNL     1       2.328   0.160   0.571  0.00  0.00    +0.050 A 
ATOM      7  C   UNL     1       2.390   1.407  -0.031  0.00  0.00    +0.157 A 
ATOM      8  C   UNL     1       1.249   1.950  -0.623  0.00  0.00    +0.089 A 
ATOM      9  C   UNL     1       0.057   1.245  -0.610  0.00  0.00    +0.052 A 
ATOM     10  C   UNL     1       0.002  -0.003  -0.006  0.00  0.00    +0.036 A 
ATOM     11  N   UNL     1       1.620   3.193  -1.135  0.00  0.00    -0.288 N 
ATOM     12  H   UNL     1       1.042   3.814  -1.606  0.00  0.00    +0.172 HD
ATOM     13  C   UNL     1       2.925   3.374  -0.856  0.00  0.00    +0.419 A 
ATOM     14  O   UNL     1       3.579   4.354  -1.158  0.00  0.00    -0.223 OA
ATOM     15  O   UNL     1       3.393   2.305  -0.193  0.00  0.00    -0.408 OA
ENDBRANCH   1  10
BRANCH   2  16
ATOM     16  C   UNL     1      -3.661  -0.842   0.248  0.00  0.00    +0.325 C 
BRANCH  16  17
ATOM     17  O   UNL     1      -4.757   0.068   0.358  0.00  0.00    -0.481 OA
BRANCH  17  18
ATOM     18  C   UNL     1      -5.998  -0.473   0.476  0.00  0.00    +0.141 A 
ATOM     19  C   UNL     1      -6.157  -1.851   0.492  0.00  0.00    +0.067 A 
ATOM     20  C   UNL     1      -7.421  -2.398   0.613  0.00  0.00    +0.045 A 
ATOM     21  C   UNL     1      -8.527  -1.573   0.718  0.00  0.00    +0.021 A 
ATOM     22  C   UNL     1      -8.371  -0.200   0.703  0.00  0.00    +0.025 A 
ATOM     23  C   UNL     1      -7.109   0.353   0.587  0.00  0.00    +0.083 A 
ATOM     24 CL   UNL     1      -6.913   2.078   0.575  0.00  0.00    -0.080 Cl
ATOM     25 CL   UNL     1      -7.621  -4.123   0.632  0.00  0.00    -0.083 Cl
ENDBRANCH  17  18
ENDBRANCH  16  17
ENDBRANCH   2  16
TORSDOF 4
