REMARK  Name = ZINC27580887
REMARK  7 active torsions:
REMARK  status: ('A' for Active; 'I' for Inactive)
REMARK    1  A    between atoms: C_1  and  C_2
REMARK    2  A    between atoms: C_5  and  O_9
REMARK    3  A    between atoms: C_7  and  C_8
REMARK    4  A    between atoms: O_9  and  C_10
REMARK    5  A    between atoms: C_10  and  C_12
REMARK    6  A    between atoms: C_10  and  C_13
REMARK    7  A    between atoms: N_15  and  C_16
REMARK                            x       y       z     vdW  Elec       q    Type
REMARK                         _______ _______ _______ _____ _____    ______ ____
ROOT
ATOM      1  C   UNL     1      -1.298  -0.609  -0.685  0.00  0.00    +0.258 C 
ATOM      2  O   UNL     1      -2.203   0.198  -0.728  0.00  0.00    -0.271 OA
ATOM      3  N   UNL     1      -1.478  -1.849  -1.182  0.00  0.00    -0.282 N 
ATOM      4  H   UNL     1      -0.689  -2.607  -1.066  0.00  0.00    +0.155 HD
ENDROOT
BRANCH   3   5
ATOM      5  C   UNL     1      -2.668  -2.172  -1.845  0.00  0.00    +0.035 A 
ATOM      6  C   UNL     1      -3.181  -3.460  -1.761  0.00  0.00    +0.027 A 
ATOM      7  C   UNL     1      -4.359  -3.783  -2.410  0.00  0.00    +0.049 A 
ATOM      8  C   UNL     1      -5.024  -2.823  -3.153  0.00  0.00    +0.142 A 
ATOM      9  C   UNL     1      -4.508  -1.531  -3.245  0.00  0.00    +0.077 A 
ATOM     10  C   UNL     1      -3.332  -1.207  -2.591  0.00  0.00    +0.050 A 
ATOM     11  N   UNL     1      -5.193  -0.572  -4.004  0.00  0.00    -0.280 N 
ATOM     12  C   UNL     1      -6.473  -0.811  -4.362  0.00  0.00    +0.255 C 
ATOM     13  O   UNL     1      -7.075  -0.009  -5.044  0.00  0.00    -0.272 OA
ATOM     14  C   UNL     1      -7.150  -2.080  -3.911  0.00  0.00    +0.325 C 
ATOM     15  O   UNL     1      -6.183  -3.127  -3.799  0.00  0.00    -0.481 OA
ATOM     16  H   UNL     1      -4.687   0.360  -4.298  0.00  0.00    +0.155 HD
ENDBRANCH   3   5
BRANCH   1  17
ATOM     17  C   UNL     1       0.025  -0.225  -0.076  0.00  0.00    +0.256 C 
ATOM     18  C   UNL     1       0.328  -1.145   1.108  0.00  0.00    +0.062 C 
BRANCH  17  19
ATOM     19  O   UNL     1      -0.033   1.130   0.375  0.00  0.00    -0.480 OA
BRANCH  19  24
ATOM     20  C   UNL     1       4.851   3.909   0.758  0.00  0.00    +0.044 C 
ATOM     21  C   UNL     1       3.545   3.166   0.656  0.00  0.00    -0.047 A 
ATOM     22  C   UNL     1       3.539   1.820   0.337  0.00  0.00    +0.007 A 
ATOM     23  C   UNL     1       2.343   1.136   0.242  0.00  0.00    +0.046 A 
ATOM     24  C   UNL     1       1.146   1.800   0.468  0.00  0.00    +0.122 A 
ATOM     25  C   UNL     1       1.153   3.151   0.782  0.00  0.00    +0.049 A 
ATOM     26  C   UNL     1       2.353   3.830   0.881  0.00  0.00    -0.044 A 
ATOM     27  C   UNL     1       2.362   5.296   1.228  0.00  0.00    +0.044 C 
ENDBRANCH  19  24
ENDBRANCH  17  19
ENDBRANCH   1  17
TORSDOF 4
