REMARK  Name = ZINC39826517
REMARK  5 active torsions:
REMARK  status: ('A' for Active; 'I' for Inactive)
REMARK    1  A    between atoms: C_1  and  C_2
REMARK    2  A    between atoms: C_2  and  C_4
REMARK    3  A    between atoms: C_15  and  C_31
REMARK    4  A    between atoms: C_22  and  C_23
REMARK    5  A    between atoms: C_28  and  O_29
REMARK                            x       y       z     vdW  Elec       q    Type
REMARK                         _______ _______ _______ _____ _____    ______ ____
ROOT
ATOM      1  C   UNL     1       0.014  -1.190  -1.755  0.00  0.00    +0.149 C 
ATOM      2  C   UNL     1      -0.702  -2.510  -1.421  0.00  0.00    +0.142 C 
ATOM      3  C   UNL     1      -0.583  -3.425  -2.619  0.00  0.00    +0.018 A 
ATOM      4  C   UNL     1      -1.521  -4.426  -2.792  0.00  0.00    +0.009 A 
ATOM      5  C   UNL     1      -1.431  -5.284  -3.872  0.00  0.00    +0.001 A 
ATOM      6  C   UNL     1      -0.399  -5.141  -4.781  0.00  0.00    +0.004 A 
ATOM      7  C   UNL     1       0.536  -4.141  -4.614  0.00  0.00    +0.046 A 
ATOM      8  C   UNL     1       0.446  -3.270  -3.531  0.00  0.00    +0.129 A 
ATOM      9  O   UNL     1       1.370  -2.283  -3.420  0.00  0.00    -0.464 OA
ATOM     10  C   UNL     1       1.441  -1.518  -2.207  0.00  0.00    +0.213 C 
ATOM     11  N   UNL     1       2.144  -2.244  -1.145  0.00  0.00    -0.215 NA
ATOM     12  C   UNL     1       1.464  -2.954  -0.307  0.00  0.00    +0.176 A 
ATOM     13  N   UNL     1       0.084  -3.144  -0.320  0.00  0.00    -0.278 N 
ATOM     14  C   UNL     1      -0.465  -3.879   0.644  0.00  0.00    +0.268 A 
ATOM     15  O   UNL     1      -1.669  -4.044   0.699  0.00  0.00    -0.266 OA
ATOM     16  C   UNL     1       0.432  -4.486   1.643  0.00  0.00    +0.081 A 
ATOM     17  C   UNL     1       0.130  -5.276   2.704  0.00  0.00    +0.032 C 
ATOM     18  S   UNL     1       2.030  -3.902   1.080  0.00  0.00    -0.046 S 
ATOM     19  C   UNL     1       2.194  -0.214  -2.481  0.00  0.00    +0.084 C 
ENDROOT
BRANCH  17  20
ATOM     20  C   UNL     1       1.204  -5.922   3.468  0.00  0.00    +0.018 A 
ATOM     21  C   UNL     1       2.485  -6.045   2.917  0.00  0.00    +0.011 A 
ATOM     22  C   UNL     1       3.487  -6.652   3.640  0.00  0.00    +0.001 A 
ATOM     23  C   UNL     1       3.235  -7.143   4.911  0.00  0.00    +0.004 A 
ATOM     24  C   UNL     1       1.975  -7.029   5.468  0.00  0.00    +0.046 A 
ATOM     25  C   UNL     1       0.955  -6.415   4.759  0.00  0.00    +0.124 A 
BRANCH  25  26
ATOM     26  O   UNL     1      -0.281  -6.298   5.307  0.00  0.00    -0.506 OA
ATOM     27  H   UNL     1      -0.866  -7.045   5.123  0.00  0.00    +0.292 HD
ENDBRANCH  25  26
ENDBRANCH  17  20
BRANCH   1  29
ATOM     28  C   UNL     1       0.069   1.188  -0.679  0.00  0.00    +0.086 C 
ATOM     29  C   UNL     1       0.058  -0.312  -0.531  0.00  0.00    +0.141 C 
ATOM     30  O   UNL     1       0.084  -0.810   0.569  0.00  0.00    -0.297 OA
ENDBRANCH   1  29
TORSDOF 3
