REMARK  Name = ZINC04102550
REMARK  5 active torsions:
REMARK  status: ('A' for Active; 'I' for Inactive)
REMARK    1  A    between atoms: C_1  and  N_2
REMARK    2  A    between atoms: N_7  and  C_10
REMARK    3  A    between atoms: N_11  and  C_15
REMARK    4  A    between atoms: C_15  and  C_16
REMARK    5  A    between atoms: C_16  and  C_18
REMARK                            x       y       z     vdW  Elec       q    Type
REMARK                         _______ _______ _______ _____ _____    ______ ____
ROOT
ATOM      1  C   UNL     1      -0.018   1.461   0.010  0.00  0.00    +0.155 C 
ATOM      2  N   UNL     1       0.002  -0.004   0.002  0.00  0.00    -0.280 N 
ATOM      3  C   UNL     1      -1.189  -0.712   0.004  0.00  0.00    +0.169 A 
ATOM      4  C   UNL     1      -1.143  -2.101  -0.004  0.00  0.00    +0.153 A 
ATOM      5  C   UNL     1       0.110  -2.748  -0.013  0.00  0.00    +0.282 A 
ATOM      6  O   UNL     1       0.176  -3.964  -0.021  0.00  0.00    -0.265 OA
ATOM      7  N   UNL     1       1.236  -2.003  -0.015  0.00  0.00    -0.262 N 
ATOM      8  C   UNL     1       1.178  -0.660  -0.013  0.00  0.00    +0.333 A 
ATOM      9  O   UNL     1       2.213  -0.022  -0.020  0.00  0.00    -0.246 OA
ATOM     10  C   UNL     1       2.541  -2.669  -0.025  0.00  0.00    +0.157 C 
ATOM     11  N   UNL     1      -2.457  -2.531   0.000  0.00  0.00    -0.306 N 
ATOM     12  C   UNL     1      -3.232  -1.428   0.010  0.00  0.00    +0.181 A 
ATOM     13  N   UNL     1      -2.476  -0.357   0.012  0.00  0.00    -0.203 NA
ATOM     14 BR   UNL     1      -5.123  -1.426   0.018  0.00  0.00    -0.008 Br
ENDROOT
BRANCH  11  15
ATOM     15  C   UNL     1      -2.919  -3.921  -0.006  0.00  0.00    +0.199 C 
BRANCH  15  16
ATOM     16  C   UNL     1      -3.070  -4.406   1.413  0.00  0.00    +0.159 C 
ATOM     17  O   UNL     1      -2.818  -3.667   2.334  0.00  0.00    -0.295 OA
BRANCH  16  18
ATOM     18  C   UNL     1      -3.536  -5.813   1.683  0.00  0.00    +0.032 C 
ATOM     19  C   UNL     1      -2.553  -6.805   1.056  0.00  0.00    +0.018 C 
ATOM     20  C   UNL     1      -3.026  -8.234   1.330  0.00  0.00    -0.010 C 
ATOM     21  C   UNL     1      -3.094  -8.468   2.840  0.00  0.00    +0.007 C 
ATOM     22  C   UNL     1      -4.077  -7.477   3.467  0.00  0.00    -0.010 C 
ATOM     23  C   UNL     1      -3.604  -6.048   3.193  0.00  0.00    +0.018 C 
ATOM     24  C   UNL     1      -5.465  -7.680   2.856  0.00  0.00    +0.007 C 
ATOM     25  C   UNL     1      -5.397  -7.446   1.346  0.00  0.00    -0.010 C 
ATOM     26  C   UNL     1      -4.415  -8.437   0.720  0.00  0.00    +0.007 C 
ATOM     27  C   UNL     1      -4.924  -6.017   1.072  0.00  0.00    +0.018 C 
ENDBRANCH  16  18
ENDBRANCH  15  16
ENDBRANCH  11  15
TORSDOF 3
