REMARK  Name = ZINC03071235
REMARK  2 active torsions:
REMARK  status: ('A' for Active; 'I' for Inactive)
REMARK    1  A    between atoms: C_10  and  C_11
REMARK    2  A    between atoms: N_15  and  N_19
REMARK                            x       y       z     vdW  Elec       q    Type
REMARK                         _______ _______ _______ _____ _____    ______ ____
ROOT
ATOM      1  C   UNL     1      -1.033  -0.885   0.008  0.00  0.00    +0.029 C 
ATOM      2  C   UNL     1      -0.148  -0.323  -0.857  0.00  0.00    +0.078 C 
ATOM      3  C   UNL     1      -0.364   0.723  -1.878  0.00  0.00    +0.272 C 
ATOM      4  O   UNL     1      -1.458   1.223  -2.060  0.00  0.00    -0.268 OA
ATOM      5  N   UNL     1       0.692   1.085  -2.587  0.00  0.00    -0.189 N 
ATOM      6  C   UNL     1       1.902   0.525  -2.386  0.00  0.00    +0.135 C 
ATOM      7  S   UNL     1       3.374   0.856  -3.194  0.00  0.00    -0.026 S 
ATOM      8  S   UNL     1       1.597  -0.645  -1.072  0.00  0.00    -0.060 S 
ENDROOT
BRANCH   1  18
ATOM      9  C   UNL     1      -5.771  -2.875   0.431  0.00  0.00    +0.001 A 
ATOM     10  C   UNL     1      -4.497  -3.426   0.325  0.00  0.00    +0.001 A 
ATOM     11  C   UNL     1      -3.394  -2.629   0.224  0.00  0.00    +0.009 A 
ATOM     12  C   UNL     1      -3.544  -1.238   0.227  0.00  0.00    -0.011 A 
ATOM     13  C   UNL     1      -4.838  -0.674   0.341  0.00  0.00    -0.017 A 
ATOM     14  C   UNL     1      -5.951  -1.525   0.449  0.00  0.00    +0.008 A 
ATOM     15  C   UNL     1      -4.985   0.724   0.338  0.00  0.00    +0.008 A 
ATOM     16  C   UNL     1      -3.897   1.538   0.232  0.00  0.00    +0.001 A 
ATOM     17  C   UNL     1      -2.611   1.031   0.124  0.00  0.00    +0.008 A 
ATOM     18  C   UNL     1      -2.390  -0.345   0.121  0.00  0.00    -0.016 A 
ENDBRANCH   1  18
BRANCH   5  19
ATOM     19  N   UNL     1       0.553   2.048  -3.547  0.00  0.00    -0.246 NA
ATOM     20  H   UNL     1       1.432   2.226  -4.009  0.00  0.00    +0.141 HD
ATOM     21  H   UNL     1      -0.161   1.794  -4.213  0.00  0.00    +0.141 HD
ENDBRANCH   5  19
TORSDOF 2
