REMARK  Name = ZINC20420525
REMARK  9 active torsions:
REMARK  status: ('A' for Active; 'I' for Inactive)
REMARK    1  A    between atoms: C_1  and  C_2
REMARK    2  A    between atoms: C_3  and  N_17
REMARK    3  A    between atoms: C_4  and  C_16
REMARK    4  A    between atoms: N_5  and  C_7
REMARK    5  A    between atoms: C_7  and  C_9
REMARK    6  A    between atoms: C_7  and  C_10
REMARK    7  A    between atoms: N_12  and  C_13
REMARK    8  A    between atoms: C_13  and  C_14
REMARK    9  A    between atoms: C_13  and  C_15
REMARK                            x       y       z     vdW  Elec       q    Type
REMARK                         _______ _______ _______ _____ _____    ______ ____
ROOT
ATOM      1  C   UNL     1      -4.350  -1.812   1.423  0.00  0.00    +0.069 C 
ATOM      2  C   UNL     1      -3.740  -0.670   0.651  0.00  0.00    +0.081 A 
ATOM      3  C   UNL     1      -4.221  -0.147  -0.558  0.00  0.00    +0.068 A 
ATOM      4  C   UNL     1      -3.399   0.867  -0.929  0.00  0.00    +0.058 A 
ATOM      5  N   UNL     1      -2.430   0.977   0.019  0.00  0.00    -0.255 N 
ATOM      6  N   UNL     1      -2.668  -0.002   0.992  0.00  0.00    -0.174 NA
ATOM      7  C   UNL     1      -3.534   1.716  -2.167  0.00  0.00    +0.067 C 
ENDROOT
BRANCH   3   8
ATOM      8  N   UNL     1      -5.355  -0.595  -1.262  0.00  0.00    -0.355 N 
ATOM      9  H   UNL     1      -5.643  -0.110  -2.206  0.00  0.00    +0.142 HD
ATOM     10  H   UNL     1      -5.952  -1.430  -0.868  0.00  0.00    +0.142 HD
ENDBRANCH   3   8
BRANCH   5  11
ATOM     11  C   UNL     1      -1.330   1.944   0.019  0.00  0.00    +0.190 C 
ATOM     12  C   UNL     1      -1.417   2.816   1.273  0.00  0.00    +0.042 C 
BRANCH  11  13
ATOM     13  C   UNL     1      -0.014   1.209   0.009  0.00  0.00    +0.238 C 
ATOM     14  O   UNL     1       0.002  -0.004   0.002  0.00  0.00    -0.273 OA
ATOM     15  N   UNL     1       1.143   1.898   0.001  0.00  0.00    -0.311 N 
ATOM     16  H   UNL     1       1.129   2.998   0.007  0.00  0.00    +0.149 HD
BRANCH  15  17
ATOM     17  C   UNL     1       2.422   1.183  -0.015  0.00  0.00    +0.067 C 
ATOM     18  C   UNL     1       3.499   2.078  -0.630  0.00  0.00    +0.027 C 
ATOM     19  C   UNL     1       2.819   0.817   1.417  0.00  0.00    +0.027 C 
ENDBRANCH  15  17
ENDBRANCH  11  13
ENDBRANCH   5  11
TORSDOF 4
