REMARK  Name = ZINC40802044
REMARK  4 active torsions:
REMARK  status: ('A' for Active; 'I' for Inactive)
REMARK    1  A    between atoms: C_1  and  N_2
REMARK    2  A    between atoms: C_11  and  C_13
REMARK    3  A    between atoms: N_15  and  C_16
REMARK    4  A    between atoms: C_17  and  C_25
REMARK                            x       y       z     vdW  Elec       q    Type
REMARK                         _______ _______ _______ _____ _____    ______ ____
ROOT
ATOM      1  C   UNL     1       2.640  -2.493  -0.024  0.00  0.00    +0.273 C 
ATOM      2  O   UNL     1       2.775  -3.701  -0.031  0.00  0.00    -0.268 OA
ATOM      3  N   UNL     1       3.726  -1.694  -0.024  0.00  0.00    -0.274 N 
ATOM      4  H   UNL     1       3.618  -0.730  -0.019  0.00  0.00    +0.156 HD
ENDROOT
BRANCH   1  15
ATOM      5  C   UNL     1      -0.018   1.461   0.010  0.00  0.00    +0.173 C 
ATOM      6  N   UNL     1       0.002  -0.004   0.002  0.00  0.00    -0.266 N 
ATOM      7  C   UNL     1      -1.198  -0.672   0.004  0.00  0.00    +0.071 A 
ATOM      8  C   UNL     1      -2.411   0.012   0.014  0.00  0.00    +0.028 A 
ATOM      9  C   UNL     1      -3.593  -0.696   0.015  0.00  0.00    +0.002 A 
ATOM     10  C   UNL     1      -3.592  -2.084   0.007  0.00  0.00    +0.001 A 
ATOM     11  C   UNL     1      -2.413  -2.777  -0.002  0.00  0.00    +0.014 A 
ATOM     12  C   UNL     1      -1.207  -2.081  -0.004  0.00  0.00    +0.049 A 
ATOM     13  C   UNL     1       0.097  -2.769  -0.014  0.00  0.00    +0.220 A 
ATOM     14  O   UNL     1       0.184  -3.984  -0.022  0.00  0.00    -0.285 OA
ATOM     15  C   UNL     1       1.290  -1.902  -0.015  0.00  0.00    +0.193 A 
ATOM     16  N   UNL     1       1.137  -0.596  -0.012  0.00  0.00    -0.162 NA
ENDBRANCH   1  15
BRANCH   3  17
ATOM     17  C   UNL     1       4.995  -2.250  -0.033  0.00  0.00    +0.085 A 
ATOM     18  C   UNL     1       6.214  -1.590  -0.029  0.00  0.00    +0.068 A 
ATOM     19  C   UNL     1       7.413  -2.410  -0.041  0.00  0.00    -0.023 A 
ATOM     20  C   UNL     1       7.173  -3.739  -0.054  0.00  0.00    -0.004 A 
ATOM     21  S   UNL     1       5.409  -3.877  -0.043  0.00  0.00    -0.077 S 
ATOM     22  C   UNL     1       8.191  -4.837  -0.070  0.00  0.00    +0.043 C 
ATOM     23  C   UNL     1       9.549  -4.229  -0.449  0.00  0.00    +0.005 C 
ATOM     24  C   UNL     1       9.786  -2.977   0.400  0.00  0.00    +0.005 C 
ATOM     25  C   UNL     1       8.832  -1.863  -0.037  0.00  0.00    +0.037 C 
BRANCH  18  26
ATOM     26  C   UNL     1       6.290  -0.126  -0.015  0.00  0.00    +0.244 C 
ATOM     27  O   UNL     1       6.325   0.471   1.045  0.00  0.00    -0.270 OA
ATOM     28  N   UNL     1       6.322   0.559  -1.176  0.00  0.00    -0.325 N 
ATOM     29  H   UNL     1       6.295   0.083  -2.020  0.00  0.00    +0.145 HD
ATOM     30  H   UNL     1       6.373   1.527  -1.166  0.00  0.00    +0.145 HD
ENDBRANCH  18  26
ENDBRANCH   3  17
TORSDOF 3
