REMARK  Name = ZINC19941618
REMARK  10 active torsions:
REMARK  status: ('A' for Active; 'I' for Inactive)
REMARK    1  A    between atoms: C_1  and  C_2
REMARK    2  A    between atoms: C_6  and  N_9
REMARK    3  A    between atoms: C_7  and  C_8
REMARK    4  A    between atoms: N_12  and  C_15
REMARK    5  A    between atoms: C_15  and  C_17
REMARK    6  A    between atoms: C_15  and  C_31
REMARK    7  A    between atoms: C_21  and  C_30
REMARK    8  A    between atoms: C_23  and  C_29
REMARK    9  A    between atoms: N_35  and  C_36
REMARK   10  A    between atoms: C_36  and  C_37
REMARK                            x       y       z     vdW  Elec       q    Type
REMARK                         _______ _______ _______ _____ _____    ______ ____
ROOT
ATOM      1  C   UNL     1       2.883   4.748   1.889  0.00  0.00    +0.162 C 
ENDROOT
BRANCH   1   2
ATOM      2  C   UNL     1       3.715   5.933   1.471  0.00  0.00    +0.042 A 
ATOM      3  C   UNL     1       4.671   5.786   0.520  0.00  0.00    +0.021 A 
ATOM      4  C   UNL     1       5.462   6.957   0.137  0.00  0.00    -0.001 A 
ATOM      5  C   UNL     1       6.462   6.867  -0.837  0.00  0.00    +0.013 A 
ATOM      6  C   UNL     1       7.182   7.978  -1.173  0.00  0.00    -0.050 A 
ATOM      7  C   UNL     1       6.930   9.196  -0.555  0.00  0.00    +0.008 A 
ATOM      8  C   UNL     1       5.950   9.308   0.407  0.00  0.00    -0.026 A 
ATOM      9  C   UNL     1       5.204   8.190   0.765  0.00  0.00    +0.052 A 
ATOM     10  N   UNL     1       4.218   8.273   1.725  0.00  0.00    -0.322 N 
ATOM     11  H   UNL     1       4.015   9.232   2.224  0.00  0.00    +0.169 HD
ATOM     12  C   UNL     1       3.493   7.193   2.067  0.00  0.00    +0.254 A 
ATOM     13  O   UNL     1       2.625   7.304   2.916  0.00  0.00    -0.268 OA
ATOM     14  C   UNL     1       5.688  10.636   1.069  0.00  0.00    +0.046 C 
ATOM     15  C   UNL     1       8.259   7.881  -2.222  0.00  0.00    +0.044 C 
ENDBRANCH   1   2
BRANCH   1  19
ATOM     16  N   UNL     1       3.642   3.175   5.735  0.00  0.00    -0.327 N 
ATOM     17  C   UNL     1       2.241   3.318   5.314  0.00  0.00    +0.120 C 
ATOM     18  C   UNL     1       2.178   3.421   3.788  0.00  0.00    +0.104 C 
ATOM     19  N   UNL     1       2.979   4.570   3.344  0.00  0.00    -0.286 NA
ATOM     20  C   UNL     1       4.380   4.427   3.765  0.00  0.00    +0.104 C 
ATOM     21  C   UNL     1       4.442   4.324   5.291  0.00  0.00    +0.120 C 
BRANCH  16  27
ATOM     22  C   UNL     1       4.858   0.368   9.582  0.00  0.00    +0.044 C 
ATOM     23  C   UNL     1       4.319   1.655   9.012  0.00  0.00    -0.046 A 
ATOM     24  C   UNL     1       3.915   2.671   9.859  0.00  0.00    +0.004 A 
ATOM     25  C   UNL     1       3.421   3.853   9.340  0.00  0.00    +0.002 A 
ATOM     26  C   UNL     1       3.334   4.026   7.972  0.00  0.00    +0.023 A 
ATOM     27  C   UNL     1       3.733   3.006   7.119  0.00  0.00    +0.033 A 
ATOM     28  C   UNL     1       4.230   1.819   7.644  0.00  0.00    -0.027 A 
ATOM     29  C   UNL     1       4.670   0.712   6.721  0.00  0.00    +0.046 C 
ENDBRANCH  16  27
ENDBRANCH   1  19
BRANCH   1  30
ATOM     30  C   UNL     1       1.444   4.984   1.506  0.00  0.00    +0.173 A 
ATOM     31  N   UNL     1       0.596   5.785   2.104  0.00  0.00    -0.111 NA
ATOM     32  N   UNL     1      -0.529   5.710   1.482  0.00  0.00    -0.023 NA
ATOM     33  N   UNL     1      -0.419   4.887   0.498  0.00  0.00    -0.044 NA
ATOM     34  N   UNL     1       0.781   4.414   0.483  0.00  0.00    -0.225 N 
BRANCH  34  35
ATOM     35  C   UNL     1       1.322   3.444  -0.472  0.00  0.00    +0.179 C 
BRANCH  35  36
ATOM     36  C   UNL     1       1.103   2.027   0.061  0.00  0.00    +0.140 C 
ATOM     37  C   UNL     1       1.679   0.978  -0.924  0.00  0.00    +0.035 C 
ATOM     38  C   UNL     1       0.844  -0.280  -0.583  0.00  0.00    +0.031 C 
ATOM     39  C   UNL     1      -0.414   0.278   0.111  0.00  0.00    +0.160 C 
ATOM     40  O   UNL     1      -0.305   1.711   0.104  0.00  0.00    -0.375 OA
ENDBRANCH  35  36
ENDBRANCH  34  35
ENDBRANCH   1  30
TORSDOF 6
