REMARK  Name = ZINC05689473
REMARK  4 active torsions:
REMARK  status: ('A' for Active; 'I' for Inactive)
REMARK    1  A    between atoms: C_1  and  N_57
REMARK    2  A    between atoms: N_4  and  C_7
REMARK    3  A    between atoms: C_12  and  N_13
REMARK    4  A    between atoms: C_14  and  C_16
REMARK                            x       y       z     vdW  Elec       q    Type
REMARK                         _______ _______ _______ _____ _____    ______ ____
ROOT
ATOM      1  C   UNL     1      -2.199  -2.845   0.400  0.00  0.00    +0.051 A 
ATOM      2  C   UNL     1      -2.179  -4.227   0.284  0.00  0.00    +0.026 A 
ATOM      3  C   UNL     1      -1.110  -4.853  -0.329  0.00  0.00    +0.022 A 
ATOM      4  C   UNL     1      -0.059  -4.105  -0.829  0.00  0.00    +0.043 A 
ATOM      5  C   UNL     1      -0.074  -2.726  -0.723  0.00  0.00    +0.045 A 
ATOM      6  C   UNL     1      -1.140  -2.091  -0.104  0.00  0.00    +0.056 A 
ATOM      7 CL   UNL     1       1.280  -4.899  -1.599  0.00  0.00    -0.083 Cl
ENDROOT
BRANCH   1  11
ATOM      8  C   UNL     1      -6.909  -1.438   3.043  0.00  0.00    -0.096 C 
ATOM      9  C   UNL     1      -5.680  -1.725   0.976  0.00  0.00    -0.060 C 
ATOM     10  C   UNL     1      -4.537  -2.500   0.316  0.00  0.00    +0.086 C 
ATOM     11  N   UNL     1      -3.281  -2.209   1.020  0.00  0.00    -0.332 N 
ATOM     12  C   UNL     1      -3.374  -2.590   2.436  0.00  0.00    +0.086 C 
ATOM     13  C   UNL     1      -4.517  -1.814   3.096  0.00  0.00    -0.060 C 
ATOM     14  N   UNL     1      -5.777  -2.133   2.393  0.00  0.00    +0.380 N 
ATOM     15  H   UNL     1      -5.938  -3.146   2.438  0.00  0.00    -0.082 HD
ENDBRANCH   1  11
BRANCH   6  16
ATOM     16  N   UNL     1      -1.156  -0.694   0.009  0.00  0.00    -0.283 N 
ATOM     17  C   UNL     1       0.002  -0.004  -0.002  0.00  0.00    +0.223 C 
ATOM     18  O   UNL     1       1.061  -0.596  -0.009  0.00  0.00    -0.275 OA
ATOM     19  H   UNL     1      -2.000  -0.224   0.096  0.00  0.00    +0.155 HD
BRANCH  17  20
ATOM     20  C   UNL     1      -0.019   1.503  -0.006  0.00  0.00    +0.049 C 
ATOM     21  C   UNL     1      -0.758   2.000  -1.250  0.00  0.00    +0.019 C 
ATOM     22  C   UNL     1      -0.779   3.530  -1.254  0.00  0.00    -0.008 C 
ATOM     23  C   UNL     1      -1.497   4.033  -0.000  0.00  0.00    +0.007 C 
ATOM     24  C   UNL     1      -0.758   3.536   1.244  0.00  0.00    -0.008 C 
ATOM     25  C   UNL     1      -0.737   2.006   1.248  0.00  0.00    +0.019 C 
ATOM     26  C   UNL     1       0.677   4.066   1.231  0.00  0.00    +0.026 C 
ATOM     27  C   UNL     1       1.395   3.563  -0.023  0.00  0.00    +0.047 C 
ATOM     28  C   UNL     1       0.656   4.060  -1.267  0.00  0.00    +0.026 C 
ATOM     29  C   UNL     1       1.416   2.033  -0.019  0.00  0.00    +0.039 C 
ATOM     30 CL   UNL     1       3.086   4.188  -0.038  0.00  0.00    -0.118 Cl
ENDBRANCH  17  20
ENDBRANCH   6  16
TORSDOF 3
