REMARK  Name = ZINC64623233
REMARK  9 active torsions:
REMARK  status: ('A' for Active; 'I' for Inactive)
REMARK    1  A    between atoms: C_1  and  C_2
REMARK    2  A    between atoms: C_2  and  O_3
REMARK    3  A    between atoms: O_3  and  C_4
REMARK    4  A    between atoms: C_4  and  C_6
REMARK    5  A    between atoms: C_11  and  N_12
REMARK    6  A    between atoms: C_21  and  O_37
REMARK    7  A    between atoms: C_28  and  C_30
REMARK    8  A    between atoms: C_33  and  C_36
REMARK    9  A    between atoms: O_37  and  C_38
REMARK                            x       y       z     vdW  Elec       q    Type
REMARK                         _______ _______ _______ _____ _____    ______ ____
ROOT
ATOM      1  N   UNL     1      -2.010  -5.338   1.527  0.00  0.00    -0.269 N 
ATOM      2  C   UNL     1      -2.225  -6.411   0.740  0.00  0.00    +0.307 C 
ATOM      3  O   UNL     1      -3.361  -6.746   0.466  0.00  0.00    -0.252 OA
ATOM      4  N   UNL     1      -1.181  -7.113   0.258  0.00  0.00    -0.276 N 
ATOM      5  C   UNL     1       0.186  -6.639   0.500  0.00  0.00    +0.114 C 
ATOM      6  C   UNL     1       0.902  -6.430  -0.847  0.00  0.00    +0.052 C 
ATOM      7  C   UNL     1       0.604  -7.646  -1.689  0.00  0.00    -0.035 C 
ATOM      8  C   UNL     1       1.403  -8.472  -2.351  0.00  0.00    +0.003 A 
ATOM      9  C   UNL     1       2.853  -8.449  -2.599  0.00  0.00    +0.055 A 
ATOM     10  C   UNL     1       3.366  -9.486  -3.317  0.00  0.00    +0.121 A 
ATOM     11  C   UNL     1       2.599 -10.548  -3.818  0.00  0.00    +0.047 A 
ATOM     12  C   UNL     1       1.257 -10.664  -3.656  0.00  0.00    +0.029 A 
ATOM     13  C   UNL     1       0.585  -9.597  -2.901  0.00  0.00    +0.043 A 
ATOM     14  N   UNL     1      -0.670  -9.431  -2.612  0.00  0.00    -0.375 N 
ATOM     15  C   UNL     1      -0.815  -8.160  -1.901  0.00  0.00    +0.131 C 
ATOM     16  C   UNL     1      -1.423  -8.349  -0.502  0.00  0.00    +0.134 C 
ATOM     17  H   UNL     1      -1.106  -5.024   1.683  0.00  0.00    +0.156 HD
ATOM     18  H   UNL     1      -1.389 -10.045  -2.829  0.00  0.00    +0.160 HD
ENDROOT
BRANCH  16  19
ATOM     19  C   UNL     1      -2.906  -8.596  -0.616  0.00  0.00    -0.025 A 
ATOM     20  C   UNL     1      -3.671  -7.826  -1.472  0.00  0.00    +0.006 A 
ATOM     21  C   UNL     1      -5.030  -8.052  -1.577  0.00  0.00    +0.004 A 
ATOM     22  C   UNL     1      -5.625  -9.048  -0.825  0.00  0.00    -0.050 A 
ATOM     23  C   UNL     1      -4.860  -9.819   0.030  0.00  0.00    +0.004 A 
ATOM     24  C   UNL     1      -3.499  -9.595   0.132  0.00  0.00    +0.006 A 
ATOM     25  C   UNL     1      -7.107  -9.294  -0.939  0.00  0.00    +0.044 C 
ENDBRANCH  16  19
BRANCH   1  31
ATOM     26  C   UNL     1      -3.050  -3.288   2.294  0.00  0.00    +0.080 A 
ATOM     27  C   UNL     1      -4.140  -2.638   2.881  0.00  0.00    +0.017 A 
ATOM     28  C   UNL     1      -5.238  -3.366   3.284  0.00  0.00    +0.001 A 
ATOM     29  C   UNL     1      -5.268  -4.741   3.111  0.00  0.00    +0.002 A 
ATOM     30  C   UNL     1      -4.200  -5.396   2.533  0.00  0.00    +0.024 A 
ATOM     31  C   UNL     1      -3.087  -4.679   2.115  0.00  0.00    +0.049 A 
BRANCH  26  32
ATOM     32  C   UNL     1      -1.872  -2.515   1.860  0.00  0.00    +0.341 C 
ATOM     33  O   UNL     1      -0.894  -3.091   1.428  0.00  0.00    -0.245 OA
BRANCH  32  34
ATOM     34  O   UNL     1      -1.881  -1.171   1.943  0.00  0.00    -0.461 OA
BRANCH  34  36
ATOM     35  C   UNL     1      -0.900   1.022   1.674  0.00  0.00    +0.048 C 
ATOM     36  C   UNL     1      -0.705  -0.486   1.505  0.00  0.00    +0.229 C 
ENDBRANCH  34  36
ENDBRANCH  32  34
ENDBRANCH  26  32
ENDBRANCH   1  31
BRANCH  10  37
ATOM     37  O   UNL     1       4.703  -9.492  -3.562  0.00  0.00    -0.495 OA
ATOM     38  C   UNL     1       5.219 -10.590  -4.317  0.00  0.00    +0.277 C 
ENDBRANCH  10  37
TORSDOF 6
