REMARK  Name = ZINC09355689
REMARK  5 active torsions:
REMARK  status: ('A' for Active; 'I' for Inactive)
REMARK    1  A    between atoms: C_1  and  C_2
REMARK    2  A    between atoms: C_2  and  C_3
REMARK    3  A    between atoms: C_4  and  C_25
REMARK    4  A    between atoms: C_13  and  C_18
REMARK    5  A    between atoms: C_23  and  O_24
REMARK                            x       y       z     vdW  Elec       q    Type
REMARK                         _______ _______ _______ _____ _____    ______ ____
ROOT
ATOM      1  C   UNL     1      -3.470   1.002  -0.995  0.00  0.00    +0.073 A 
ATOM      2  C   UNL     1      -2.504   1.004   0.020  0.00  0.00    +0.051 A 
ATOM      3  C   UNL     1      -2.971   0.169   1.037  0.00  0.00    +0.186 A 
ATOM      4  N   UNL     1      -2.471  -0.192   2.225  0.00  0.00    -0.128 NA
ATOM      5  N   UNL     1      -3.110  -0.994   3.002  0.00  0.00    -0.142 NA
ATOM      6  C   UNL     1      -4.307  -1.502   2.652  0.00  0.00    +0.150 A 
ATOM      7  C   UNL     1      -4.871  -1.171   1.437  0.00  0.00    +0.076 A 
ATOM      8  N   UNL     1      -4.187  -0.319   0.622  0.00  0.00    -0.214 N 
ATOM      9  N   UNL     1      -4.458   0.217  -0.640  0.00  0.00    -0.169 NA
ATOM     10  C   UNL     1      -6.196  -1.723   0.995  0.00  0.00    +0.066 C 
ATOM     11  C   UNL     1      -7.032  -2.179   2.189  0.00  0.00    +0.036 C 
ATOM     12  C   UNL     1      -6.213  -3.164   3.034  0.00  0.00    +0.090 C 
ATOM     13  C   UNL     1      -5.013  -2.412   3.571  0.00  0.00    +0.185 C 
ATOM     14  O   UNL     1      -4.647  -2.553   4.718  0.00  0.00    -0.290 OA
ENDROOT
BRANCH  11  15
ATOM     15  C   UNL     1      -8.284  -2.857   1.696  0.00  0.00    -0.002 A 
ATOM     16  C   UNL     1      -8.193  -3.983   0.900  0.00  0.00    +0.007 A 
ATOM     17  C   UNL     1      -9.341  -4.606   0.447  0.00  0.00    +0.001 A 
ATOM     18  C   UNL     1     -10.583  -4.105   0.791  0.00  0.00    +0.004 A 
ATOM     19  C   UNL     1     -10.680  -2.980   1.587  0.00  0.00    +0.046 A 
ATOM     20  C   UNL     1      -9.529  -2.356   2.046  0.00  0.00    +0.120 A 
BRANCH  20  21
ATOM     21  O   UNL     1      -9.621  -1.253   2.834  0.00  0.00    -0.506 OA
ATOM     22  H   UNL     1      -9.644  -0.420   2.344  0.00  0.00    +0.292 HD
ENDBRANCH  20  21
ENDBRANCH  11  15
BRANCH   2  23
ATOM     23  C   UNL     1      -1.229   1.758   0.017  0.00  0.00    -0.012 A 
ATOM     24  C   UNL     1      -0.013   1.076   0.008  0.00  0.00    +0.009 A 
ATOM     25  C   UNL     1       1.172   1.783   0.000  0.00  0.00    +0.001 A 
ATOM     26  C   UNL     1       1.155   3.167   0.007  0.00  0.00    +0.000 A 
ATOM     27  C   UNL     1      -0.049   3.849   0.022  0.00  0.00    +0.001 A 
ATOM     28  C   UNL     1      -1.240   3.152   0.030  0.00  0.00    +0.009 A 
ENDBRANCH   2  23
BRANCH   1  30
ATOM     29  C   UNL     1      -2.695   0.914  -3.349  0.00  0.00    +0.010 C 
ATOM     30  C   UNL     1      -3.384   1.773  -2.287  0.00  0.00    +0.054 C 
ENDBRANCH   1  30
TORSDOF 4
