REMARK  Name = ZINC14538915
REMARK  10 active torsions:
REMARK  status: ('A' for Active; 'I' for Inactive)
REMARK    1  A    between atoms: C_1  and  C_2
REMARK    2  A    between atoms: C_2  and  C_3
REMARK    3  A    between atoms: C_2  and  C_4
REMARK    4  A    between atoms: C_4  and  N_5
REMARK    5  A    between atoms: C_8  and  C_10
REMARK    6  A    between atoms: N_12  and  C_13
REMARK    7  A    between atoms: N_12  and  C_14
REMARK    8  A    between atoms: C_16  and  N_20
REMARK    9  A    between atoms: N_20  and  C_21
REMARK   10  A    between atoms: C_21  and  C_22
REMARK                            x       y       z     vdW  Elec       q    Type
REMARK                         _______ _______ _______ _____ _____    ______ ____
ROOT
ATOM      1  N   UNL     1      -3.848   2.752  -3.592  0.00  0.00    -0.267 N 
ATOM      2  C   UNL     1      -2.897   2.541  -2.668  0.00  0.00    +0.043 A 
ATOM      3  C   UNL     1      -2.854   1.206  -2.433  0.00  0.00    +0.007 A 
ATOM      4  C   UNL     1      -3.833   0.636  -3.264  0.00  0.00    +0.151 A 
ATOM      5  N   UNL     1      -4.389   1.633  -3.932  0.00  0.00    -0.166 NA
ATOM      6  C   UNL     1      -1.919   0.539  -1.462  0.00  0.00    +0.058 C 
ATOM      7  C   UNL     1      -0.795   1.527  -1.120  0.00  0.00    +0.059 C 
ATOM      8  C   UNL     1      -1.402   2.879  -0.736  0.00  0.00    +0.025 C 
ATOM      9  C   UNL     1      -2.007   3.544  -1.980  0.00  0.00    +0.057 C 
ENDROOT
BRANCH   4  10
ATOM     10  C   UNL     1      -4.174  -0.797  -3.372  0.00  0.00    +0.267 C 
ATOM     11  O   UNL     1      -3.580  -1.615  -2.696  0.00  0.00    -0.268 OA
ATOM     12  N   UNL     1      -5.143  -1.197  -4.219  0.00  0.00    -0.302 N 
ATOM     13  C   UNL     1      -5.481  -2.619  -4.325  0.00  0.00    +0.132 C 
ATOM     14  C   UNL     1      -5.858  -0.211  -5.033  0.00  0.00    +0.132 C 
ENDBRANCH   4  10
BRANCH   7  15
ATOM     15  N   UNL     1      -0.012   1.005   0.008  0.00  0.00    -0.309 NA
ATOM     16  H   UNL     1      -0.497   1.287   0.954  0.00  0.00    +0.123 HD
BRANCH  15  17
ATOM     17  C   UNL     1       1.353   1.550  -0.003  0.00  0.00    +0.116 C 
BRANCH  17  18
ATOM     18  C   UNL     1       2.125   0.993   1.166  0.00  0.00    -0.033 A 
ATOM     19  C   UNL     1       2.121   1.659   2.377  0.00  0.00    +0.006 A 
ATOM     20  C   UNL     1       2.825   1.146   3.450  0.00  0.00    +0.020 A 
ATOM     21  C   UNL     1       3.541  -0.029   3.309  0.00  0.00    +0.041 A 
ATOM     22  C   UNL     1       3.549  -0.692   2.095  0.00  0.00    +0.020 A 
ATOM     23  C   UNL     1       2.841  -0.181   1.024  0.00  0.00    +0.006 A 
ATOM     24 CL   UNL     1       4.430  -0.670   4.655  0.00  0.00    -0.084 Cl
ENDBRANCH  17  18
ENDBRANCH  15  17
ENDBRANCH   7  15
BRANCH   1  25
ATOM     25  C   UNL     1      -4.217   4.062  -4.134  0.00  0.00    +0.146 C 
BRANCH  25  27
ATOM     26  C   UNL     1      -3.698   3.357  -6.474  0.00  0.00    +0.009 C 
ATOM     27  C   UNL     1      -3.365   4.361  -5.369  0.00  0.00    +0.004 C 
ATOM     28  C   UNL     1      -3.661   5.779  -5.862  0.00  0.00    +0.009 C 
ENDBRANCH  25  27
ENDBRANCH   1  25
TORSDOF 6
