REMARK  Name = ZINC39464105
REMARK  4 active torsions:
REMARK  status: ('A' for Active; 'I' for Inactive)
REMARK    1  A    between atoms: C_1  and  S_2
REMARK    2  A    between atoms: S_2  and  C_3
REMARK    3  A    between atoms: P_17  and  C_20
REMARK    4  A    between atoms: C_20  and  C_21
REMARK                            x       y       z     vdW  Elec       q    Type
REMARK                         _______ _______ _______ _____ _____    ______ ____
ROOT
ATOM      1  C   UNL     1       0.877  -0.427   1.472  0.00  0.00    +0.043 A 
ATOM      2  C   UNL     1       1.349   0.570   2.312  0.00  0.00    +0.023 A 
ATOM      3  C   UNL     1       2.039   0.243   3.470  0.00  0.00    -0.022 A 
ATOM      4  C   UNL     1       2.254  -1.081   3.786  0.00  0.00    -0.039 A 
ATOM      5  C   UNL     1       1.784  -2.082   2.949  0.00  0.00    +0.043 A 
ATOM      6  C   UNL     1       1.091  -1.762   1.798  0.00  0.00    +0.137 A 
ATOM      7  F   UNL     1       0.629  -2.741   0.989  0.00  0.00    -0.204 F 
ATOM      8  C   UNL     1       2.997  -1.480   5.036  0.00  0.00    +0.052 C 
ATOM      9  C   UNL     1       3.808  -0.293   5.554  0.00  0.00    +0.108 C 
ATOM     10  N   UNL     1       2.920   0.874   5.668  0.00  0.00    -0.226 NA
ATOM     11  C   UNL     1       2.531   1.366   4.346  0.00  0.00    +0.129 C 
ATOM     12  C   UNL     1       1.435   2.430   4.456  0.00  0.00    +0.194 C 
ATOM     13  O   UNL     1       1.955   3.553   5.197  0.00  0.00    -0.314 OA
ATOM     14  P   UNL     1       2.691   3.264   6.618  0.00  0.00    +0.289 P 
ATOM     15  O   UNL     1       1.684   3.095   7.689  0.00  0.00    -0.271 OA
ATOM     16  N   UNL     1       3.538   1.861   6.404  0.00  0.00    -0.179 NA
ATOM     17  H   UNL     1       4.425   1.738   6.777  0.00  0.00    +0.151 HD
ENDROOT
BRANCH   1  19
ATOM     18  C   UNL     1      -0.022   1.810   0.012  0.00  0.00    +0.090 C 
ATOM     19  S   UNL     1       0.002  -0.004   0.002  0.00  0.00    -0.126 S 
ENDBRANCH   1  19
BRANCH  14  20
ATOM     20  C   UNL     1       3.824   4.631   7.030  0.00  0.00    +0.150 C 
BRANCH  20  21
ATOM     21  C   UNL     1       3.043   5.917   7.130  0.00  0.00    -0.037 A 
ATOM     22  C   UNL     1       2.862   6.705   6.009  0.00  0.00    +0.004 A 
ATOM     23  C   UNL     1       2.147   7.884   6.102  0.00  0.00    +0.000 A 
ATOM     24  C   UNL     1       1.612   8.275   7.315  0.00  0.00    +0.000 A 
ATOM     25  C   UNL     1       1.793   7.487   8.436  0.00  0.00    +0.000 A 
ATOM     26  C   UNL     1       2.505   6.305   8.343  0.00  0.00    +0.004 A 
ENDBRANCH  20  21
ENDBRANCH  14  20
TORSDOF 3
