REMARK  Name = ZINC46094057
REMARK  8 active torsions:
REMARK  status: ('A' for Active; 'I' for Inactive)
REMARK    1  A    between atoms: C_4  and  N_7
REMARK    2  A    between atoms: C_9  and  C_12
REMARK    3  A    between atoms: C_12  and  C_13
REMARK    4  A    between atoms: C_13  and  N_14
REMARK    5  A    between atoms: C_15  and  C_17
REMARK    6  A    between atoms: C_17  and  S_18
REMARK    7  A    between atoms: S_18  and  C_19
REMARK    8  A    between atoms: N_23  and  C_24
REMARK                            x       y       z     vdW  Elec       q    Type
REMARK                         _______ _______ _______ _____ _____    ______ ____
ROOT
ATOM      1  N   UNL     1       8.040  -4.907  -1.596  0.00  0.00    -0.314 N 
ATOM      2  C   UNL     1       8.105  -5.576  -2.765  0.00  0.00    +0.223 C 
ATOM      3  O   UNL     1       7.929  -4.988  -3.811  0.00  0.00    -0.275 OA
ATOM      4  H   UNL     1       8.181  -5.378  -0.760  0.00  0.00    +0.149 HD
ENDROOT
BRANCH   1   5
ATOM      5  C   UNL     1       7.758  -3.470  -1.590  0.00  0.00    +0.109 C 
BRANCH   5   6
ATOM      6  C   UNL     1       7.741  -2.960  -0.148  0.00  0.00    +0.057 C 
BRANCH   6   9
ATOM      7  N   UNL     1       6.395   0.431  -0.094  0.00  0.00    -0.240 N 
ATOM      8  C   UNL     1       6.225  -0.910  -0.076  0.00  0.00    +0.118 A 
ATOM      9  C   UNL     1       7.451  -1.481  -0.141  0.00  0.00    -0.008 A 
ATOM     10  C   UNL     1       8.401  -0.455  -0.201  0.00  0.00    +0.138 A 
ATOM     11  N   UNL     1       7.769   0.691  -0.178  0.00  0.00    -0.175 NA
BRANCH   7  15
ATOM     12  C   UNL     1       3.363   3.289   0.054  0.00  0.00    +0.000 A 
ATOM     13  C   UNL     1       4.685   3.688  -0.026  0.00  0.00    +0.002 A 
ATOM     14  C   UNL     1       5.691   2.744  -0.076  0.00  0.00    +0.028 A 
ATOM     15  C   UNL     1       5.375   1.392  -0.044  0.00  0.00    +0.065 A 
ATOM     16  C   UNL     1       4.048   0.994   0.038  0.00  0.00    +0.028 A 
ATOM     17  C   UNL     1       3.045   1.944   0.086  0.00  0.00    +0.002 A 
ENDBRANCH   7  15
ENDBRANCH   6   9
ENDBRANCH   5   6
ENDBRANCH   1   5
BRANCH   2  18
ATOM     18  C   UNL     1       8.395  -7.055  -2.771  0.00  0.00    +0.173 C 
BRANCH  18  19
ATOM     19  S   UNL     1       8.416  -7.660  -4.481  0.00  0.00    -0.077 S 
BRANCH  19  20
ATOM     20  C   UNL     1       8.763  -9.380  -4.321  0.00  0.00    +0.194 A 
ATOM     21  N   UNL     1       8.949 -10.027  -3.196  0.00  0.00    -0.121 NA
ATOM     22  N   UNL     1       9.196 -11.370  -3.506  0.00  0.00    -0.113 NA
ATOM     23  C   UNL     1       9.154 -11.500  -4.809  0.00  0.00    +0.215 A 
ATOM     24  N   UNL     1       8.880 -10.275  -5.347  0.00  0.00    -0.288 N 
ATOM     25  N   UNL     1       9.348 -12.678  -5.519  0.00  0.00    -0.328 N 
ATOM     26  H   UNL     1       9.610 -13.488  -5.053  0.00  0.00    +0.145 HD
ATOM     27  H   UNL     1       9.223 -12.691  -6.481  0.00  0.00    +0.145 HD
BRANCH  24  28
ATOM     28  C   UNL     1       8.740  -9.972  -6.774  0.00  0.00    +0.093 C 
ATOM     29  C   UNL     1       8.036  -8.668  -7.154  0.00  0.00    +0.027 C 
ATOM     30  C   UNL     1       9.550  -8.800  -7.330  0.00  0.00    +0.027 C 
ENDBRANCH  24  28
ENDBRANCH  19  20
ENDBRANCH  18  19
ENDBRANCH   2  18
TORSDOF 8
