REMARK  Name = ZINC58557075
REMARK  8 active torsions:
REMARK  status: ('A' for Active; 'I' for Inactive)
REMARK    1  A    between atoms: C_1  and  C_2
REMARK    2  A    between atoms: N_5  and  C_11
REMARK    3  A    between atoms: C_7  and  C_10
REMARK    4  A    between atoms: C_11  and  C_12
REMARK    5  A    between atoms: C_12  and  C_13
REMARK    6  A    between atoms: C_13  and  N_14
REMARK    7  A    between atoms: N_14  and  S_15
REMARK    8  A    between atoms: S_15  and  C_18
REMARK                            x       y       z     vdW  Elec       q    Type
REMARK                         _______ _______ _______ _____ _____    ______ ____
ROOT
ATOM      1  N   UNL     1       6.245   0.471  -3.806  0.00  0.00    -0.190 NA
ATOM      2  H   UNL     1       6.428   1.224  -3.223  0.00  0.00    +0.148 HD
ENDROOT
BRANCH   1   3
ATOM      3  S   UNL     1       7.409  -0.069  -4.853  0.00  0.00    +0.060 S 
ATOM      4  O   UNL     1       8.535   0.780  -4.680  0.00  0.00    -0.153 OA
ATOM      5  O   UNL     1       7.485  -1.478  -4.685  0.00  0.00    -0.153 OA
BRANCH   3   6
ATOM      6  C   UNL     1       6.812   0.212  -6.486  0.00  0.00    +0.132 A 
ATOM      7  C   UNL     1       7.456   1.103  -7.326  0.00  0.00    +0.057 A 
ATOM      8  C   UNL     1       6.970   1.296  -8.577  0.00  0.00    +0.081 A 
ATOM      9  S   UNL     1       5.561   0.200  -8.599  0.00  0.00    -0.063 S 
ATOM     10  C   UNL     1       5.717  -0.445  -6.941  0.00  0.00    +0.106 A 
ATOM     11 CL   UNL     1       4.723  -1.611  -6.124  0.00  0.00    -0.074 Cl
ATOM     12 CL   UNL     1       7.563   2.338  -9.832  0.00  0.00    -0.076 Cl
ENDBRANCH   3   6
ENDBRANCH   1   3
BRANCH   1  13
ATOM     13  C   UNL     1       4.938  -0.190  -3.760  0.00  0.00    +0.107 C 
BRANCH  13  14
ATOM     14  C   UNL     1       4.197   0.234  -2.490  0.00  0.00    +0.032 C 
BRANCH  14  15
ATOM     15  C   UNL     1       2.832  -0.456  -2.443  0.00  0.00    +0.086 C 
BRANCH  15  19
ATOM     16  C   UNL     1      -0.019   1.526   0.010  0.00  0.00    +0.039 C 
ATOM     17  C   UNL     1       0.002  -0.004   0.002  0.00  0.00    +0.130 C 
ATOM     18  C   UNL     1       0.720  -0.499  -1.256  0.00  0.00    +0.115 C 
ATOM     19  N   UNL     1       2.120  -0.050  -1.224  0.00  0.00    -0.297 NA
ATOM     20  C   UNL     1       2.801  -0.554  -0.023  0.00  0.00    +0.115 C 
ATOM     21  C   UNL     1       2.062  -0.059   1.223  0.00  0.00    +0.130 C 
ATOM     22  O   UNL     1       0.695  -0.479   1.159  0.00  0.00    -0.371 OA
ATOM     23  C   UNL     1       2.719  -0.646   2.474  0.00  0.00    +0.039 C 
ENDBRANCH  15  19
ENDBRANCH  14  15
ENDBRANCH  13  14
ENDBRANCH   1  13
TORSDOF 6
