REMARK  Name = ZINC64735124
REMARK  5 active torsions:
REMARK  status: ('A' for Active; 'I' for Inactive)
REMARK    1  A    between atoms: C_6  and  N_7
REMARK    2  A    between atoms: C_8  and  C_10
REMARK    3  A    between atoms: C_10  and  S_11
REMARK    4  A    between atoms: S_11  and  C_12
REMARK    5  A    between atoms: C_16  and  C_18
REMARK                            x       y       z     vdW  Elec       q    Type
REMARK                         _______ _______ _______ _____ _____    ______ ____
ROOT
ATOM      1  N   UNL     1      -1.202  -0.721   0.010  0.00  0.00    -0.285 N 
ATOM      2  C   UNL     1      -2.374  -0.068   0.127  0.00  0.00    +0.227 C 
ATOM      3  O   UNL     1      -2.395   1.145   0.134  0.00  0.00    -0.275 OA
ATOM      4  H   UNL     1      -1.191  -1.688  -0.072  0.00  0.00    +0.155 HD
ENDROOT
BRANCH   1  10
ATOM      5  C   UNL     1       0.122   1.154   0.763  0.00  0.00    +0.027 A 
ATOM      6  C   UNL     1       1.309   1.862   0.762  0.00  0.00    +0.051 A 
ATOM      7  C   UNL     1       2.383   1.417   0.008  0.00  0.00    +0.166 A 
ATOM      8  C   UNL     1       2.266   0.255  -0.751  0.00  0.00    +0.168 A 
ATOM      9  C   UNL     1       1.076  -0.454  -0.750  0.00  0.00    +0.072 A 
ATOM     10  C   UNL     1       0.002  -0.004   0.008  0.00  0.00    +0.037 A 
ATOM     11  O   UNL     1       3.448   0.034  -1.396  0.00  0.00    -0.453 OA
ATOM     12  C   UNL     1       4.153   1.288  -1.348  0.00  0.00    +0.466 C 
ATOM     13  O   UNL     1       3.640   1.924  -0.162  0.00  0.00    -0.453 OA
ENDBRANCH   1  10
BRANCH   2  14
ATOM     14  C   UNL     1      -3.660  -0.844   0.249  0.00  0.00    +0.170 C 
BRANCH  14  15
ATOM     15  S   UNL     1      -5.052   0.311   0.390  0.00  0.00    -0.087 S 
BRANCH  15  16
ATOM     16  C   UNL     1      -6.505  -0.767   0.527  0.00  0.00    +0.339 C 
ATOM     17  N   UNL     1      -6.374  -1.662   1.689  0.00  0.00    -0.219 N 
ATOM     18  N   UNL     1      -6.381  -2.962   1.164  0.00  0.00    -0.144 NA
ATOM     19  C   UNL     1      -6.498  -2.924  -0.129  0.00  0.00    +0.254 C 
ATOM     20  O   UNL     1      -6.581  -1.652  -0.600  0.00  0.00    -0.442 OA
ATOM     21  H   UNL     1      -6.298  -1.406   2.622  0.00  0.00    +0.173 HD
BRANCH  19  22
ATOM     22  C   UNL     1      -6.537  -4.075  -0.954  0.00  0.00    +0.108 C 
ATOM     23  N   UNL     1      -6.647  -4.106  -2.257  0.00  0.00    -0.255 NA
ATOM     24  C   UNL     1      -6.655  -5.355  -2.759  0.00  0.00    +0.107 C 
ATOM     25  C   UNL     1      -6.550  -6.287  -1.813  0.00  0.00    -0.001 C 
ATOM     26  C   UNL     1      -6.453  -5.522  -0.506  0.00  0.00    +0.089 C 
ENDBRANCH  19  22
ENDBRANCH  15  16
ENDBRANCH  14  15
ENDBRANCH   2  14
TORSDOF 5
