REMARK  Name = ZINC37117577
REMARK  5 active torsions:
REMARK  status: ('A' for Active; 'I' for Inactive)
REMARK    1  A    between atoms: C_6  and  N_7
REMARK    2  A    between atoms: N_7  and  C_8
REMARK    3  A    between atoms: C_8  and  C_9
REMARK    4  A    between atoms: N_11  and  C_12
REMARK    5  A    between atoms: N_11  and  C_20
REMARK                            x       y       z     vdW  Elec       q    Type
REMARK                         _______ _______ _______ _____ _____    ______ ____
ROOT
ATOM      1  C   UNL     1      -3.600  -0.969   0.026  0.00  0.00    +0.233 C 
ATOM      2  O   UNL     1      -2.705  -0.151  -0.014  0.00  0.00    -0.274 OA
ATOM      3  N   UNL     1      -4.884  -0.567  -0.056  0.00  0.00    -0.292 N 
ENDROOT
BRANCH   3   4
ATOM      4  C   UNL     1      -5.196   0.829  -0.375  0.00  0.00    +0.099 C 
ATOM      5  C   UNL     1      -4.479   1.237  -1.673  0.00  0.00    +0.046 C 
ATOM      6  C   UNL     1      -4.537   2.774  -1.845  0.00  0.00    +0.168 C 
ATOM      7  S   UNL     1      -4.631   3.373  -0.109  0.00  0.00    -0.029 S 
ATOM      8  O   UNL     1      -5.867   4.048   0.081  0.00  0.00    -0.174 OA
ATOM      9  O   UNL     1      -3.416   4.033   0.219  0.00  0.00    -0.174 OA
ATOM     10  C   UNL     1      -4.691   1.754   0.769  0.00  0.00    +0.188 C 
ENDBRANCH   3   4
BRANCH   3  11
ATOM     11  C   UNL     1      -5.967  -1.526   0.174  0.00  0.00    +0.076 C 
ATOM     12  C   UNL     1      -5.648  -2.370   1.409  0.00  0.00    +0.022 C 
ATOM     13  C   UNL     1      -6.780  -3.371   1.650  0.00  0.00    +0.002 C 
ATOM     14  C   UNL     1      -6.920  -4.284   0.430  0.00  0.00    +0.000 C 
ATOM     15  C   UNL     1      -7.239  -3.440  -0.805  0.00  0.00    +0.002 C 
ATOM     16  C   UNL     1      -6.108  -2.439  -1.045  0.00  0.00    +0.022 C 
ENDBRANCH   3  11
BRANCH   1  17
ATOM     17  C   UNL     1      -3.276  -2.434   0.168  0.00  0.00    +0.197 C 
BRANCH  17  18
ATOM     18  N   UNL     1      -1.907  -2.678  -0.292  0.00  0.00    -0.335 N 
ATOM     19  H   UNL     1      -1.367  -1.942  -0.621  0.00  0.00    +0.147 HD
BRANCH  18  25
ATOM     20  C   UNL     1      -2.150  -5.026   0.214  0.00  0.00    +0.027 A 
ATOM     21  C   UNL     1      -1.628  -6.306   0.250  0.00  0.00    +0.051 A 
ATOM     22  C   UNL     1      -0.334  -6.541  -0.184  0.00  0.00    +0.173 A 
ATOM     23  C   UNL     1       0.443  -5.486  -0.657  0.00  0.00    +0.174 A 
ATOM     24  C   UNL     1      -0.080  -4.205  -0.693  0.00  0.00    +0.072 A 
ATOM     25  C   UNL     1      -1.378  -3.973  -0.257  0.00  0.00    +0.031 A 
ATOM     26  O   UNL     1       1.666  -5.974  -1.019  0.00  0.00    -0.395 OA
ATOM     27  C   UNL     1       1.771  -7.261  -0.383  0.00  0.00    +0.589 C 
ATOM     28  O   UNL     1       0.403  -7.690  -0.250  0.00  0.00    -0.395 OA
ATOM     29  F   UNL     1       2.372  -7.141   0.874  0.00  0.00    -0.125 F 
ATOM     30  F   UNL     1       2.488  -8.151  -1.190  0.00  0.00    -0.125 F 
ENDBRANCH  18  25
ENDBRANCH  17  18
ENDBRANCH   1  17
TORSDOF 5
