REMARK  Name = ZINC62901179
REMARK  7 active torsions:
REMARK  status: ('A' for Active; 'I' for Inactive)
REMARK    1  A    between atoms: C_1  and  C_2
REMARK    2  A    between atoms: C_2  and  C_3
REMARK    3  A    between atoms: C_3  and  C_4
REMARK    4  A    between atoms: C_4  and  C_9
REMARK    5  A    between atoms: N_11  and  C_12
REMARK    6  A    between atoms: C_15  and  O_21
REMARK    7  A    between atoms: C_17  and  C_18
REMARK                            x       y       z     vdW  Elec       q    Type
REMARK                         _______ _______ _______ _____ _____    ______ ____
ROOT
ATOM      1  C   UNL     1       1.318  -2.639  -0.148  0.00  0.00    +0.222 C 
ATOM      2  O   UNL     1       2.348  -3.275  -0.226  0.00  0.00    -0.275 OA
ATOM      3  N   UNL     1       0.689  -2.517   1.037  0.00  0.00    -0.284 N 
ATOM      4  H   UNL     1      -0.099  -1.956   1.113  0.00  0.00    +0.155 HD
ENDROOT
BRANCH   1   5
ATOM      5  C   UNL     1       0.742  -1.985  -1.378  0.00  0.00    +0.031 C 
ATOM      6  C   UNL     1      -0.691  -2.507  -1.661  0.00  0.00    -0.005 C 
ATOM      7  C   UNL     1      -0.399  -3.826  -2.419  0.00  0.00    -0.082 C 
ATOM      8  N   UNL     1       0.785  -3.528  -3.254  0.00  0.00    +0.380 N 
ATOM      9  C   UNL     1       1.523  -2.410  -2.639  0.00  0.00    -0.067 C 
ATOM     10  H   UNL     1       1.380  -4.341  -3.303  0.00  0.00    -0.086 HD
ATOM     11  H   UNL     1       0.488  -3.269  -4.183  0.00  0.00    -0.086 HD
BRANCH   5  12
ATOM     12  C   UNL     1       0.743  -0.462  -1.229  0.00  0.00    +0.014 C 
BRANCH  12  14
ATOM     13  C   UNL     1       2.183   1.580  -1.203  0.00  0.00    +0.004 C 
ATOM     14  C   UNL     1       2.184   0.050  -1.228  0.00  0.00    -0.002 C 
ENDBRANCH  12  14
ENDBRANCH   5  12
ENDBRANCH   1   5
BRANCH   3  15
ATOM     15  C   UNL     1       1.171  -3.196   2.154  0.00  0.00    +0.048 A 
ATOM     16  C   UNL     1       2.537  -3.372   2.328  0.00  0.00    +0.028 A 
ATOM     17  C   UNL     1       3.014  -4.044   3.434  0.00  0.00    +0.047 A 
ATOM     18  C   UNL     1       2.134  -4.551   4.383  0.00  0.00    +0.118 A 
ATOM     19  C   UNL     1       0.771  -4.387   4.226  0.00  0.00    +0.062 A 
ATOM     20  C   UNL     1       0.277  -3.701   3.111  0.00  0.00    +0.088 A 
BRANCH  20  21
ATOM     21  C   UNL     1      -1.173  -3.516   2.940  0.00  0.00    +0.388 C 
ATOM     22  O   UNL     1      -1.944  -3.870   3.822  0.00  0.00    -0.241 OA
ATOM     23  O   UNL     1      -1.608  -3.009   1.915  0.00  0.00    -0.241 OA
ENDBRANCH  20  21
BRANCH  18  24
ATOM     24  O   UNL     1       2.616  -5.213   5.469  0.00  0.00    -0.507 OA
ATOM     25  H   UNL     1       2.796  -4.642   6.228  0.00  0.00    +0.292 HD
ENDBRANCH  18  24
ENDBRANCH   3  15
TORSDOF 6
