REMARK  Name = ZINC63881716
REMARK  5 active torsions:
REMARK  status: ('A' for Active; 'I' for Inactive)
REMARK    1  A    between atoms: C_1  and  C_2
REMARK    2  A    between atoms: C_7  and  C_8
REMARK    3  A    between atoms: C_12  and  N_15
REMARK    4  A    between atoms: N_18  and  C_19
REMARK    5  A    between atoms: C_19  and  C_20
REMARK                            x       y       z     vdW  Elec       q    Type
REMARK                         _______ _______ _______ _____ _____    ______ ____
ROOT
ATOM      1  N   UNL     1      -2.000  -1.309   5.565  0.00  0.00    -0.268 N 
ATOM      2  C   UNL     1      -1.841  -1.645   6.861  0.00  0.00    +0.302 C 
ATOM      3  O   UNL     1      -0.966  -1.120   7.522  0.00  0.00    -0.253 OA
ATOM      4  N   UNL     1      -2.651  -2.564   7.423  0.00  0.00    -0.297 N 
ATOM      5  H   UNL     1      -2.698  -1.727   5.038  0.00  0.00    +0.153 HD
ATOM      6  H   UNL     1      -3.349  -2.982   6.895  0.00  0.00    +0.150 HD
ENDROOT
BRANCH   1  10
ATOM      7  C   UNL     1       0.025   0.045   2.504  0.00  0.00    +0.189 C 
ATOM      8  N   UNL     1       0.724  -0.722   3.561  0.00  0.00    -0.293 N 
ATOM      9  N   UNL     1       0.214  -0.880   4.653  0.00  0.00    -0.181 NA
ATOM     10  C   UNL     1      -1.119  -0.310   4.954  0.00  0.00    +0.274 C 
ATOM     11  S   UNL     1      -1.669   0.118   3.241  0.00  0.00    -0.083 S 
ATOM     12  H   UNL     1       1.598  -1.102   3.380  0.00  0.00    +0.184 HD
BRANCH   7  19
ATOM     13  C   UNL     1      -0.018   1.503   0.010  0.00  0.00    +0.044 C 
ATOM     14  C   UNL     1       0.002  -0.004   0.002  0.00  0.00    -0.044 A 
ATOM     15  C   UNL     1       0.006  -0.689  -1.199  0.00  0.00    +0.004 A 
ATOM     16  C   UNL     1       0.025  -2.071  -1.207  0.00  0.00    +0.000 A 
ATOM     17  C   UNL     1       0.040  -2.768  -0.013  0.00  0.00    +0.000 A 
ATOM     18  C   UNL     1       0.037  -2.084   1.188  0.00  0.00    +0.007 A 
ATOM     19  C   UNL     1       0.023  -0.702   1.195  0.00  0.00    -0.011 A 
ENDBRANCH   7  19
ENDBRANCH   1  10
BRANCH   4  20
ATOM     20  C   UNL     1      -2.478  -2.929   8.831  0.00  0.00    +0.138 C 
BRANCH  20  21
ATOM     21  C   UNL     1      -3.518  -3.984   9.215  0.00  0.00    +0.173 C 
ATOM     22  C   UNL     1      -3.252  -4.518  10.608  0.00  0.00    -0.019 C 
ATOM     23  C   UNL     1      -3.017  -5.817  10.434  0.00  0.00    +0.065 C 
ATOM     24  C   UNL     1      -2.735  -6.473  11.774  0.00  0.00    +0.057 C 
ATOM     25  C   UNL     1      -2.409  -5.306  12.732  0.00  0.00    +0.011 C 
ATOM     26  C   UNL     1      -3.157  -4.132  12.061  0.00  0.00    +0.035 C 
ATOM     27  N   UNL     1      -3.108  -6.131   9.113  0.00  0.00    -0.158 NA
ATOM     28  N   UNL     1      -3.383  -5.183   8.370  0.00  0.00    -0.178 NA
ENDBRANCH  20  21
ENDBRANCH   4  20
TORSDOF 4
