REMARK  Name = ZINC45774994
REMARK  9 active torsions:
REMARK  status: ('A' for Active; 'I' for Inactive)
REMARK    1  A    between atoms: C_1  and  N_2
REMARK    2  A    between atoms: N_2  and  C_3
REMARK    3  A    between atoms: N_2  and  C_4
REMARK    4  A    between atoms: C_4  and  C_6
REMARK    5  A    between atoms: C_4  and  C_24
REMARK    6  A    between atoms: C_6  and  N_7
REMARK    7  A    between atoms: C_8  and  C_10
REMARK    8  A    between atoms: C_10  and  C_11
REMARK    9  A    between atoms: C_11  and  N_12
REMARK                            x       y       z     vdW  Elec       q    Type
REMARK                         _______ _______ _______ _____ _____    ______ ____
ROOT
ATOM      1  N   UNL     1      -0.514   1.203   2.190  0.00  0.00    -0.317 N 
ATOM      2  C   UNL     1      -1.198   1.803   3.184  0.00  0.00    +0.214 C 
ATOM      3  O   UNL     1      -1.464   1.188   4.195  0.00  0.00    -0.276 OA
ATOM      4  H   UNL     1      -0.302   1.695   1.381  0.00  0.00    +0.149 HD
ENDROOT
BRANCH   1   5
ATOM      5  C   UNL     1      -0.090  -0.192   2.330  0.00  0.00    +0.089 C 
BRANCH   5   6
ATOM      6  C   UNL     1       0.532  -0.671   1.017  0.00  0.00    -0.049 C 
BRANCH   6   7
ATOM      7  C   UNL     1      -0.557  -0.789  -0.050  0.00  0.00    -0.023 C 
ATOM      8  C   UNL     1      -1.244   0.567  -0.230  0.00  0.00    +0.002 C 
ATOM      9  C   UNL     1      -2.333   0.450  -1.298  0.00  0.00    +0.000 C 
ATOM     10  C   UNL     1      -3.366  -0.591  -0.860  0.00  0.00    +0.000 C 
ATOM     11  C   UNL     1      -2.680  -1.947  -0.680  0.00  0.00    +0.000 C 
ATOM     12  C   UNL     1      -1.590  -1.829   0.387  0.00  0.00    +0.002 C 
ENDBRANCH   6   7
BRANCH   6  14
ATOM     13  C   UNL     1       2.553   0.465   1.634  0.00  0.00    -0.096 C 
ATOM     14  N   UNL     1       1.548   0.294   0.576  0.00  0.00    +0.379 N 
ATOM     15  C   UNL     1       2.200  -0.204  -0.642  0.00  0.00    -0.096 C 
ATOM     16  H   UNL     1       1.108   1.181   0.383  0.00  0.00    -0.082 HD
ENDBRANCH   6  14
ENDBRANCH   5   6
ENDBRANCH   1   5
BRANCH   2  17
ATOM     17  C   UNL     1      -1.634   3.238   3.039  0.00  0.00    +0.115 C 
BRANCH  17  18
ATOM     18  C   UNL     1      -2.387   3.672   4.298  0.00  0.00    +0.127 C 
BRANCH  18  19
ATOM     19  N   UNL     1      -2.810   5.068   4.158  0.00  0.00    -0.224 N 
ATOM     20  C   UNL     1      -2.067   6.128   4.537  0.00  0.00    +0.247 C 
ATOM     21  O   UNL     1      -0.965   6.108   5.041  0.00  0.00    -0.273 OA
ATOM     22  C   UNL     1      -2.899   7.345   4.203  0.00  0.00    +0.113 C 
ATOM     23  C   UNL     1      -2.175   8.221   3.187  0.00  0.00    +0.035 C 
ATOM     24  C   UNL     1      -3.046   9.430   2.839  0.00  0.00    +0.003 C 
ATOM     25  C   UNL     1      -3.338  10.229   4.111  0.00  0.00    +0.000 C 
ATOM     26  C   UNL     1      -4.085   9.344   5.111  0.00  0.00    +0.003 C 
ATOM     27  C   UNL     1      -3.218   8.135   5.468  0.00  0.00    +0.035 C 
ATOM     28  N   UNL     1      -4.127   6.788   3.620  0.00  0.00    -0.285 N 
ATOM     29  C   UNL     1      -3.980   5.449   3.631  0.00  0.00    +0.309 C 
ATOM     30  O   UNL     1      -4.818   4.674   3.213  0.00  0.00    -0.252 OA
ATOM     31  H   UNL     1      -4.891   7.286   3.290  0.00  0.00    +0.151 HD
ENDBRANCH  18  19
ENDBRANCH  17  18
ENDBRANCH   2  17
TORSDOF 7
