REMARK  Name = ZINC34793094
REMARK  8 active torsions:
REMARK  status: ('A' for Active; 'I' for Inactive)
REMARK    1  A    between atoms: C_1  and  C_2
REMARK    2  A    between atoms: C_2  and  C_4
REMARK    3  A    between atoms: C_2  and  N_20
REMARK    4  A    between atoms: N_9  and  C_12
REMARK    5  A    between atoms: C_12  and  C_13
REMARK    6  A    between atoms: C_13  and  C_14
REMARK    7  A    between atoms: C_26  and  C_33
REMARK    8  A    between atoms: N_31  and  C_32
REMARK                            x       y       z     vdW  Elec       q    Type
REMARK                         _______ _______ _______ _____ _____    ______ ____
ROOT
ATOM      1  N   UNL     1       0.747  -0.290   1.232  0.00  0.00    -0.281 N 
ATOM      2  C   UNL     1       1.969  -1.101   1.347  0.00  0.00    +0.160 C 
ATOM      3  C   UNL     1       2.319  -1.069   2.818  0.00  0.00    +0.042 C 
ATOM      4  C   UNL     1       1.374  -0.316   3.417  0.00  0.00    +0.058 C 
ATOM      5  C   UNL     1       0.443   0.150   2.466  0.00  0.00    +0.247 C 
ATOM      6  O   UNL     1      -0.513   0.856   2.729  0.00  0.00    -0.270 OA
ATOM      7  C   UNL     1       1.480  -0.113   4.915  0.00  0.00    +0.143 C 
ATOM      8  N   UNL     1       2.614  -0.760   5.597  0.00  0.00    -0.288 N 
ATOM      9  C   UNL     1       3.478  -1.484   4.859  0.00  0.00    +0.307 C 
ATOM     10  O   UNL     1       4.417  -2.023   5.413  0.00  0.00    -0.252 OA
ATOM     11  N   UNL     1       3.337  -1.631   3.535  0.00  0.00    -0.260 N 
ATOM     12  C   UNL     1       4.327  -2.437   2.818  0.00  0.00    +0.139 C 
ATOM     13  H   UNL     1       2.735  -0.667   6.555  0.00  0.00    +0.151 HD
ENDROOT
BRANCH   7  14
ATOM     14  C   UNL     1       1.564   1.368   5.179  0.00  0.00    -0.004 A 
ATOM     15  C   UNL     1       2.797   1.976   5.320  0.00  0.00    +0.007 A 
ATOM     16  C   UNL     1       2.875   3.335   5.562  0.00  0.00    +0.000 A 
ATOM     17  C   UNL     1       1.719   4.087   5.662  0.00  0.00    +0.001 A 
ATOM     18  C   UNL     1       0.485   3.480   5.521  0.00  0.00    +0.020 A 
ATOM     19  C   UNL     1       0.407   2.121   5.274  0.00  0.00    +0.046 A 
ATOM     20 CL   UNL     1      -1.142   1.359   5.090  0.00  0.00    -0.083 Cl
ENDBRANCH   7  14
BRANCH   1  22
ATOM     21  C   UNL     1      -0.028   1.501  -0.241  0.00  0.00    +0.038 C 
ATOM     22  C   UNL     1       0.004  -0.009   0.001  0.00  0.00    +0.160 C 
BRANCH  22  23
ATOM     23  C   UNL     1      -1.405  -0.526   0.137  0.00  0.00    +0.236 C 
ATOM     24  O   UNL     1      -1.840  -0.823   1.229  0.00  0.00    -0.274 OA
ATOM     25  N   UNL     1      -2.182  -0.659  -0.957  0.00  0.00    -0.298 N 
ATOM     26  C   UNL     1      -1.641  -0.411  -2.302  0.00  0.00    +0.123 C 
ATOM     27  C   UNL     1      -1.974  -1.615  -3.190  0.00  0.00    +0.103 C 
ATOM     28  N   UNL     1      -3.420  -1.871  -3.140  0.00  0.00    -0.299 NA
ATOM     29  C   UNL     1      -3.849  -2.235  -1.783  0.00  0.00    +0.103 C 
ATOM     30  C   UNL     1      -3.591  -1.063  -0.837  0.00  0.00    +0.123 C 
BRANCH  28  31
ATOM     31  C   UNL     1      -3.805  -2.906  -4.109  0.00  0.00    +0.089 C 
BRANCH  31  32
ATOM     32  C   UNL     1      -5.330  -2.971  -4.207  0.00  0.00    +0.050 C 
BRANCH  32  33
ATOM     33  C   UNL     1      -5.725  -4.032  -5.200  0.00  0.00    -0.046 A 
ATOM     34  C   UNL     1      -5.879  -3.707  -6.535  0.00  0.00    +0.003 A 
ATOM     35  C   UNL     1      -6.241  -4.681  -7.447  0.00  0.00    +0.000 A 
ATOM     36  C   UNL     1      -6.450  -5.980  -7.024  0.00  0.00    +0.000 A 
ATOM     37  C   UNL     1      -6.295  -6.306  -5.690  0.00  0.00    +0.000 A 
ATOM     38  C   UNL     1      -5.929  -5.333  -4.779  0.00  0.00    +0.003 A 
ENDBRANCH  32  33
ENDBRANCH  31  32
ENDBRANCH  28  31
ENDBRANCH  22  23
ENDBRANCH   1  22
TORSDOF 6
