REMARK  Name = ZINC49320344
REMARK  1 active torsions:
REMARK  status: ('A' for Active; 'I' for Inactive)
REMARK    1  A    between atoms: C_14  and  N_17
REMARK                            x       y       z     vdW  Elec       q    Type
REMARK                         _______ _______ _______ _____ _____    ______ ____
ROOT
ATOM      1  C   UNL     1       0.005   1.375  -0.422  0.00  0.00    +0.017 A 
ATOM      2  C   UNL     1       1.181   2.086  -0.307  0.00  0.00    +0.025 A 
ATOM      3  C   UNL     1       2.397   1.417  -0.156  0.00  0.00    +0.038 A 
ATOM      4  C   UNL     1       2.403   0.031  -0.123  0.00  0.00    -0.023 A 
ATOM      5  C   UNL     1       1.223  -0.678  -0.239  0.00  0.00    +0.020 A 
ATOM      6  C   UNL     1       0.022  -0.008  -0.389  0.00  0.00    +0.018 A 
ATOM      7 BR   UNL     1      -1.592  -0.980  -0.547  0.00  0.00    -0.050 Br
ATOM      8  C   UNL     1       3.830  -0.439   0.047  0.00  0.00    +0.056 C 
ATOM      9  C   UNL     1       4.659   0.854   0.110  0.00  0.00    +0.117 C 
ATOM     10  N   UNL     1       3.685   1.941  -0.024  0.00  0.00    -0.285 N 
ATOM     11  C   UNL     1       3.998   3.296  -0.020  0.00  0.00    +0.126 A 
ATOM     12  C   UNL     1       4.062   3.986   1.187  0.00  0.00    +0.046 A 
ATOM     13  C   UNL     1       4.375   5.333   1.176  0.00  0.00    +0.037 A 
ATOM     14  C   UNL     1       4.614   5.948  -0.046  0.00  0.00    +0.144 A 
ATOM     15  C   UNL     1       4.533   5.203  -1.205  0.00  0.00    +0.145 A 
ATOM     16  N   UNL     1       4.238   3.917  -1.165  0.00  0.00    -0.238 NA
ENDROOT
BRANCH  14  17
ATOM     17  N   UNL     1       4.952   7.388  -0.105  0.00  0.00    +0.058 N 
ATOM     18  O   UNL     1       5.021   8.035   0.914  0.00  0.00    -0.126 OA
ATOM     19  O   UNL     1       5.159   7.917  -1.172  0.00  0.00    -0.126 OA
ENDBRANCH  14  17
TORSDOF 1
