REMARK  Name = ZINC67460497
REMARK  8 active torsions:
REMARK  status: ('A' for Active; 'I' for Inactive)
REMARK    1  A    between atoms: C_1  and  C_2
REMARK    2  A    between atoms: C_2  and  C_3
REMARK    3  A    between atoms: C_6  and  C_8
REMARK    4  A    between atoms: C_8  and  N_9
REMARK    5  A    between atoms: N_9  and  C_10
REMARK    6  A    between atoms: N_13  and  C_14
REMARK    7  A    between atoms: C_14  and  C_16
REMARK    8  A    between atoms: C_14  and  C_17
REMARK                            x       y       z     vdW  Elec       q    Type
REMARK                         _______ _______ _______ _____ _____    ______ ____
ROOT
ATOM      1  N   UNL     1       3.617  -3.262   3.880  0.00  0.00    -0.284 N 
ATOM      2  C   UNL     1       4.516  -3.822   2.868  0.00  0.00    +0.134 C 
ATOM      3  C   UNL     1       2.933  -4.082   4.702  0.00  0.00    +0.303 C 
ATOM      4  O   UNL     1       2.187  -3.617   5.542  0.00  0.00    -0.253 OA
ATOM      5  N   UNL     1       3.076  -5.418   4.593  0.00  0.00    -0.293 N 
ATOM      6  H   UNL     1       3.671  -5.789   3.923  0.00  0.00    +0.151 HD
ENDROOT
BRANCH   5   7
ATOM      7  C   UNL     1       2.332  -6.309   5.487  0.00  0.00    +0.102 C 
ATOM      8  C   UNL     1       0.936  -6.559   4.912  0.00  0.00    +0.033 C 
BRANCH   7   9
ATOM      9  C   UNL     1       3.066  -7.620   5.614  0.00  0.00    -0.025 A 
ATOM     10  C   UNL     1       3.666  -8.183   4.503  0.00  0.00    +0.009 A 
ATOM     11  C   UNL     1       4.342  -9.385   4.611  0.00  0.00    +0.048 A 
ATOM     12  C   UNL     1       4.417 -10.027   5.835  0.00  0.00    +0.142 A 
ATOM     13  C   UNL     1       3.811  -9.459   6.954  0.00  0.00    +0.076 A 
ATOM     14  C   UNL     1       3.140  -8.252   6.841  0.00  0.00    +0.032 A 
ATOM     15  N   UNL     1       3.892 -10.120   8.188  0.00  0.00    -0.280 N 
ATOM     16  C   UNL     1       4.802 -11.107   8.342  0.00  0.00    +0.255 C 
ATOM     17  O   UNL     1       4.869 -11.714   9.390  0.00  0.00    -0.272 OA
ATOM     18  C   UNL     1       5.732 -11.451   7.208  0.00  0.00    +0.325 C 
ATOM     19  O   UNL     1       5.079 -11.208   5.959  0.00  0.00    -0.481 OA
ATOM     20  H   UNL     1       3.304  -9.873   8.919  0.00  0.00    +0.155 HD
ENDBRANCH   7   9
ENDBRANCH   5   7
BRANCH   1  21
ATOM     21  C   UNL     1       3.462  -1.810   3.998  0.00  0.00    +0.152 C 
BRANCH  21  25
ATOM     22  C   UNL     1       0.731  -0.503   1.223  0.00  0.00    +0.078 A 
ATOM     23  N   UNL     1       0.240  -0.793   2.402  0.00  0.00    -0.252 NA
ATOM     24  C   UNL     1       1.012  -1.223   3.380  0.00  0.00    +0.124 A 
ATOM     25  C   UNL     1       2.336  -1.351   3.107  0.00  0.00    +0.027 A 
ATOM     26  S   UNL     1       2.372  -0.831   1.400  0.00  0.00    -0.075 S 
BRANCH  22  28
ATOM     27  C   UNL     1      -0.019   1.526   0.010  0.00  0.00    +0.011 C 
ATOM     28  C   UNL     1       0.002  -0.004   0.002  0.00  0.00    +0.059 C 
ENDBRANCH  22  28
ENDBRANCH  21  25
ENDBRANCH   1  21
TORSDOF 5
