REMARK  Name = ZINC63907333
REMARK  9 active torsions:
REMARK  status: ('A' for Active; 'I' for Inactive)
REMARK    1  A    between atoms: C_1  and  C_2
REMARK    2  A    between atoms: C_2  and  C_3
REMARK    3  A    between atoms: C_2  and  N_4
REMARK    4  A    between atoms: N_4  and  C_5
REMARK    5  A    between atoms: C_5  and  C_6
REMARK    6  A    between atoms: C_12  and  C_14
REMARK    7  A    between atoms: C_14  and  N_15
REMARK    8  A    between atoms: C_18  and  C_23
REMARK    9  A    between atoms: C_23  and  C_24
REMARK                            x       y       z     vdW  Elec       q    Type
REMARK                         _______ _______ _______ _____ _____    ______ ____
ROOT
ATOM      1  N   UNL     1      -3.842   0.293   2.782  0.00  0.00    -0.216 N 
ATOM      2  C   UNL     1      -4.945   1.057   2.654  0.00  0.00    +0.244 C 
ATOM      3  O   UNL     1      -5.106   1.988   1.895  0.00  0.00    -0.273 OA
ATOM      4  C   UNL     1      -5.942   0.508   3.655  0.00  0.00    +0.165 C 
ATOM      5  N   UNL     1      -5.218  -0.606   4.290  0.00  0.00    -0.287 N 
ATOM      6  C   UNL     1      -4.004  -0.656   3.712  0.00  0.00    +0.310 C 
ATOM      7  O   UNL     1      -3.149  -1.469   4.003  0.00  0.00    -0.252 OA
ATOM      8  H   UNL     1      -5.551  -1.192   4.988  0.00  0.00    +0.151 HD
ENDROOT
BRANCH   1   9
ATOM      9  C   UNL     1      -2.619   0.475   1.996  0.00  0.00    +0.213 C 
BRANCH   9  11
ATOM     10  N   UNL     1      -1.665  -0.379  -0.120  0.00  0.00    -0.293 N 
ATOM     11  C   UNL     1      -2.705  -0.348   0.737  0.00  0.00    +0.234 C 
ATOM     12  O   UNL     1      -3.710  -0.982   0.493  0.00  0.00    -0.274 OA
BRANCH  10  14
ATOM     13  C   UNL     1       0.735  -0.730   0.202  0.00  0.00    +0.028 C 
ATOM     14  C   UNL     1      -0.408   0.288   0.230  0.00  0.00    +0.070 C 
ATOM     15  C   UNL     1      -0.123   1.401  -0.780  0.00  0.00    +0.028 C 
ENDBRANCH  10  14
BRANCH  10  16
ATOM     16  C   UNL     1      -1.790  -1.080  -1.400  0.00  0.00    +0.143 C 
BRANCH  16  17
ATOM     17  C   UNL     1      -1.499  -2.545  -1.202  0.00  0.00    -0.030 A 
ATOM     18  C   UNL     1      -0.231  -3.037  -1.449  0.00  0.00    +0.005 A 
ATOM     19  C   UNL     1       0.037  -4.381  -1.267  0.00  0.00    +0.000 A 
ATOM     20  C   UNL     1      -0.963  -5.233  -0.837  0.00  0.00    +0.000 A 
ATOM     21  C   UNL     1      -2.231  -4.741  -0.589  0.00  0.00    +0.000 A 
ATOM     22  C   UNL     1      -2.497  -3.396  -0.767  0.00  0.00    +0.005 A 
ENDBRANCH  16  17
ENDBRANCH  10  16
ENDBRANCH   9  11
ENDBRANCH   1   9
BRANCH   4  23
ATOM     23  C   UNL     1      -6.310   1.574   4.688  0.00  0.00    +0.065 C 
BRANCH  23  24
ATOM     24  C   UNL     1      -7.391   1.044   5.594  0.00  0.00    -0.039 C 
ATOM     25  C   UNL     1      -7.225   0.456   6.801  0.00  0.00    -0.001 A 
ATOM     26  C   UNL     1      -6.033   0.145   7.600  0.00  0.00    +0.010 A 
ATOM     27  C   UNL     1      -6.187  -0.463   8.798  0.00  0.00    +0.001 A 
ATOM     28  C   UNL     1      -7.453  -0.803   9.295  0.00  0.00    +0.002 A 
ATOM     29  C   UNL     1      -8.594  -0.550   8.619  0.00  0.00    +0.026 A 
ATOM     30  C   UNL     1      -8.550   0.087   7.348  0.00  0.00    +0.043 A 
ATOM     31  N   UNL     1      -9.499   0.433   6.512  0.00  0.00    -0.380 N 
ATOM     32  C   UNL     1      -8.882   1.067   5.342  0.00  0.00    +0.144 C 
ATOM     33  H   UNL     1     -10.450   0.296   6.647  0.00  0.00    +0.160 HD
ENDBRANCH  23  24
ENDBRANCH   4  23
TORSDOF 7
