REMARK  Name = ZINC36203189
REMARK  11 active torsions:
REMARK  status: ('A' for Active; 'I' for Inactive)
REMARK    1  A    between atoms: C_1  and  C_2
REMARK    2  A    between atoms: C_7  and  C_8
REMARK    3  A    between atoms: C_8  and  N_9
REMARK    4  A    between atoms: N_9  and  C_10
REMARK    5  A    between atoms: N_9  and  C_30
REMARK    6  A    between atoms: C_10  and  C_11
REMARK    7  A    between atoms: C_14  and  C_16
REMARK    8  A    between atoms: C_16  and  C_17
REMARK    9  A    between atoms: C_16  and  C_23
REMARK   10  A    between atoms: C_16  and  O_29
REMARK   11  A    between atoms: C_30  and  C_31
REMARK                            x       y       z     vdW  Elec       q    Type
REMARK                         _______ _______ _______ _____ _____    ______ ____
ROOT
ATOM      1  C   UNL     1      -3.077   1.726   4.086  0.00  0.00    +0.089 A 
ATOM      2  C   UNL     1      -4.160   1.226   4.708  0.00  0.00    +0.043 A 
ATOM      3  C   UNL     1      -5.152   2.232   4.675  0.00  0.00    +0.048 A 
ATOM      4  C   UNL     1      -4.617   3.287   4.034  0.00  0.00    +0.146 A 
ATOM      5  O   UNL     1      -3.357   2.977   3.686  0.00  0.00    -0.463 OA
ENDROOT
BRANCH   1   6
ATOM      6  C   UNL     1      -1.768   1.007   3.880  0.00  0.00    -0.003 C 
BRANCH   6   7
ATOM      7  N   UNL     1      -1.804   0.282   2.603  0.00  0.00    +0.389 N 
ATOM      8  H   UNL     1      -2.606  -0.330   2.586  0.00  0.00    -0.081 HD
BRANCH   7   9
ATOM      9  C   UNL     1      -0.578  -0.514   2.458  0.00  0.00    -0.042 C 
BRANCH   9  16
ATOM     10  C   UNL     1      -2.143  -2.937   2.284  0.00  0.00    +0.044 C 
ATOM     11  C   UNL     1      -1.258  -2.696   3.480  0.00  0.00    -0.049 A 
ATOM     12  C   UNL     1      -1.190  -3.637   4.491  0.00  0.00    +0.003 A 
ATOM     13  C   UNL     1      -0.379  -3.416   5.587  0.00  0.00    +0.000 A 
ATOM     14  C   UNL     1       0.366  -2.254   5.673  0.00  0.00    +0.000 A 
ATOM     15  C   UNL     1       0.299  -1.314   4.662  0.00  0.00    +0.002 A 
ATOM     16  C   UNL     1      -0.509  -1.537   3.563  0.00  0.00    -0.061 A 
ENDBRANCH   9  16
ENDBRANCH   7   9
BRANCH   7  17
ATOM     17  C   UNL     1      -1.898   1.243   1.497  0.00  0.00    -0.046 C 
BRANCH  17  18
ATOM     18  C   UNL     1      -2.127   0.490   0.185  0.00  0.00    +0.102 C 
ATOM     19  C   UNL     1      -2.315   1.490  -0.984  0.00  0.00    +0.032 C 
ATOM     20  C   UNL     1      -1.884   0.616  -2.192  0.00  0.00    +0.030 C 
ATOM     21  C   UNL     1      -0.772  -0.264  -1.580  0.00  0.00    +0.160 C 
ATOM     22  O   UNL     1      -0.963  -0.278  -0.160  0.00  0.00    -0.378 OA
ENDBRANCH  17  18
ENDBRANCH   7  17
ENDBRANCH   6   7
ENDBRANCH   1   6
BRANCH   4  23
ATOM     23  C   UNL     1      -5.310   4.597   3.760  0.00  0.00    +0.174 C 
BRANCH  23  24
ATOM     24  C   UNL     1      -4.291   5.707   3.728  0.00  0.00    -0.004 A 
ATOM     25  C   UNL     1      -4.318   6.698   4.690  0.00  0.00    +0.007 A 
ATOM     26  C   UNL     1      -3.384   7.717   4.660  0.00  0.00    +0.000 A 
ATOM     27  C   UNL     1      -2.422   7.743   3.668  0.00  0.00    +0.000 A 
ATOM     28  C   UNL     1      -2.394   6.751   2.705  0.00  0.00    +0.000 A 
ATOM     29  C   UNL     1      -3.326   5.731   2.738  0.00  0.00    +0.007 A 
ENDBRANCH  23  24
BRANCH  23  30
ATOM     30  C   UNL     1      -6.015   4.523   2.431  0.00  0.00    -0.004 A 
ATOM     31  C   UNL     1      -5.534   3.690   1.438  0.00  0.00    +0.007 A 
ATOM     32  C   UNL     1      -6.181   3.622   0.218  0.00  0.00    +0.000 A 
ATOM     33  C   UNL     1      -7.310   4.387  -0.009  0.00  0.00    +0.000 A 
ATOM     34  C   UNL     1      -7.792   5.219   0.984  0.00  0.00    +0.000 A 
ATOM     35  C   UNL     1      -7.147   5.284   2.206  0.00  0.00    +0.007 A 
ENDBRANCH  23  30
BRANCH  23  36
ATOM     36  O   UNL     1      -6.264   4.856   4.792  0.00  0.00    -0.372 OA
ATOM     37  H   UNL     1      -5.879   4.916   5.677  0.00  0.00    +0.212 HD
ENDBRANCH  23  36
ENDBRANCH   4  23
TORSDOF 10
