REMARK  Name = ZINC16760814
REMARK  6 active torsions:
REMARK  status: ('A' for Active; 'I' for Inactive)
REMARK    1  A    between atoms: C_1  and  N_2
REMARK    2  A    between atoms: N_2  and  C_3
REMARK    3  A    between atoms: N_2  and  S_4
REMARK    4  A    between atoms: S_4  and  C_7
REMARK    5  A    between atoms: C_17  and  C_19
REMARK    6  A    between atoms: C_19  and  N_20
REMARK                            x       y       z     vdW  Elec       q    Type
REMARK                         _______ _______ _______ _____ _____    ______ ____
ROOT
ATOM      1  C   UNL     1       5.912   6.187  -5.274  0.00  0.00    +0.106 A 
ATOM      2  C   UNL     1       4.987   5.488  -4.521  0.00  0.00    +0.030 A 
ATOM      3  C   UNL     1       5.290   4.223  -4.059  0.00  0.00    +0.026 A 
ATOM      4  C   UNL     1       6.524   3.653  -4.350  0.00  0.00    +0.040 A 
ATOM      5  C   UNL     1       7.454   4.354  -5.103  0.00  0.00    -0.024 A 
ATOM      6  C   UNL     1       7.146   5.625  -5.558  0.00  0.00    +0.034 A 
ATOM      7  C   UNL     1       8.796   3.763  -5.447  0.00  0.00    +0.038 C 
ATOM      8  C   UNL     1       9.147   2.633  -4.479  0.00  0.00    +0.024 C 
ATOM      9  C   UNL     1       7.971   1.649  -4.416  0.00  0.00    +0.114 C 
ATOM     10  N   UNL     1       6.813   2.369  -3.869  0.00  0.00    -0.270 N 
ATOM     11  C   UNL     1       6.038   1.801  -2.923  0.00  0.00    +0.238 C 
ATOM     12  O   UNL     1       5.048   2.377  -2.524  0.00  0.00    -0.274 OA
ENDROOT
BRANCH   1  13
ATOM     13  S   UNL     1       5.527   7.803  -5.863  0.00  0.00    +0.060 S 
ATOM     14  O   UNL     1       6.347   8.026  -7.001  0.00  0.00    -0.153 OA
ATOM     15  O   UNL     1       4.110   7.888  -5.916  0.00  0.00    -0.153 OA
BRANCH  13  17
ATOM     16  C   UNL     1       7.382   9.423  -4.745  0.00  0.00    +0.131 C 
ATOM     17  N   UNL     1       6.023   8.877  -4.704  0.00  0.00    -0.183 NA
ATOM     18  C   UNL     1       5.102   9.282  -3.639  0.00  0.00    +0.131 C 
ENDBRANCH  13  17
ENDBRANCH   1  13
BRANCH  11  19
ATOM     19  C   UNL     1       6.403   0.451  -2.361  0.00  0.00    +0.214 C 
BRANCH  19  20
ATOM     20  N   UNL     1       5.373   0.023  -1.411  0.00  0.00    -0.215 N 
ATOM     21  C   UNL     1       4.282  -0.694  -1.748  0.00  0.00    +0.251 C 
ATOM     22  O   UNL     1       3.978  -1.091  -2.853  0.00  0.00    -0.272 OA
ATOM     23  C   UNL     1       3.517  -0.898  -0.460  0.00  0.00    +0.138 C 
ATOM     24  C   UNL     1       3.412  -2.384  -0.138  0.00  0.00    +0.040 C 
ATOM     25  C   UNL     1       2.414  -3.021  -1.113  0.00  0.00    +0.008 C 
ATOM     26  C   UNL     1       1.016  -2.503  -0.783  0.00  0.00    +0.035 C 
ATOM     27  C   UNL     1       1.007  -0.998  -0.713  0.00  0.00    -0.042 A 
ATOM     28  C   UNL     1       2.160  -0.259  -0.555  0.00  0.00    -0.012 A 
ATOM     29  C   UNL     1       2.084   1.125  -0.482  0.00  0.00    +0.006 A 
ATOM     30  C   UNL     1       0.865   1.766  -0.571  0.00  0.00    +0.000 A 
ATOM     31  C   UNL     1      -0.290   1.025  -0.734  0.00  0.00    +0.000 A 
ATOM     32  C   UNL     1      -0.217  -0.351  -0.805  0.00  0.00    +0.004 A 
ATOM     33  N   UNL     1       4.334  -0.212   0.550  0.00  0.00    -0.281 N 
ATOM     34  C   UNL     1       5.398   0.295  -0.101  0.00  0.00    +0.310 C 
ATOM     35  O   UNL     1       6.282   0.930   0.441  0.00  0.00    -0.252 OA
ATOM     36  H   UNL     1       4.145  -0.139   1.498  0.00  0.00    +0.152 HD
ENDBRANCH  19  20
ENDBRANCH  11  19
TORSDOF 4
