REMARK  Name = ZINC65409083
REMARK  6 active torsions:
REMARK  status: ('A' for Active; 'I' for Inactive)
REMARK    1  A    between atoms: C_1  and  C_2
REMARK    2  A    between atoms: C_2  and  N_3
REMARK    3  A    between atoms: C_4  and  C_10
REMARK    4  A    between atoms: C_10  and  C_11
REMARK    5  A    between atoms: C_17  and  C_19
REMARK    6  A    between atoms: C_25  and  C_29
REMARK                            x       y       z     vdW  Elec       q    Type
REMARK                         _______ _______ _______ _____ _____    ______ ____
ROOT
ATOM      1  C   UNL     1       4.454  -0.929   0.661  0.00  0.00    -0.001 C 
ATOM      2  C   UNL     1       4.885   0.043   1.762  0.00  0.00    +0.023 C 
ATOM      3  C   UNL     1       6.268  -0.362   2.282  0.00  0.00    +0.108 C 
ATOM      4  N   UNL     1       7.197  -0.439   1.146  0.00  0.00    -0.298 N 
ATOM      5  C   UNL     1       6.836  -1.275  -0.007  0.00  0.00    +0.108 C 
ATOM      6  C   UNL     1       5.447  -0.860  -0.501  0.00  0.00    +0.023 C 
ATOM      7  C   UNL     1       8.358   0.245   1.161  0.00  0.00    +0.259 C 
ATOM      8  O   UNL     1       8.644   0.932   2.119  0.00  0.00    -0.271 OA
ENDROOT
BRANCH   7   9
ATOM      9  C   UNL     1       9.300   0.157  -0.011  0.00  0.00    +0.263 C 
ATOM     10  N   UNL     1       8.809   0.989  -1.116  0.00  0.00    -0.356 N 
ATOM     11  C   UNL     1       9.717   1.890  -1.359  0.00  0.00    +0.061 A 
ATOM     12  C   UNL     1       9.799   2.988  -2.333  0.00  0.00    +0.027 A 
ATOM     13  C   UNL     1      10.890   3.779  -2.353  0.00  0.00    +0.005 A 
ATOM     14  C   UNL     1      11.971   3.602  -1.470  0.00  0.00    -0.048 A 
ATOM     15  C   UNL     1      11.997   2.627  -0.539  0.00  0.00    +0.030 A 
ATOM     16  C   UNL     1      10.861   1.703  -0.426  0.00  0.00    +0.061 A 
ATOM     17  N   UNL     1      10.617   0.692   0.358  0.00  0.00    -0.356 N 
ATOM     18  C   UNL     1      13.147   4.539  -1.570  0.00  0.00    +0.044 C 
ATOM     19  H   UNL     1       7.964   0.887  -1.581  0.00  0.00    +0.162 HD
ATOM     20  H   UNL     1      11.197   0.354   1.059  0.00  0.00    +0.162 HD
ENDBRANCH   7   9
BRANCH   1  21
ATOM     21  C   UNL     1       3.058  -0.548   0.163  0.00  0.00    +0.080 C 
BRANCH  21  23
ATOM     22  N   UNL     1       0.711  -0.489   1.189  0.00  0.00    -0.280 N 
ATOM     23  C   UNL     1       2.059  -0.734   1.276  0.00  0.00    +0.134 A 
ATOM     24  H   UNL     1       1.039  -1.461   4.128  0.00  0.00    +0.194 HD
ATOM     25  N   UNL     1       2.332  -1.152   2.470  0.00  0.00    -0.156 NA
ATOM     26  N   UNL     1       1.137  -1.188   3.203  0.00  0.00    -0.227 N 
ATOM     27  C   UNL     1       0.151  -0.766   2.384  0.00  0.00    +0.344 A 
ATOM     28  O   UNL     1      -1.028  -0.658   2.671  0.00  0.00    -0.245 OA
BRANCH  22  30
ATOM     29  C   UNL     1      -0.019   1.526   0.010  0.00  0.00    +0.027 C 
ATOM     30  C   UNL     1       0.002  -0.004   0.002  0.00  0.00    +0.125 C 
ENDBRANCH  22  30
ENDBRANCH  21  23
ENDBRANCH   1  21
TORSDOF 4
