REMARK  Name = ZINC21169130
REMARK  4 active torsions:
REMARK  status: ('A' for Active; 'I' for Inactive)
REMARK    1  A    between atoms: C_1  and  C_2
REMARK    2  A    between atoms: C_2  and  C_3
REMARK    3  A    between atoms: C_8  and  N_9
REMARK    4  A    between atoms: C_17  and  C_21
REMARK                            x       y       z     vdW  Elec       q    Type
REMARK                         _______ _______ _______ _____ _____    ______ ____
ROOT
ATOM      1  N   UNL     1       1.237  -2.080  -0.021  0.00  0.00    -0.177 N 
ATOM      2  C   UNL     1       1.903  -2.755  -0.989  0.00  0.00    +0.289 A 
ATOM      3  O   UNL     1       2.496  -2.163  -1.874  0.00  0.00    -0.265 OA
ATOM      4  C   UNL     1       1.893  -4.158  -0.937  0.00  0.00    +0.108 A 
ATOM      5  C   UNL     1       1.212  -4.843   0.067  0.00  0.00    +0.116 A 
ATOM      6  C   UNL     1       1.276  -6.314   0.000  0.00  0.00    +0.036 A 
ATOM      7  C   UNL     1       0.680  -7.245   0.884  0.00  0.00    +0.014 A 
ATOM      8  C   UNL     1       0.855  -8.590   0.653  0.00  0.00    +0.024 A 
ATOM      9  C   UNL     1       1.603  -9.022  -0.432  0.00  0.00    +0.040 A 
ATOM     10  N   UNL     1       2.156  -8.149  -1.252  0.00  0.00    -0.245 NA
ATOM     11  C   UNL     1       2.015  -6.853  -1.069  0.00  0.00    +0.111 A 
ATOM     12  S   UNL     1       2.603  -5.427  -1.951  0.00  0.00    -0.062 S 
ATOM     13  C   UNL     1       1.787 -10.498  -0.674  0.00  0.00    +0.065 C 
ATOM     14  N   UNL     1       0.565  -4.088   0.997  0.00  0.00    -0.129 NA
ATOM     15  N   UNL     1       0.568  -2.809   0.969  0.00  0.00    -0.057 NA
ENDROOT
BRANCH   1  21
ATOM     16  C   UNL     1       0.002  -0.004   0.002  0.00  0.00    -0.022 A 
ATOM     17  C   UNL     1      -0.017   1.377   0.010  0.00  0.00    +0.006 A 
ATOM     18  C   UNL     1       1.170   2.086   0.002  0.00  0.00    +0.000 A 
ATOM     19  C   UNL     1       2.380   1.415  -0.013  0.00  0.00    +0.002 A 
ATOM     20  C   UNL     1       2.406   0.035  -0.021  0.00  0.00    +0.028 A 
ATOM     21  C   UNL     1       1.215  -0.680  -0.013  0.00  0.00    +0.074 A 
BRANCH  16  23
ATOM     22  C   UNL     1      -1.653  -1.153   1.448  0.00  0.00    +0.009 C 
ATOM     23  C   UNL     1      -1.292  -0.776   0.010  0.00  0.00    +0.034 C 
ENDBRANCH  16  23
ENDBRANCH   1  21
TORSDOF 2
