REMARK  Name = ZINC39710526
REMARK  13 active torsions:
REMARK  status: ('A' for Active; 'I' for Inactive)
REMARK    1  A    between atoms: C_1  and  C_2
REMARK    2  A    between atoms: C_2  and  C_3
REMARK    3  A    between atoms: C_10  and  C_15
REMARK    4  A    between atoms: C_15  and  C_17
REMARK    5  A    between atoms: C_15  and  N_27
REMARK    6  A    between atoms: N_22  and  C_23
REMARK    7  A    between atoms: C_23  and  C_24
REMARK    8  A    between atoms: C_23  and  C_25
REMARK    9  A    between atoms: C_23  and  C_26
REMARK   10  A    between atoms: N_27  and  C_28
REMARK   11  A    between atoms: N_27  and  C_36
REMARK   12  A    between atoms: C_28  and  C_29
REMARK   13  A    between atoms: C_36  and  C_37
REMARK                            x       y       z     vdW  Elec       q    Type
REMARK                         _______ _______ _______ _____ _____    ______ ____
ROOT
ATOM      1  C   UNL     1      -5.618  -3.297  -2.652  0.00  0.00    -0.008 C 
ENDROOT
BRANCH   1   9
ATOM      2  C   UNL     1      -0.648  -1.304  -0.331  0.00  0.00    -0.047 A 
ATOM      3  C   UNL     1      -1.276  -1.009   0.879  0.00  0.00    +0.005 A 
ATOM      4  C   UNL     1      -2.627  -1.006   1.023  0.00  0.00    +0.024 A 
ATOM      5  C   UNL     1      -3.462  -1.306  -0.069  0.00  0.00    +0.040 A 
ATOM      6  N   UNL     1      -4.786  -1.299   0.084  0.00  0.00    -0.285 N 
ATOM      7  C   UNL     1      -5.628  -1.572  -0.899  0.00  0.00    +0.223 C 
ATOM      8  O   UNL     1      -6.827  -1.550  -0.700  0.00  0.00    -0.275 OA
ATOM      9  C   UNL     1      -5.093  -1.911  -2.272  0.00  0.00    +0.088 C 
ATOM     10  C   UNL     1      -3.587  -1.919  -2.451  0.00  0.00    -0.006 C 
ATOM     11  C   UNL     1      -2.826  -1.621  -1.360  0.00  0.00    -0.007 A 
ATOM     12  C   UNL     1      -1.366  -1.601  -1.446  0.00  0.00    +0.013 A 
ATOM     13  H   UNL     1      -5.150  -1.084   0.957  0.00  0.00    +0.155 HD
BRANCH   2  15
ATOM     14  C   UNL     1       1.331   0.119  -0.783  0.00  0.00    +0.009 C 
ATOM     15  C   UNL     1       0.857  -1.286  -0.406  0.00  0.00    +0.032 C 
ENDBRANCH   2  15
ENDBRANCH   1   9
BRANCH   1  16
ATOM     16  C   UNL     1      -5.229  -3.612  -4.097  0.00  0.00    +0.205 C 
ATOM     17  N   UNL     1      -5.591  -4.995  -4.436  0.00  0.00    -0.152 NA
ATOM     18  N   UNL     1      -4.567  -5.615  -4.729  0.00  0.00    -0.070 NA
ATOM     19  N   UNL     1      -3.416  -4.831  -4.650  0.00  0.00    -0.179 N 
ATOM     20  N   UNL     1      -3.760  -3.560  -4.259  0.00  0.00    -0.183 NA
ATOM     21  H   UNL     1      -2.515  -5.135  -4.840  0.00  0.00    +0.191 HD
BRANCH  20  22
ATOM     22  C   UNL     1      -3.377  -2.573  -5.277  0.00  0.00    +0.035 C 
ATOM     23  C   UNL     1      -4.050  -1.234  -4.967  0.00  0.00    +0.029 C 
ATOM     24  C   UNL     1      -1.858  -2.394  -5.267  0.00  0.00    +0.029 C 
ATOM     25  C   UNL     1      -3.825  -3.061  -6.656  0.00  0.00    +0.029 C 
ENDBRANCH  20  22
ENDBRANCH   1  16
BRANCH   1  26
ATOM     26  N   UNL     1      -7.081  -3.318  -2.523  0.00  0.00    +0.392 N 
ATOM     27  H   UNL     1      -7.343  -2.989  -1.605  0.00  0.00    -0.080 HD
BRANCH  26  28
ATOM     28  C   UNL     1      -7.676  -2.446  -3.544  0.00  0.00    -0.040 C 
BRANCH  28  29
ATOM     29  C   UNL     1      -9.174  -2.602  -3.528  0.00  0.00    -0.046 A 
ATOM     30  C   UNL     1      -9.795  -3.410  -4.462  0.00  0.00    +0.003 A 
ATOM     31  C   UNL     1     -11.170  -3.554  -4.447  0.00  0.00    +0.000 A 
ATOM     32  C   UNL     1     -11.925  -2.890  -3.498  0.00  0.00    +0.001 A 
ATOM     33  C   UNL     1     -11.305  -2.082  -2.564  0.00  0.00    +0.020 A 
ATOM     34  C   UNL     1      -9.928  -1.942  -2.575  0.00  0.00    +0.042 A 
ATOM     35 CL   UNL     1      -9.149  -0.932  -1.397  0.00  0.00    -0.083 Cl
ENDBRANCH  28  29
ENDBRANCH  26  28
BRANCH  26  36
ATOM     36  C   UNL     1      -7.569  -4.692  -2.707  0.00  0.00    -0.002 C 
BRANCH  36  37
ATOM     37  C   UNL     1      -7.012  -5.573  -1.619  0.00  0.00    +0.089 A 
ATOM     38  C   UNL     1      -7.619  -5.864  -0.455  0.00  0.00    +0.042 A 
ATOM     39  C   UNL     1      -6.747  -6.718   0.260  0.00  0.00    +0.041 A 
ATOM     40  C   UNL     1      -5.659  -6.897  -0.511  0.00  0.00    +0.195 A 
ATOM     41  O   UNL     1      -5.828  -6.206  -1.650  0.00  0.00    -0.470 OA
ENDBRANCH  36  37
ENDBRANCH  26  36
ENDBRANCH   1  26
TORSDOF 9
