REMARK  Name = ZINC55503586
REMARK  5 active torsions:
REMARK  status: ('A' for Active; 'I' for Inactive)
REMARK    1  A    between atoms: C_1  and  C_2
REMARK    2  A    between atoms: C_7  and  N_8
REMARK    3  A    between atoms: C_9  and  C_11
REMARK    4  A    between atoms: C_11  and  C_12
REMARK    5  A    between atoms: C_18  and  C_23
REMARK                            x       y       z     vdW  Elec       q    Type
REMARK                         _______ _______ _______ _____ _____    ______ ____
ROOT
ATOM      1  C   UNL     1      -0.243  -0.933   6.020  0.00  0.00    +0.120 A 
ATOM      2  N   UNL     1      -0.354  -0.474   7.293  0.00  0.00    -0.310 N 
ATOM      3  H   UNL     1      -0.383   0.482   7.454  0.00  0.00    +0.170 HD
ATOM      4  C   UNL     1      -0.425  -1.320   8.338  0.00  0.00    +0.260 A 
ATOM      5  O   UNL     1      -0.525  -0.893   9.475  0.00  0.00    -0.267 OA
ATOM      6  C   UNL     1      -0.382  -2.730   8.092  0.00  0.00    +0.083 A 
ATOM      7  C   UNL     1      -0.441  -3.834   9.044  0.00  0.00    +0.039 A 
ATOM      8  C   UNL     1      -0.382  -5.105   8.571  0.00  0.00    +0.059 A 
ATOM      9  S   UNL     1      -0.242  -4.883   6.808  0.00  0.00    -0.076 S 
ATOM     10  C   UNL     1      -0.266  -3.110   6.746  0.00  0.00    +0.116 A 
ATOM     11  N   UNL     1      -0.207  -2.213   5.764  0.00  0.00    -0.226 NA
ENDROOT
BRANCH   7  12
ATOM     12  C   UNL     1      -0.563  -3.574  10.493  0.00  0.00    +0.136 A 
ATOM     13  C   UNL     1      -1.465  -4.148  11.334  0.00  0.00    +0.050 A 
ATOM     14  C   UNL     1      -1.223  -3.613  12.616  0.00  0.00    +0.042 A 
ATOM     15  C   UNL     1      -0.197  -2.749  12.495  0.00  0.00    +0.196 A 
ATOM     16  O   UNL     1       0.204  -2.732  11.212  0.00  0.00    -0.463 OA
ENDBRANCH   7  12
BRANCH   1  17
ATOM     17  C   UNL     1      -0.168   0.052   4.882  0.00  0.00    +0.170 C 
BRANCH  17  19
ATOM     18  N   UNL     1       0.025  -0.015   2.417  0.00  0.00    -0.285 N 
ATOM     19  C   UNL     1      -0.056  -0.694   3.578  0.00  0.00    +0.225 C 
ATOM     20  O   UNL     1      -0.040  -1.907   3.573  0.00  0.00    -0.275 OA
ATOM     21  H   UNL     1       0.078   0.954   2.425  0.00  0.00    +0.155 HD
BRANCH  18  28
ATOM     22  C   UNL     1      -1.264   1.184   0.181  0.00  0.00    +0.045 C 
ATOM     23  C   UNL     1      -0.584  -0.158   0.084  0.00  0.00    -0.029 A 
ATOM     24  C   UNL     1      -0.568  -0.840  -1.117  0.00  0.00    +0.005 A 
ATOM     25  C   UNL     1       0.055  -2.071  -1.206  0.00  0.00    +0.000 A 
ATOM     26  C   UNL     1       0.666  -2.622  -0.095  0.00  0.00    +0.002 A 
ATOM     27  C   UNL     1       0.655  -1.945   1.108  0.00  0.00    +0.023 A 
ATOM     28  C   UNL     1       0.034  -0.706   1.201  0.00  0.00    +0.036 A 
ENDBRANCH  18  28
ENDBRANCH  17  19
ENDBRANCH   1  17
TORSDOF 4
