REMARK  Name = ZINC38671181
REMARK  7 active torsions:
REMARK  status: ('A' for Active; 'I' for Inactive)
REMARK    1  A    between atoms: C_1  and  N_2
REMARK    2  A    between atoms: C_10  and  C_12
REMARK    3  A    between atoms: C_12  and  C_14
REMARK    4  A    between atoms: C_12  and  N_27
REMARK    5  A    between atoms: C_14  and  N_15
REMARK    6  A    between atoms: N_15  and  S_16
REMARK    7  A    between atoms: S_16  and  C_19
REMARK                            x       y       z     vdW  Elec       q    Type
REMARK                         _______ _______ _______ _____ _____    ______ ____
ROOT
ATOM      1  C   UNL     1       5.034  -2.853  -0.531  0.00  0.00    -0.022 C 
ENDROOT
BRANCH   1  11
ATOM      2  C   UNL     1       0.169   1.137   1.201  0.00  0.00    +0.129 C 
ATOM      3  N   UNL     1       0.183  -0.303   0.931  0.00  0.00    -0.333 N 
ATOM      4  C   UNL     1      -1.053  -1.092   1.028  0.00  0.00    +0.105 C 
ATOM      5  C   UNL     1      -0.724  -2.385   1.788  0.00  0.00    +0.024 C 
ATOM      6  C   UNL     1       0.286  -3.193   0.973  0.00  0.00    +0.038 C 
ATOM      7  C   UNL     1       1.460  -2.333   0.587  0.00  0.00    -0.026 A 
ATOM      8  C   UNL     1       1.371  -0.948   0.570  0.00  0.00    +0.033 A 
ATOM      9  C   UNL     1       2.471  -0.183   0.199  0.00  0.00    +0.023 A 
ATOM     10  C   UNL     1       3.653  -0.800  -0.157  0.00  0.00    +0.004 A 
ATOM     11  C   UNL     1       3.742  -2.179  -0.144  0.00  0.00    -0.059 A 
ATOM     12  C   UNL     1       2.651  -2.944   0.235  0.00  0.00    +0.007 A 
ENDBRANCH   1  11
BRANCH   1  13
ATOM     13  N   UNL     1       6.165  -2.098   0.024  0.00  0.00    +0.385 N 
ATOM     14  C   UNL     1       7.419  -2.785  -0.308  0.00  0.00    -0.078 C 
ATOM     15  C   UNL     1       8.606  -1.961   0.197  0.00  0.00    -0.019 C 
ATOM     16  C   UNL     1       8.497  -1.797   1.716  0.00  0.00    -0.004 C 
ATOM     17  C   UNL     1       7.153  -1.147   2.054  0.00  0.00    -0.019 C 
ATOM     18  C   UNL     1       6.020  -2.001   1.481  0.00  0.00    -0.078 C 
ATOM     19  H   UNL     1       6.177  -1.171  -0.374  0.00  0.00    -0.081 HD
ENDBRANCH   1  13
BRANCH   1  20
ATOM     20  C   UNL     1       5.148  -2.898  -2.056  0.00  0.00    +0.095 C 
BRANCH  20  21
ATOM     21  N   UNL     1       4.077  -3.734  -2.602  0.00  0.00    -0.191 NA
ATOM     22  H   UNL     1       3.581  -4.329  -2.018  0.00  0.00    +0.148 HD
BRANCH  21  23
ATOM     23  S   UNL     1       3.712  -3.664  -4.215  0.00  0.00    +0.060 S 
ATOM     24  O   UNL     1       2.663  -4.597  -4.436  0.00  0.00    -0.153 OA
ATOM     25  O   UNL     1       3.588  -2.287  -4.544  0.00  0.00    -0.153 OA
BRANCH  23  26
ATOM     26  C   UNL     1       5.116  -4.267  -5.094  0.00  0.00    +0.125 A 
ATOM     27  C   UNL     1       5.021  -5.430  -5.834  0.00  0.00    +0.050 A 
ATOM     28  C   UNL     1       6.123  -5.903  -6.523  0.00  0.00    +0.043 A 
ATOM     29  C   UNL     1       7.320  -5.212  -6.472  0.00  0.00    +0.021 A 
ATOM     30  C   UNL     1       7.415  -4.049  -5.732  0.00  0.00    +0.023 A 
ATOM     31  C   UNL     1       6.311  -3.572  -5.047  0.00  0.00    +0.067 A 
ATOM     32 CL   UNL     1       6.428  -2.107  -4.123  0.00  0.00    -0.082 Cl
ATOM     33 CL   UNL     1       6.004  -7.365  -7.452  0.00  0.00    -0.083 Cl
ENDBRANCH  23  26
ENDBRANCH  21  23
ENDBRANCH  20  21
ENDBRANCH   1  20
TORSDOF 6
