REMARK  Name = ZINC09089639
REMARK  4 active torsions:
REMARK  status: ('A' for Active; 'I' for Inactive)
REMARK    1  A    between atoms: C_4  and  N_7
REMARK    2  A    between atoms: C_12  and  C_13
REMARK    3  A    between atoms: C_12  and  N_50
REMARK    4  A    between atoms: N_17  and  C_18
REMARK                            x       y       z     vdW  Elec       q    Type
REMARK                         _______ _______ _______ _____ _____    ______ ____
ROOT
ATOM      1  C   UNL     1      -3.513   1.553   0.022  0.00  0.00    +0.097 A 
ATOM      2  N   UNL     1      -3.563   2.905   0.036  0.00  0.00    -0.314 N 
ATOM      3  H   UNL     1      -4.417   3.364   0.051  0.00  0.00    +0.170 HD
ATOM      4  C   UNL     1      -2.384   3.622   0.028  0.00  0.00    +0.233 A 
ATOM      5  N   UNL     1      -2.404   4.945   0.040  0.00  0.00    -0.213 NA
ATOM      6  N   UNL     1      -1.218   2.960   0.012  0.00  0.00    -0.179 NA
ATOM      7  C   UNL     1      -1.209   1.637  -0.006  0.00  0.00    +0.217 A 
ATOM      8  N   UNL     1      -2.356   0.942   0.002  0.00  0.00    -0.204 NA
ATOM      9  N   UNL     1      -0.010   0.967  -0.028  0.00  0.00    -0.327 N 
ATOM     10  H   UNL     1       0.004  -0.003  -0.037  0.00  0.00    +0.145 HD
ATOM     11  H   UNL     1       0.823   1.464  -0.037  0.00  0.00    +0.145 HD
ENDROOT
BRANCH   5  12
ATOM     12  C   UNL     1      -1.235   5.646   0.141  0.00  0.00    +0.068 A 
ATOM     13  C   UNL     1      -0.683   5.912   1.397  0.00  0.00    +0.029 A 
ATOM     14  C   UNL     1       0.500   6.615   1.492  0.00  0.00    +0.022 A 
ATOM     15  C   UNL     1       1.135   7.066   0.347  0.00  0.00    +0.041 A 
ATOM     16  C   UNL     1       0.591   6.810  -0.900  0.00  0.00    +0.022 A 
ATOM     17  C   UNL     1      -0.589   6.103  -1.010  0.00  0.00    +0.029 A 
ATOM     18 CL   UNL     1       2.620   7.956   0.476  0.00  0.00    -0.084 Cl
ENDBRANCH   5  12
BRANCH   1  19
ATOM     19  C   UNL     1      -4.789   0.752   0.031  0.00  0.00    -0.003 C 
BRANCH  19  25
ATOM     20  N   UNL     1      -5.975  -1.171   3.601  0.00  0.00    -0.333 N 
ATOM     21  C   UNL     1      -6.945  -0.287   2.940  0.00  0.00    +0.086 C 
ATOM     22  C   UNL     1      -6.539  -0.091   1.477  0.00  0.00    -0.059 C 
ATOM     23  C   UNL     1      -4.216  -0.406   2.080  0.00  0.00    -0.059 C 
ATOM     24  C   UNL     1      -4.622  -0.602   3.542  0.00  0.00    +0.086 C 
ATOM     25  N   UNL     1      -5.186   0.502   1.433  0.00  0.00    +0.386 N 
ATOM     26  H   UNL     1      -5.196   1.395   1.941  0.00  0.00    -0.081 HD
BRANCH  20  30
ATOM     27  C   UNL     1      -7.099  -1.945   7.535  0.00  0.00    +0.000 A 
ATOM     28  C   UNL     1      -5.942  -2.504   7.025  0.00  0.00    +0.002 A 
ATOM     29  C   UNL     1      -5.566  -2.250   5.721  0.00  0.00    +0.023 A 
ATOM     30  C   UNL     1      -6.352  -1.431   4.920  0.00  0.00    +0.030 A 
ATOM     31  C   UNL     1      -7.512  -0.867   5.437  0.00  0.00    +0.023 A 
ATOM     32  C   UNL     1      -7.884  -1.129   6.740  0.00  0.00    +0.002 A 
ENDBRANCH  20  30
ENDBRANCH  19  25
ENDBRANCH   1  19
TORSDOF 4
