REMARK  Name = ZINC63158476
REMARK  4 active torsions:
REMARK  status: ('A' for Active; 'I' for Inactive)
REMARK    1  A    between atoms: C_1  and  C_2
REMARK    2  A    between atoms: C_3  and  C_20
REMARK    3  A    between atoms: C_5  and  C_9
REMARK    4  A    between atoms: C_7  and  N_8
REMARK                            x       y       z     vdW  Elec       q    Type
REMARK                         _______ _______ _______ _____ _____    ______ ____
ROOT
ATOM      1  C   UNL     1      -0.018   1.503   0.010  0.00  0.00    +0.049 C 
ATOM      2  C   UNL     1       0.002  -0.004   0.002  0.00  0.00    +0.010 A 
ATOM      3  C   UNL     1       0.006  -0.705  -1.188  0.00  0.00    +0.046 A 
ATOM      4  N   UNL     1       0.024  -2.030  -1.157  0.00  0.00    -0.236 NA
ATOM      5  C   UNL     1       0.038  -2.683  -0.013  0.00  0.00    +0.139 A 
ATOM      6  N   UNL     1       0.035  -2.055   1.146  0.00  0.00    -0.217 NA
ATOM      7  C   UNL     1       0.023  -0.726   1.197  0.00  0.00    +0.123 A 
ATOM      8  C   UNL     1      -0.010   0.027  -2.505  0.00  0.00    +0.066 C 
ENDROOT
BRANCH   5   9
ATOM      9  C   UNL     1       0.059  -4.190  -0.029  0.00  0.00    +0.087 C 
ATOM     10  C   UNL     1       1.324  -4.684   0.670  0.00  0.00    +0.016 C 
ATOM     11  C   UNL     1       1.222  -6.205   0.837  0.00  0.00    +0.006 C 
ATOM     12  C   UNL     1       0.145  -6.503   1.877  0.00  0.00    +0.035 C 
ATOM     13  C   UNL     1      -1.131  -5.776   1.543  0.00  0.00    -0.044 A 
ATOM     14  C   UNL     1      -1.169  -4.711   0.671  0.00  0.00    -0.034 A 
ATOM     15  C   UNL     1      -2.378  -4.079   0.412  0.00  0.00    +0.004 A 
ATOM     16  C   UNL     1      -3.540  -4.511   1.018  0.00  0.00    +0.000 A 
ATOM     17  C   UNL     1      -3.501  -5.583   1.890  0.00  0.00    +0.000 A 
ATOM     18  C   UNL     1      -2.302  -6.211   2.150  0.00  0.00    +0.004 A 
ENDBRANCH   5   9
BRANCH   7  19
ATOM     19  N   UNL     1       0.026  -0.069   2.417  0.00  0.00    -0.343 N 
ATOM     20  H   UNL     1       0.013   0.901   2.445  0.00  0.00    +0.144 HD
ATOM     21  H   UNL     1       0.041  -0.578   3.242  0.00  0.00    +0.144 HD
ENDBRANCH   7  19
TORSDOF 2
