REMARK  Name = ZINC46344159
REMARK  10 active torsions:
REMARK  status: ('A' for Active; 'I' for Inactive)
REMARK    1  A    between atoms: C_1  and  C_2
REMARK    2  A    between atoms: C_2  and  C_4
REMARK    3  A    between atoms: C_2  and  N_23
REMARK    4  A    between atoms: C_4  and  N_5
REMARK    5  A    between atoms: N_8  and  N_9
REMARK    6  A    between atoms: C_10  and  C_12
REMARK    7  A    between atoms: C_12  and  C_13
REMARK    8  A    between atoms: N_21  and  C_22
REMARK    9  A    between atoms: N_23  and  C_24
REMARK   10  A    between atoms: N_23  and  C_25
REMARK                            x       y       z     vdW  Elec       q    Type
REMARK                         _______ _______ _______ _____ _____    ______ ____
ROOT
ATOM      1  N   UNL     1      -1.436  -1.999   0.177  0.00  0.00    -0.296 N 
ATOM      2  C   UNL     1      -2.597  -2.681   0.231  0.00  0.00    +0.316 C 
ATOM      3  O   UNL     1      -3.655  -2.085   0.168  0.00  0.00    -0.251 OA
ATOM      4  N   UNL     1      -2.585  -4.023   0.356  0.00  0.00    -0.218 N 
ATOM      5  H   UNL     1      -0.591  -2.474   0.227  0.00  0.00    +0.150 HD
ATOM      6  H   UNL     1      -3.421  -4.513   0.396  0.00  0.00    +0.174 HD
ENDROOT
BRANCH   4   7
ATOM      7  N   UNL     1      -1.366  -4.709   0.430  0.00  0.00    -0.233 N 
ATOM      8  C   UNL     1      -1.355  -6.051   0.555  0.00  0.00    +0.236 C 
ATOM      9  O   UNL     1      -2.400  -6.665   0.604  0.00  0.00    -0.274 OA
ATOM     10  H   UNL     1      -0.530  -4.218   0.390  0.00  0.00    +0.173 HD
BRANCH   8  11
ATOM     11  C   UNL     1      -0.043  -6.789   0.634  0.00  0.00    +0.171 C 
BRANCH  11  12
ATOM     12  C   UNL     1      -0.306  -8.267   0.769  0.00  0.00    +0.119 A 
ATOM     13  N   UNL     1      -0.449  -8.898   1.898  0.00  0.00    -0.232 NA
ATOM     14  C   UNL     1      -0.673 -10.216   1.659  0.00  0.00    +0.089 A 
ATOM     15  C   UNL     1      -0.890 -11.322   2.485  0.00  0.00    +0.030 A 
ATOM     16  C   UNL     1      -1.089 -12.555   1.933  0.00  0.00    +0.002 A 
ATOM     17  C   UNL     1      -1.078 -12.724   0.555  0.00  0.00    +0.002 A 
ATOM     18  C   UNL     1      -0.866 -11.648  -0.279  0.00  0.00    +0.028 A 
ATOM     19  C   UNL     1      -0.662 -10.386   0.264  0.00  0.00    +0.069 A 
ATOM     20  N   UNL     1      -0.433  -9.134  -0.271  0.00  0.00    -0.330 N 
ATOM     21  C   UNL     1      -0.341  -8.802  -1.695  0.00  0.00    +0.150 C 
ENDBRANCH  11  12
ENDBRANCH   8  11
ENDBRANCH   4   7
BRANCH   1  22
ATOM     22  C   UNL     1      -1.448  -0.541   0.041  0.00  0.00    +0.127 C 
BRANCH  22  24
ATOM     23  C   UNL     1      -0.022   1.510  -0.013  0.00  0.00    +0.029 C 
ATOM     24  C   UNL     1      -0.010  -0.019   0.003  0.00  0.00    +0.087 C 
BRANCH  24  25
ATOM     25  N   UNL     1       0.711  -0.489   1.189  0.00  0.00    -0.329 N 
ATOM     26  C   UNL     1       0.296  -0.045   2.522  0.00  0.00    +0.129 C 
BRANCH  25  27
ATOM     27  C   UNL     1       1.793  -1.361   1.048  0.00  0.00    +0.030 A 
ATOM     28  C   UNL     1       2.268  -1.682  -0.217  0.00  0.00    +0.023 A 
ATOM     29  C   UNL     1       3.339  -2.544  -0.352  0.00  0.00    +0.002 A 
ATOM     30  C   UNL     1       3.938  -3.087   0.770  0.00  0.00    +0.000 A 
ATOM     31  C   UNL     1       3.467  -2.769   2.031  0.00  0.00    +0.002 A 
ATOM     32  C   UNL     1       2.400  -1.904   2.174  0.00  0.00    +0.023 A 
ENDBRANCH  25  27
ENDBRANCH  24  25
ENDBRANCH  22  24
ENDBRANCH   1  22
TORSDOF 7
