REMARK  Name = ZINC13319685
REMARK  6 active torsions:
REMARK  status: ('A' for Active; 'I' for Inactive)
REMARK    1  A    between atoms: C_1  and  C_2
REMARK    2  A    between atoms: C_11  and  O_13
REMARK    3  A    between atoms: O_13  and  C_14
REMARK    4  A    between atoms: C_14  and  C_15
REMARK    5  A    between atoms: C_21  and  C_29
REMARK    6  A    between atoms: C_22  and  C_26
REMARK                            x       y       z     vdW  Elec       q    Type
REMARK                         _______ _______ _______ _____ _____    ______ ____
ROOT
ATOM      1  C   UNL     1       0.108  -4.373   4.632  0.00  0.00    +0.303 C 
ENDROOT
BRANCH   1   2
ATOM      2  C   UNL     1       0.130  -4.991   6.007  0.00  0.00    +0.149 A 
ATOM      3  N   UNL     1       0.156  -6.342   6.120  0.00  0.00    -0.308 N 
ATOM      4  H   UNL     1       0.159  -6.886   5.318  0.00  0.00    +0.170 HD
ATOM      5  C   UNL     1       0.177  -6.944   7.326  0.00  0.00    +0.260 A 
ATOM      6  O   UNL     1       0.202  -8.158   7.417  0.00  0.00    -0.267 OA
ATOM      7  C   UNL     1       0.172  -6.090   8.537  0.00  0.00    +0.076 A 
ATOM      8  C   UNL     1       0.190  -6.469   9.879  0.00  0.00    -0.015 A 
ATOM      9  C   UNL     1       0.181  -5.500  10.858  0.00  0.00    +0.106 A 
ATOM     10  S   UNL     1       0.144  -3.987   9.912  0.00  0.00    -0.062 S 
ATOM     11  C   UNL     1       0.143  -4.699   8.286  0.00  0.00    +0.116 A 
ATOM     12  N   UNL     1       0.129  -4.210   7.053  0.00  0.00    -0.223 NA
ATOM     13  C   UNL     1       0.221  -7.927  10.256  0.00  0.00    +0.046 C 
BRANCH   9  14
ATOM     14  C   UNL     1       0.196  -5.665  12.266  0.00  0.00    +0.393 C 
ATOM     15  O   UNL     1       0.220  -6.789  12.752  0.00  0.00    -0.240 OA
ATOM     16  O   UNL     1       0.183  -4.682  12.998  0.00  0.00    -0.240 OA
ENDBRANCH   9  14
ENDBRANCH   1   2
BRANCH   1  17
ATOM     17  O   UNL     1       0.088  -2.950   4.751  0.00  0.00    -0.483 OA
BRANCH  17  28
ATOM     18  C   UNL     1      -0.018   1.503   0.010  0.00  0.00    +0.045 C 
ATOM     19  C   UNL     1       0.002  -0.004   0.002  0.00  0.00    -0.033 A 
ATOM     20  C   UNL     1       0.006  -0.695  -1.167  0.00  0.00    +0.096 A 
ATOM     21  C   UNL     1       0.026  -2.105  -1.149  0.00  0.00    +0.337 A 
ATOM     22  O   UNL     1       0.029  -2.712  -2.205  0.00  0.00    -0.245 OA
ATOM     23  O   UNL     1       0.042  -2.795   0.002  0.00  0.00    -0.422 OA
ATOM     24  C   UNL     1       0.038  -2.169   1.199  0.00  0.00    +0.143 A 
ATOM     25  C   UNL     1       0.024  -0.763   1.254  0.00  0.00    +0.022 A 
ATOM     26  C   UNL     1       0.026  -0.110   2.492  0.00  0.00    +0.035 A 
ATOM     27  C   UNL     1       0.047  -0.842   3.645  0.00  0.00    +0.083 A 
ATOM     28  C   UNL     1       0.067  -2.235   3.596  0.00  0.00    +0.143 A 
ATOM     29  C   UNL     1       0.054  -2.897   2.379  0.00  0.00    +0.094 A 
ATOM     30 CL   UNL     1       0.050  -0.033   5.181  0.00  0.00    -0.080 Cl
ENDBRANCH  17  28
ENDBRANCH   1  17
TORSDOF 4
