REMARK  Name = ZINC35450169
REMARK  9 active torsions:
REMARK  status: ('A' for Active; 'I' for Inactive)
REMARK    1  A    between atoms: C_1  and  C_2
REMARK    2  A    between atoms: C_2  and  C_3
REMARK    3  A    between atoms: C_3  and  C_5
REMARK    4  A    between atoms: C_3  and  S_6
REMARK    5  A    between atoms: S_6  and  C_7
REMARK    6  A    between atoms: C_17  and  C_19
REMARK    7  A    between atoms: C_24  and  N_25
REMARK    8  A    between atoms: C_31  and  C_33
REMARK    9  A    between atoms: C_31  and  C_34
REMARK                            x       y       z     vdW  Elec       q    Type
REMARK                         _______ _______ _______ _____ _____    ______ ____
ROOT
ATOM      1  C   UNL     1      -4.428  -1.476  -1.935  0.00  0.00    +0.172 A 
ATOM      2  N   UNL     1      -4.770  -2.083  -0.817  0.00  0.00    -0.185 NA
ATOM      3  C   UNL     1      -6.061  -2.260  -0.494  0.00  0.00    +0.280 A 
ATOM      4  O   UNL     1      -6.361  -2.827   0.546  0.00  0.00    -0.265 OA
ATOM      5  C   UNL     1      -7.069  -1.786  -1.362  0.00  0.00    +0.069 A 
ATOM      6  C   UNL     1      -6.703  -1.164  -2.514  0.00  0.00    +0.111 A 
ATOM      7  N   UNL     1      -5.372  -1.003  -2.797  0.00  0.00    -0.322 N 
ATOM      8  N   UNL     1      -7.661  -0.700  -3.385  0.00  0.00    -0.304 N 
ATOM      9  C   UNL     1      -8.944  -1.172  -3.326  0.00  0.00    +0.017 C 
ATOM     10  C   UNL     1      -9.402  -1.785  -2.213  0.00  0.00    +0.024 C 
ATOM     11  C   UNL     1      -8.515  -1.966  -1.007  0.00  0.00    +0.095 C 
ATOM     12  C   UNL     1     -10.720  -2.267  -2.142  0.00  0.00    +0.162 C 
ATOM     13  O   UNL     1     -11.095  -2.831  -1.133  0.00  0.00    -0.292 OA
ATOM     14  C   UNL     1     -11.676  -2.099  -3.291  0.00  0.00    +0.086 C 
ATOM     15  C   UNL     1     -11.287  -0.847  -4.084  0.00  0.00    -0.023 C 
ATOM     16  C   UNL     1      -9.831  -0.993  -4.534  0.00  0.00    +0.058 C 
ATOM     17  C   UNL     1     -11.430   0.390  -3.196  0.00  0.00    +0.011 C 
ATOM     18  C   UNL     1     -12.192  -0.713  -5.310  0.00  0.00    +0.011 C 
ATOM     19  H   UNL     1      -7.425  -0.032  -4.048  0.00  0.00    +0.153 HD
ATOM     20  H   UNL     1      -5.101  -0.556  -3.614  0.00  0.00    +0.169 HD
ENDROOT
BRANCH  11  21
ATOM     21  C   UNL     1      -8.896  -0.953   0.042  0.00  0.00    -0.005 A 
ATOM     22  C   UNL     1      -8.936   0.391  -0.278  0.00  0.00    +0.007 A 
ATOM     23  C   UNL     1      -9.286   1.320   0.684  0.00  0.00    +0.000 A 
ATOM     24  C   UNL     1      -9.595   0.904   1.966  0.00  0.00    +0.002 A 
ATOM     25  C   UNL     1      -9.556  -0.440   2.285  0.00  0.00    +0.033 A 
ATOM     26  C   UNL     1      -9.210  -1.369   1.322  0.00  0.00    +0.130 A 
BRANCH  26  27
ATOM     27  N   UNL     1      -9.173  -2.809   1.662  0.00  0.00    +0.057 N 
ATOM     28  O   UNL     1      -9.779  -3.219   2.625  0.00  0.00    -0.126 OA
ATOM     29  O   UNL     1      -8.537  -3.576   0.978  0.00  0.00    -0.126 OA
ENDBRANCH  26  27
ENDBRANCH  11  21
BRANCH   1  30
ATOM     30  S   UNL     1      -2.722  -1.263  -2.317  0.00  0.00    -0.085 S 
BRANCH  30  31
ATOM     31  C   UNL     1      -1.859  -2.030  -0.918  0.00  0.00    +0.051 C 
ATOM     32  C   UNL     1      -2.152  -3.532  -0.900  0.00  0.00    +0.019 C 
BRANCH  31  34
ATOM     33  C   UNL     1      -0.047  -0.311  -0.955  0.00  0.00    +0.005 C 
ATOM     34  C   UNL     1      -0.353  -1.806  -1.062  0.00  0.00    +0.011 C 
ENDBRANCH  31  34
ENDBRANCH  30  31
ENDBRANCH   1  30
TORSDOF 5
