REMARK  Name = ZINC16654846
REMARK  9 active torsions:
REMARK  status: ('A' for Active; 'I' for Inactive)
REMARK    1  A    between atoms: C_1  and  C_2
REMARK    2  A    between atoms: C_2  and  C_3
REMARK    3  A    between atoms: C_2  and  N_4
REMARK    4  A    between atoms: C_14  and  S_15
REMARK    5  A    between atoms: S_15  and  C_16
REMARK    6  A    between atoms: C_16  and  C_17
REMARK    7  A    between atoms: C_17  and  C_19
REMARK    8  A    between atoms: C_20  and  N_31
REMARK    9  A    between atoms: N_21  and  C_28
REMARK                            x       y       z     vdW  Elec       q    Type
REMARK                         _______ _______ _______ _____ _____    ______ ____
ROOT
ATOM      1  C   UNL     1      -2.355  -3.397   2.831  0.00  0.00    +0.182 C 
ATOM      2  O   UNL     1      -1.704  -3.916   1.946  0.00  0.00    -0.291 OA
ENDROOT
BRANCH   1   3
ATOM      3  C   UNL     1      -2.634  -4.112   4.015  0.00  0.00    +0.120 A 
ATOM      4  C   UNL     1      -2.294  -5.470   4.139  0.00  0.00    +0.116 A 
ATOM      5  N   UNL     1      -2.579  -6.119   5.306  0.00  0.00    -0.278 N 
ATOM      6  C   UNL     1      -3.184  -5.488   6.325  0.00  0.00    +0.331 A 
ATOM      7  O   UNL     1      -3.421  -6.111   7.341  0.00  0.00    -0.246 OA
ATOM      8  N   UNL     1      -3.537  -4.194   6.262  0.00  0.00    -0.274 N 
ATOM      9  H   UNL     1      -3.986  -3.766   7.047  0.00  0.00    +0.173 HD
ATOM     10  C   UNL     1      -3.294  -3.463   5.155  0.00  0.00    +0.266 A 
ATOM     11  O   UNL     1      -3.615  -2.290   5.101  0.00  0.00    -0.267 OA
BRANCH   5  12
ATOM     12  C   UNL     1      -2.223  -7.533   5.447  0.00  0.00    +0.094 C 
ATOM     13  C   UNL     1      -1.508  -7.956   6.732  0.00  0.00    +0.027 C 
ATOM     14  C   UNL     1      -0.737  -7.894   5.411  0.00  0.00    +0.027 C 
ENDBRANCH   5  12
BRANCH   4  15
ATOM     15  N   UNL     1      -1.685  -6.127   3.114  0.00  0.00    -0.344 N 
ATOM     16  H   UNL     1      -1.142  -5.636   2.478  0.00  0.00    +0.144 HD
ATOM     17  H   UNL     1      -1.794  -7.086   3.020  0.00  0.00    +0.144 HD
ENDBRANCH   4  15
ENDBRANCH   1   3
BRANCH   1  18
ATOM     18  C   UNL     1      -2.864  -1.988   2.664  0.00  0.00    +0.157 C 
BRANCH  18  19
ATOM     19  S   UNL     1      -2.345  -1.346   1.053  0.00  0.00    -0.080 S 
BRANCH  19  30
ATOM     20  N   UNL     1      -2.882   1.100   0.056  0.00  0.00    -0.285 N 
ATOM     21  C   UNL     1      -3.414   2.344   0.065  0.00  0.00    +0.263 A 
ATOM     22  O   UNL     1      -3.273   3.098  -0.881  0.00  0.00    -0.267 OA
ATOM     23  C   UNL     1      -4.168   2.751   1.258  0.00  0.00    +0.065 A 
ATOM     24  C   UNL     1      -4.756   4.011   1.364  0.00  0.00    +0.015 A 
ATOM     25  C   UNL     1      -5.447   4.338   2.498  0.00  0.00    +0.001 A 
ATOM     26  C   UNL     1      -5.571   3.430   3.541  0.00  0.00    +0.002 A 
ATOM     27  C   UNL     1      -5.005   2.189   3.464  0.00  0.00    +0.028 A 
ATOM     28  C   UNL     1      -4.291   1.824   2.318  0.00  0.00    +0.079 A 
ATOM     29  N   UNL     1      -3.718   0.609   2.199  0.00  0.00    -0.223 NA
ATOM     30  C   UNL     1      -3.055   0.266   1.123  0.00  0.00    +0.173 A 
BRANCH  20  32
ATOM     31  C   UNL     1      -0.919   1.563  -1.327  0.00  0.00    +0.031 C 
ATOM     32  C   UNL     1      -2.121   0.642  -1.110  0.00  0.00    +0.087 C 
ATOM     33  C   UNL     1      -3.018   0.673  -2.349  0.00  0.00    +0.031 C 
ENDBRANCH  20  32
ENDBRANCH  19  30
ENDBRANCH  18  19
ENDBRANCH   1  18
TORSDOF 7
