REMARK  Name = ZINC07222340
REMARK  7 active torsions:
REMARK  status: ('A' for Active; 'I' for Inactive)
REMARK    1  A    between atoms: C_1  and  C_2
REMARK    2  A    between atoms: C_2  and  C_19
REMARK    3  A    between atoms: N_5  and  C_9
REMARK    4  A    between atoms: C_9  and  C_10
REMARK    5  A    between atoms: C_15  and  O_16
REMARK    6  A    between atoms: O_16  and  C_17
REMARK    7  A    between atoms: C_22  and  N_25
REMARK                            x       y       z     vdW  Elec       q    Type
REMARK                         _______ _______ _______ _____ _____    ______ ____
ROOT
ATOM      1  C   UNL     1       1.748   2.588  -1.259  0.00  0.00    +0.047 C 
ATOM      2  C   UNL     1       1.437   1.773  -0.002  0.00  0.00    +0.135 C 
ATOM      3  C   UNL     1      -0.016   1.343   0.009  0.00  0.00    +0.251 C 
ATOM      4  O   UNL     1      -0.992   2.062   0.018  0.00  0.00    -0.272 OA
ATOM      5  N   UNL     1       0.002  -0.004   0.002  0.00  0.00    -0.219 N 
ATOM      6  C   UNL     1       1.252  -0.481  -0.013  0.00  0.00    +0.310 C 
ATOM      7  O   UNL     1       1.524  -1.665  -0.021  0.00  0.00    -0.252 OA
ATOM      8  N   UNL     1       2.175   0.498  -0.016  0.00  0.00    -0.281 N 
ATOM      9  H   UNL     1       3.139   0.386  -0.025  0.00  0.00    +0.152 HD
ENDROOT
BRANCH   2  10
ATOM     10  C   UNL     1       1.767   2.563   1.238  0.00  0.00    -0.015 A 
ATOM     11  C   UNL     1       0.791   3.325   1.852  0.00  0.00    +0.008 A 
ATOM     12  C   UNL     1       1.092   4.046   2.992  0.00  0.00    +0.033 A 
ATOM     13  C   UNL     1       2.371   4.012   3.514  0.00  0.00    +0.126 A 
ATOM     14  C   UNL     1       3.349   3.253   2.898  0.00  0.00    +0.033 A 
ATOM     15  C   UNL     1       3.047   2.529   1.760  0.00  0.00    +0.008 A 
BRANCH  13  16
ATOM     16  N   UNL     1       2.695   4.788   4.732  0.00  0.00    +0.056 N 
ATOM     17  O   UNL     1       3.822   4.757   5.192  0.00  0.00    -0.126 OA
ATOM     18  O   UNL     1       1.834   5.456   5.275  0.00  0.00    -0.126 OA
ENDBRANCH  13  16
ENDBRANCH   2  10
BRANCH   5  19
ATOM     19  C   UNL     1      -1.199  -0.844   0.010  0.00  0.00    +0.157 C 
BRANCH  19  20
ATOM     20  C   UNL     1      -1.625  -1.124  -1.408  0.00  0.00    +0.013 A 
ATOM     21  C   UNL     1      -2.659  -0.403  -1.975  0.00  0.00    +0.028 A 
ATOM     22  C   UNL     1      -3.046  -0.656  -3.279  0.00  0.00    +0.042 A 
ATOM     23  C   UNL     1      -2.407  -1.639  -4.014  0.00  0.00    +0.023 A 
ATOM     24  C   UNL     1      -1.377  -2.365  -3.449  0.00  0.00    +0.047 A 
ATOM     25  C   UNL     1      -0.983  -2.109  -2.144  0.00  0.00    +0.125 A 
ATOM     26 CL   UNL     1      -4.340   0.256  -3.990  0.00  0.00    -0.084 Cl
BRANCH  25  27
ATOM     27  O   UNL     1       0.031  -2.822  -1.587  0.00  0.00    -0.495 OA
ATOM     28  C   UNL     1       0.646  -3.821  -2.403  0.00  0.00    +0.277 C 
ENDBRANCH  25  27
ENDBRANCH  19  20
ENDBRANCH   5  19
TORSDOF 5
