REMARK  Name = ZINC04015916
REMARK  6 active torsions:
REMARK  status: ('A' for Active; 'I' for Inactive)
REMARK    1  A    between atoms: C_3  and  C_10
REMARK    2  A    between atoms: C_5  and  N_7
REMARK    3  A    between atoms: C_10  and  C_11
REMARK    4  A    between atoms: C_10  and  C_19
REMARK    5  A    between atoms: C_14  and  N_18
REMARK    6  A    between atoms: C_22  and  N_26
REMARK                            x       y       z     vdW  Elec       q    Type
REMARK                         _______ _______ _______ _____ _____    ______ ____
ROOT
ATOM      1  C   UNL     1      -1.332   2.114   0.020  0.00  0.00    +0.079 C 
ENDROOT
BRANCH   1   2
ATOM      2  C   UNL     1      -2.367   1.406  -0.816  0.00  0.00    -0.034 A 
ATOM      3  C   UNL     1      -2.155   0.100  -1.218  0.00  0.00    +0.006 A 
ATOM      4  C   UNL     1      -3.103  -0.553  -1.980  0.00  0.00    +0.024 A 
ATOM      5  C   UNL     1      -4.268   0.107  -2.352  0.00  0.00    +0.043 A 
ATOM      6  C   UNL     1      -4.476   1.421  -1.951  0.00  0.00    +0.062 A 
ATOM      7  C   UNL     1      -3.525   2.067  -1.184  0.00  0.00    +0.026 A 
ATOM      8 CL   UNL     1      -5.930   2.250  -2.412  0.00  0.00    -0.082 Cl
BRANCH   5   9
ATOM      9  N   UNL     1      -5.227  -0.549  -3.128  0.00  0.00    -0.357 N 
ATOM     10  H   UNL     1      -6.040  -0.088  -3.388  0.00  0.00    +0.142 HD
ATOM     11  H   UNL     1      -5.080  -1.467  -3.408  0.00  0.00    +0.142 HD
ENDBRANCH   5   9
ENDBRANCH   1   2
BRANCH   1  12
ATOM     12  C   UNL     1      -1.263   1.473   1.382  0.00  0.00    -0.034 A 
ATOM     13  C   UNL     1      -0.790   0.180   1.513  0.00  0.00    +0.006 A 
ATOM     14  C   UNL     1      -0.720  -0.409   2.760  0.00  0.00    +0.024 A 
ATOM     15  C   UNL     1      -1.136   0.294   3.883  0.00  0.00    +0.043 A 
ATOM     16  C   UNL     1      -1.616   1.592   3.748  0.00  0.00    +0.062 A 
ATOM     17  C   UNL     1      -1.677   2.177   2.498  0.00  0.00    +0.026 A 
ATOM     18 CL   UNL     1      -2.136   2.476   5.148  0.00  0.00    -0.082 Cl
BRANCH  15  19
ATOM     19  N   UNL     1      -1.073  -0.301   5.146  0.00  0.00    -0.357 N 
ATOM     20  H   UNL     1      -1.364   0.191   5.929  0.00  0.00    +0.142 HD
ATOM     21  H   UNL     1      -0.738  -1.207   5.239  0.00  0.00    +0.142 HD
ENDBRANCH  15  19
ENDBRANCH   1  12
BRANCH   1  24
ATOM     22  C   UNL     1       1.326   1.849  -2.648  0.00  0.00    +0.003 A 
ATOM     23  C   UNL     1       0.092   1.937  -2.031  0.00  0.00    +0.005 A 
ATOM     24  C   UNL     1       0.013   2.010  -0.653  0.00  0.00    -0.033 A 
ATOM     25  C   UNL     1       1.167   1.994   0.108  0.00  0.00    +0.037 A 
ATOM     26  C   UNL     1       2.400   1.906  -0.509  0.00  0.00    +0.126 A 
ATOM     27  C   UNL     1       2.480   1.833  -1.887  0.00  0.00    +0.033 A 
BRANCH  26  28
ATOM     28  N   UNL     1       3.636   1.888   0.305  0.00  0.00    +0.056 N 
ATOM     29  O   UNL     1       4.723   1.809  -0.238  0.00  0.00    -0.126 OA
ATOM     30  O   UNL     1       3.566   1.953   1.520  0.00  0.00    -0.126 OA
ENDBRANCH  26  28
ENDBRANCH   1  24
TORSDOF 6
