REMARK  Name = ZINC02290924
REMARK  6 active torsions:
REMARK  status: ('A' for Active; 'I' for Inactive)
REMARK    1  A    between atoms: C_3  and  N_22
REMARK    2  A    between atoms: C_4  and  C_8
REMARK    3  A    between atoms: C_8  and  C_10
REMARK    4  A    between atoms: C_12  and  N_19
REMARK    5  A    between atoms: C_14  and  N_16
REMARK    6  A    between atoms: C_23  and  C_25
REMARK                            x       y       z     vdW  Elec       q    Type
REMARK                         _______ _______ _______ _____ _____    ______ ____
ROOT
ATOM      1  C   UNL     1      -3.685   3.225  -0.164  0.00  0.00    +0.195 C 
ATOM      2  O   UNL     1      -4.005   3.817  -1.177  0.00  0.00    -0.287 OA
ENDROOT
BRANCH   1   6
ATOM      3  C   UNL     1      -3.448  -1.018  -0.167  0.00  0.00    +0.017 A 
ATOM      4  C   UNL     1      -2.288  -0.271  -0.104  0.00  0.00    +0.025 A 
ATOM      5  C   UNL     1      -2.353   1.115  -0.097  0.00  0.00    +0.044 A 
ATOM      6  C   UNL     1      -3.603   1.753  -0.166  0.00  0.00    +0.044 A 
ATOM      7  C   UNL     1      -4.768   0.984  -0.234  0.00  0.00    +0.028 A 
ATOM      8  C   UNL     1      -4.683  -0.393  -0.235  0.00  0.00    +0.019 A 
ATOM      9 BR   UNL     1      -6.260  -1.432  -0.328  0.00  0.00    -0.050 Br
BRANCH   5  10
ATOM     10  N   UNL     1      -1.185   1.871  -0.028  0.00  0.00    -0.284 N 
ATOM     11  C   UNL     1      -0.072   1.342   0.517  0.00  0.00    +0.228 C 
ATOM     12  O   UNL     1      -0.115   0.251   1.044  0.00  0.00    -0.275 OA
ATOM     13  H   UNL     1      -1.173   2.777  -0.373  0.00  0.00    +0.155 HD
BRANCH  11  14
ATOM     14  C   UNL     1       1.227   2.104   0.467  0.00  0.00    +0.175 C 
ATOM     15 BR   UNL     1       2.639   1.051   1.340  0.00  0.00    -0.082 Br
ENDBRANCH  11  14
ENDBRANCH   5  10
ENDBRANCH   1   6
BRANCH   1  16
ATOM     16  C   UNL     1      -3.380   3.981   1.068  0.00  0.00    +0.027 A 
ATOM     17  C   UNL     1      -3.123   3.303   2.262  0.00  0.00    +0.044 A 
ATOM     18  C   UNL     1      -2.834   4.015   3.407  0.00  0.00    +0.129 A 
ATOM     19  C   UNL     1      -2.809   5.398   3.378  0.00  0.00    +0.065 A 
ATOM     20  C   UNL     1      -3.068   6.077   2.200  0.00  0.00    +0.129 A 
ATOM     21  C   UNL     1      -3.353   5.377   1.046  0.00  0.00    +0.044 A 
BRANCH  20  22
ATOM     22  N   UNL     1      -3.039   7.556   2.178  0.00  0.00    +0.057 N 
ATOM     23  O   UNL     1      -3.267   8.155   1.142  0.00  0.00    -0.126 OA
ATOM     24  O   UNL     1      -2.787   8.176   3.197  0.00  0.00    -0.126 OA
ENDBRANCH  20  22
BRANCH  18  25
ATOM     25  N   UNL     1      -2.556   3.298   4.672  0.00  0.00    +0.057 N 
ATOM     26  O   UNL     1      -2.304   3.925   5.685  0.00  0.00    -0.126 OA
ATOM     27  O   UNL     1      -2.578   2.080   4.699  0.00  0.00    -0.126 OA
ENDBRANCH  18  25
ENDBRANCH   1  16
TORSDOF 6
