REMARK  Name = ZINC46864478
REMARK  5 active torsions:
REMARK  status: ('A' for Active; 'I' for Inactive)
REMARK    1  A    between atoms: C_6  and  C_10
REMARK    2  A    between atoms: C_10  and  C_11
REMARK    3  A    between atoms: C_11  and  N_12
REMARK    4  A    between atoms: C_13  and  C_15
REMARK    5  A    between atoms: N_17  and  C_20
REMARK                            x       y       z     vdW  Elec       q    Type
REMARK                         _______ _______ _______ _____ _____    ______ ____
ROOT
ATOM      1  N   UNL     1       3.939  -5.521   1.111  0.00  0.00    -0.310 N 
ATOM      2  C   UNL     1       3.711  -6.447   2.064  0.00  0.00    +0.266 C 
ATOM      3  O   UNL     1       2.892  -6.232   2.936  0.00  0.00    -0.268 OA
ATOM      4  H   UNL     1       4.593  -5.692   0.415  0.00  0.00    +0.149 HD
ENDROOT
BRANCH   2   5
ATOM      5  C   UNL     1       4.456  -7.720   2.049  0.00  0.00    +0.167 A 
ATOM      6  C   UNL     1       4.315  -8.738   2.949  0.00  0.00    +0.149 A 
ATOM      7  N   UNL     1       5.174  -9.711   2.575  0.00  0.00    -0.219 N 
ATOM      8  N   UNL     1       5.834  -9.249   1.427  0.00  0.00    -0.060 NA
ATOM      9  N   UNL     1       5.383  -8.077   1.143  0.00  0.00    -0.124 NA
BRANCH   7  10
ATOM     10  C   UNL     1       5.370 -10.944   3.213  0.00  0.00    +0.068 A 
ATOM     11  C   UNL     1       4.635 -11.266   4.346  0.00  0.00    +0.028 A 
ATOM     12  C   UNL     1       4.829 -12.481   4.972  0.00  0.00    +0.003 A 
ATOM     13  C   UNL     1       5.755 -13.378   4.472  0.00  0.00    +0.015 A 
ATOM     14  C   UNL     1       6.489 -13.061   3.344  0.00  0.00    +0.020 A 
ATOM     15  C   UNL     1       6.295 -11.848   2.709  0.00  0.00    +0.043 A 
ATOM     16 BR   UNL     1       7.755 -14.291   2.663  0.00  0.00    -0.050 Br
ENDBRANCH   7  10
ENDBRANCH   2   5
BRANCH   1  17
ATOM     17  C   UNL     1       3.200  -4.256   1.127  0.00  0.00    +0.111 C 
BRANCH  17  18
ATOM     18  C   UNL     1       3.645  -3.391  -0.054  0.00  0.00    +0.075 C 
BRANCH  18  24
ATOM     19  C   UNL     1      -0.016   1.356   0.009  0.00  0.00    +0.005 A 
ATOM     20  C   UNL     1       1.194   2.068   0.002  0.00  0.00    +0.018 A 
ATOM     21  C   UNL     1       2.372   1.409  -0.013  0.00  0.00    +0.092 A 
ATOM     22  N   UNL     1       2.405   0.045  -0.021  0.00  0.00    -0.306 N 
ATOM     23  C   UNL     1       3.434  -0.856  -0.037  0.00  0.00    +0.116 A 
ATOM     24  C   UNL     1       2.885  -2.090  -0.039  0.00  0.00    +0.062 A 
ATOM     25  N   UNL     1       1.556  -1.965  -0.025  0.00  0.00    -0.233 NA
ATOM     26  C   UNL     1       1.240  -0.678  -0.014  0.00  0.00    +0.138 A 
ATOM     27  C   UNL     1       0.002  -0.004   0.002  0.00  0.00    +0.047 A 
ENDBRANCH  18  24
ENDBRANCH  17  18
ENDBRANCH   1  17
TORSDOF 5
