REMARK  Name = ZINC44784299
REMARK  6 active torsions:
REMARK  status: ('A' for Active; 'I' for Inactive)
REMARK    1  A    between atoms: C_1  and  C_2
REMARK    2  A    between atoms: C_7  and  N_12
REMARK    3  A    between atoms: C_9  and  C_11
REMARK    4  A    between atoms: C_13  and  C_15
REMARK    5  A    between atoms: C_15  and  C_21
REMARK    6  A    between atoms: N_22  and  O_23
REMARK                            x       y       z     vdW  Elec       q    Type
REMARK                         _______ _______ _______ _____ _____    ______ ____
ROOT
ATOM      1  C   UNL     1       2.013  -4.294   4.056  0.00  0.00    +0.109 C 
ATOM      2  C   UNL     1       1.586  -5.738   4.336  0.00  0.00    +0.052 C 
ATOM      3  C   UNL     1       0.115  -5.753   4.761  0.00  0.00    +0.161 C 
ATOM      4  O   UNL     1      -0.056  -4.922   5.910  0.00  0.00    -0.380 OA
ATOM      5  C   UNL     1       0.283  -3.551   5.694  0.00  0.00    +0.161 C 
ATOM      6  C   UNL     1       1.760  -3.447   5.307  0.00  0.00    +0.052 C 
ENDROOT
BRANCH   1   7
ATOM      7  C   UNL     1       3.479  -4.258   3.710  0.00  0.00    +0.147 C 
ATOM      8  N   UNL     1       4.312  -3.654   4.491  0.00  0.00    -0.076 NA
ATOM      9  N   UNL     1       3.931  -4.870   2.562  0.00  0.00    -0.343 N 
ATOM     10  H   UNL     1       3.320  -5.387   2.015  0.00  0.00    +0.144 HD
ATOM     11  H   UNL     1       4.861  -4.782   2.300  0.00  0.00    +0.144 HD
BRANCH   8  12
ATOM     12  O   UNL     1       5.690  -3.620   4.166  0.00  0.00    -0.408 OA
ATOM     13  H   UNL     1       6.234  -3.146   4.809  0.00  0.00    +0.328 HD
ENDBRANCH   8  12
ENDBRANCH   1   7
BRANCH   1  15
ATOM     14  N   UNL     1       1.309  -2.442   2.575  0.00  0.00    -0.311 N 
ATOM     15  C   UNL     1       1.210  -3.745   2.905  0.00  0.00    +0.227 C 
ATOM     16  O   UNL     1       0.475  -4.476   2.275  0.00  0.00    -0.275 OA
ATOM     17  H   UNL     1       1.837  -1.841   3.124  0.00  0.00    +0.149 HD
BRANCH  14  23
ATOM     18  C   UNL     1      -0.634   1.595   0.484  0.00  0.00    +0.008 C 
ATOM     19  C   UNL     1      -0.369   0.098   0.316  0.00  0.00    -0.009 C 
ATOM     20  C   UNL     1       0.504  -0.130  -0.919  0.00  0.00    +0.003 C 
ATOM     21  C   UNL     1       0.770  -1.627  -1.087  0.00  0.00    +0.002 C 
ATOM     22  C   UNL     1       1.491  -2.159   0.152  0.00  0.00    +0.022 C 
ATOM     23  C   UNL     1       0.618  -1.932   1.388  0.00  0.00    +0.076 C 
ATOM     24  C   UNL     1       0.352  -0.434   1.556  0.00  0.00    +0.009 C 
ATOM     25  C   UNL     1      -0.521  -0.207   2.792  0.00  0.00    +0.009 C 
ENDBRANCH  14  23
ENDBRANCH   1  15
TORSDOF 4
