REMARK  Name = ZINC65505523
REMARK  5 active torsions:
REMARK  status: ('A' for Active; 'I' for Inactive)
REMARK    1  A    between atoms: C_1  and  C_2
REMARK    2  A    between atoms: C_2  and  C_26
REMARK    3  A    between atoms: C_6  and  C_14
REMARK    4  A    between atoms: C_14  and  C_15
REMARK    5  A    between atoms: C_18  and  C_20
REMARK                            x       y       z     vdW  Elec       q    Type
REMARK                         _______ _______ _______ _____ _____    ______ ____
ROOT
ATOM      1  C   UNL     1      -0.019   1.526   0.010  0.00  0.00    +0.013 C 
ATOM      2  C   UNL     1       0.002  -0.004   0.002  0.00  0.00    -0.014 C 
ATOM      3  C   UNL     1      -1.415  -0.504  -0.091  0.00  0.00    +0.063 C 
ATOM      4  C   UNL     1      -1.504  -1.952  -0.453  0.00  0.00    +0.049 A 
ATOM      5  N   UNL     1      -2.503  -2.508  -1.187  0.00  0.00    -0.345 N 
ATOM      6  C   UNL     1      -2.253  -3.837  -1.289  0.00  0.00    +0.114 A 
ATOM      7  N   UNL     1      -1.148  -4.105  -0.662  0.00  0.00    -0.227 NA
ATOM      8  C   UNL     1      -0.640  -2.952  -0.132  0.00  0.00    +0.146 A 
ATOM      9  H   UNL     1      -3.261  -2.038  -1.569  0.00  0.00    +0.167 HD
ATOM     10  C   UNL     1       0.614  -2.886   0.615  0.00  0.00    +0.264 C 
ATOM     11  O   UNL     1       1.195  -3.945   0.759  0.00  0.00    -0.268 OA
ATOM     12  N   UNL     1       1.198  -1.841   1.152  0.00  0.00    -0.310 N 
ATOM     13  C   UNL     1       0.733  -0.482   1.227  0.00  0.00    +0.111 C 
ATOM     14  C   UNL     1       0.766  -0.475  -1.238  0.00  0.00    +0.013 C 
ATOM     15  H   UNL     1       2.065  -2.008   1.555  0.00  0.00    +0.149 HD
ENDROOT
BRANCH   6  16
ATOM     16  C   UNL     1      -3.116  -4.838  -2.011  0.00  0.00    +0.130 C 
BRANCH  16  17
ATOM     17  C   UNL     1      -2.285  -5.578  -3.027  0.00  0.00    +0.056 A 
ATOM     18  C   UNL     1      -2.238  -6.937  -3.009  0.00  0.00    +0.071 A 
ATOM     19  S   UNL     1      -1.141  -7.247  -4.388  0.00  0.00    -0.075 S 
ATOM     20  C   UNL     1      -0.867  -5.538  -4.836  0.00  0.00    +0.110 A 
ATOM     21  N   UNL     1      -1.609  -4.912  -3.934  0.00  0.00    -0.243 NA
BRANCH  20  22
ATOM     22  C   UNL     1      -0.038  -4.975  -5.923  0.00  0.00    +0.025 A 
ATOM     23  C   UNL     1       0.671  -5.818  -6.787  0.00  0.00    +0.013 A 
ATOM     24  C   UNL     1       1.432  -5.241  -7.789  0.00  0.00    +0.020 A 
ATOM     25  C   UNL     1       1.467  -3.863  -7.903  0.00  0.00    +0.111 A 
ATOM     26  N   UNL     1       0.788  -3.093  -7.074  0.00  0.00    -0.263 NA
ATOM     27  C   UNL     1       0.046  -3.595  -6.109  0.00  0.00    +0.121 A 
ENDBRANCH  20  22
ENDBRANCH  16  17
ENDBRANCH   6  16
TORSDOF 3
