REMARK  Name = ZINC38965892
REMARK  6 active torsions:
REMARK  status: ('A' for Active; 'I' for Inactive)
REMARK    1  A    between atoms: C_4  and  C_7
REMARK    2  A    between atoms: C_10  and  C_13
REMARK    3  A    between atoms: N_14  and  N_15
REMARK    4  A    between atoms: C_16  and  C_23
REMARK    5  A    between atoms: C_20  and  S_22
REMARK    6  A    between atoms: C_26  and  C_29
REMARK                            x       y       z     vdW  Elec       q    Type
REMARK                         _______ _______ _______ _____ _____    ______ ____
ROOT
ATOM      1  N   UNL     1       8.653  -4.732  -0.117  0.00  0.00    -0.207 N 
ATOM      2  C   UNL     1       8.850  -6.192  -0.138  0.00  0.00    +0.206 C 
ATOM      3  N   UNL     1      10.313  -6.421  -0.150  0.00  0.00    -0.231 NA
ATOM      4  N   UNL     1      10.873  -5.178  -0.704  0.00  0.00    -0.225 NA
ATOM      5  C   UNL     1      10.001  -4.128  -0.123  0.00  0.00    +0.231 C 
ATOM      6  H   UNL     1      10.550  -7.214  -0.727  0.00  0.00    +0.143 HD
ATOM      7  H   UNL     1      10.816  -5.174  -1.712  0.00  0.00    +0.143 HD
ENDROOT
BRANCH   2   8
ATOM      8  C   UNL     1       8.229  -6.822   1.110  0.00  0.00    +0.190 C 
ATOM      9  C   UNL     1       8.481  -8.319   1.136  0.00  0.00    +0.034 C 
ATOM     10  C   UNL     1       7.245  -8.855   1.105  0.00  0.00    +0.091 C 
ATOM     11  N   UNL     1       6.305  -7.875   1.064  0.00  0.00    -0.154 NA
ATOM     12  N   UNL     1       6.761  -6.726   1.067  0.00  0.00    -0.176 NA
BRANCH  10  13
ATOM     13  C   UNL     1       6.952 -10.309   1.113  0.00  0.00    +0.002 A 
ATOM     14  C   UNL     1       7.995 -11.232   1.161  0.00  0.00    +0.010 A 
ATOM     15  C   UNL     1       7.717 -12.584   1.168  0.00  0.00    +0.001 A 
ATOM     16  C   UNL     1       6.406 -13.023   1.129  0.00  0.00    +0.000 A 
ATOM     17  C   UNL     1       5.367 -12.111   1.081  0.00  0.00    +0.001 A 
ATOM     18  C   UNL     1       5.633 -10.757   1.078  0.00  0.00    +0.010 A 
ENDBRANCH  10  13
ENDBRANCH   2   8
BRANCH   1  20
ATOM     19  C   UNL     1       7.409  -2.753  -0.088  0.00  0.00    +0.138 C 
ATOM     20  N   UNL     1       7.429  -4.050  -0.100  0.00  0.00    -0.188 NA
BRANCH  19  24
ATOM     21  C   UNL     1       3.698  -0.688  -0.038  0.00  0.00    -0.018 A 
ATOM     22  C   UNL     1       4.895   0.029  -0.041  0.00  0.00    +0.009 A 
ATOM     23  C   UNL     1       6.098  -0.638  -0.057  0.00  0.00    +0.010 A 
ATOM     24  C   UNL     1       6.121  -2.036  -0.070  0.00  0.00    -0.005 A 
ATOM     25  C   UNL     1       4.921  -2.753  -0.067  0.00  0.00    +0.010 A 
ATOM     26  C   UNL     1       3.719  -2.083  -0.046  0.00  0.00    +0.009 A 
BRANCH  21  30
ATOM     27  C   UNL     1      -0.017   1.379   0.010  0.00  0.00    +0.000 A 
ATOM     28  C   UNL     1       1.169   2.092   0.002  0.00  0.00    +0.001 A 
ATOM     29  C   UNL     1       2.377   1.427  -0.013  0.00  0.00    +0.008 A 
ATOM     30  C   UNL     1       2.402   0.033  -0.021  0.00  0.00    -0.018 A 
ATOM     31  C   UNL     1       1.205  -0.680  -0.013  0.00  0.00    +0.008 A 
ATOM     32  C   UNL     1       0.002  -0.004   0.002  0.00  0.00    +0.001 A 
ENDBRANCH  21  30
ENDBRANCH  19  24
ENDBRANCH   1  20
BRANCH   5  33
ATOM     33  S   UNL     1      10.529  -3.735   1.567  0.00  0.00    -0.138 S 
ATOM     34  H   UNL     1      11.753  -3.200   1.410  0.00  0.00    +0.105 HD
ENDBRANCH   5  33
TORSDOF 6
