REMARK  Name = ZINC32599645
REMARK  6 active torsions:
REMARK  status: ('A' for Active; 'I' for Inactive)
REMARK    1  A    between atoms: C_1  and  C_2
REMARK    2  A    between atoms: C_2  and  C_4
REMARK    3  A    between atoms: C_8  and  N_16
REMARK    4  A    between atoms: C_11  and  N_13
REMARK    5  A    between atoms: N_16  and  C_17
REMARK    6  A    between atoms: N_28  and  C_29
REMARK                            x       y       z     vdW  Elec       q    Type
REMARK                         _______ _______ _______ _____ _____    ______ ____
ROOT
ATOM      1  C   UNL     1      -7.985   2.623   1.344  0.00  0.00    -0.069 C 
ATOM      2  C   UNL     1      -7.027   3.630   0.717  0.00  0.00    -0.014 C 
ATOM      3  C   UNL     1      -5.566   3.149   0.767  0.00  0.00    +0.023 C 
ATOM      4  C   UNL     1      -5.522   1.811   0.065  0.00  0.00    +0.099 C 
ATOM      5  C   UNL     1      -6.371   0.838   0.934  0.00  0.00    +0.148 C 
ATOM      6  C   UNL     1      -7.817   1.217   0.733  0.00  0.00    +0.015 C 
ATOM      7  N   UNL     1      -5.864  -0.449   0.523  0.00  0.00    -0.168 NA
ATOM      8  N   UNL     1      -4.718  -0.299   0.039  0.00  0.00    -0.102 NA
ATOM      9  N   UNL     1      -4.279   1.049   0.049  0.00  0.00    -0.306 NA
ATOM     10  H   UNL     1      -3.214   1.326   0.061  0.00  0.00    +0.148 HD
ENDROOT
BRANCH   9  11
ATOM     11  C   UNL     1      -2.904   1.556   0.038  0.00  0.00    +0.073 C 
ATOM     12  C   UNL     1      -2.188   1.063  -1.221  0.00  0.00    +0.022 C 
ATOM     13  C   UNL     1      -0.753   1.593  -1.232  0.00  0.00    +0.002 C 
ATOM     14  C   UNL     1      -0.013   1.086   0.008  0.00  0.00    +0.000 C 
ATOM     15  C   UNL     1      -0.729   1.579   1.267  0.00  0.00    +0.002 C 
ATOM     16  C   UNL     1      -2.164   1.050   1.278  0.00  0.00    +0.022 C 
ENDBRANCH   9  11
BRANCH   1  17
ATOM     17  N   UNL     1      -9.366   3.077   1.129  0.00  0.00    +0.383 N 
ATOM     18  H   UNL     1     -10.032   2.202   1.148  0.00  0.00    -0.085 HD
ATOM     19  H   UNL     1      -9.427   3.563   0.144  0.00  0.00    -0.085 HD
BRANCH  17  23
ATOM     20  C   UNL     1     -12.601   3.299   2.442  0.00  0.00    +0.084 C 
ATOM     21  C   UNL     1     -11.488   2.398   2.982  0.00  0.00    +0.012 C 
ATOM     22  C   UNL     1     -10.289   3.258   3.389  0.00  0.00    -0.015 C 
ATOM     23  C   UNL     1      -9.776   4.027   2.171  0.00  0.00    -0.069 C 
ATOM     24  C   UNL     1     -10.889   4.928   1.631  0.00  0.00    +0.017 C 
ATOM     25  C   UNL     1     -12.088   4.068   1.223  0.00  0.00    +0.178 C 
BRANCH  20  27
ATOM     26  C   UNL     1     -14.863   2.144   3.044  0.00  0.00    +0.086 C 
ATOM     27  C   UNL     1     -13.781   2.452   2.041  0.00  0.00    +0.136 C 
ATOM     28  O   UNL     1     -13.861   2.021   0.916  0.00  0.00    -0.297 OA
ENDBRANCH  20  27
BRANCH  25  29
ATOM     29  N   UNL     1     -13.153   4.930   0.706  0.00  0.00    +0.026 N 
ATOM     30  O   UNL     1     -13.637   5.793   1.416  0.00  0.00    -0.131 OA
ATOM     31  O   UNL     1     -13.555   4.784  -0.435  0.00  0.00    -0.131 OA
ENDBRANCH  25  29
ENDBRANCH  17  23
ENDBRANCH   1  17
TORSDOF 5
