REMARK  Name = ZINC01933942
REMARK  15 active torsions:
REMARK  status: ('A' for Active; 'I' for Inactive)
REMARK    1  A    between atoms: C_1  and  C_2
REMARK    2  A    between atoms: C_5  and  O_8
REMARK    3  A    between atoms: O_8  and  C_9
REMARK    4  A    between atoms: C_15  and  O_33
REMARK    5  A    between atoms: C_16  and  C_24
REMARK    6  A    between atoms: C_19  and  C_20
REMARK    7  A    between atoms: C_24  and  N_64
REMARK    8  A    between atoms: C_25  and  C_26
REMARK    9  A    between atoms: C_25  and  N_64
REMARK   10  A    between atoms: C_26  and  C_27
REMARK   11  A    between atoms: C_26  and  C_28
REMARK   12  A    between atoms: C_29  and  C_30
REMARK   13  A    between atoms: C_29  and  N_64
REMARK   14  A    between atoms: C_30  and  C_31
REMARK   15  A    between atoms: C_30  and  C_32
REMARK                            x       y       z     vdW  Elec       q    Type
REMARK                         _______ _______ _______ _____ _____    ______ ____
ROOT
ATOM      1  C   UNL     1      -0.561   3.874   0.715  0.00  0.00    +0.222 A 
ATOM      2  C   UNL     1      -0.897   4.591   1.898  0.00  0.00    +0.235 A 
ATOM      3  O   UNL     1      -0.953   4.037   2.983  0.00  0.00    -0.283 OA
ATOM      4  C   UNL     1      -1.169   6.032   1.758  0.00  0.00    +0.068 A 
ATOM      5  C   UNL     1      -1.502   6.820   2.861  0.00  0.00    +0.019 A 
ATOM      6  C   UNL     1      -1.753   8.151   2.691  0.00  0.00    +0.046 A 
ATOM      7  C   UNL     1      -1.679   8.726   1.423  0.00  0.00    +0.122 A 
ATOM      8  C   UNL     1      -1.350   7.958   0.319  0.00  0.00    +0.020 A 
ATOM      9  C   UNL     1      -1.092   6.604   0.475  0.00  0.00    +0.144 A 
ATOM     10  O   UNL     1      -0.769   5.833  -0.583  0.00  0.00    -0.447 OA
ATOM     11  C   UNL     1      -0.515   4.523  -0.466  0.00  0.00    +0.254 A 
ENDROOT
BRANCH  11  12
ATOM     12  C   UNL     1      -0.163   3.742  -1.706  0.00  0.00    +0.454 C 
ATOM     13  F   UNL     1      -1.331   3.235  -2.285  0.00  0.00    -0.163 F 
ATOM     14  F   UNL     1       0.482   4.583  -2.619  0.00  0.00    -0.163 F 
ATOM     15  F   UNL     1       0.686   2.684  -1.365  0.00  0.00    -0.163 F 
ENDBRANCH  11  12
BRANCH   7  16
ATOM     16  O   UNL     1      -1.931  10.052   1.270  0.00  0.00    -0.506 OA
ATOM     17  H   UNL     1      -2.869  10.265   1.180  0.00  0.00    +0.292 HD
ENDBRANCH   7  16
BRANCH   1  18
ATOM     18  O   UNL     1      -0.292   2.541   0.774  0.00  0.00    -0.448 OA
BRANCH  18  23
ATOM     19  C   UNL     1       5.047   0.953   1.609  0.00  0.00    +0.044 C 
ATOM     20  C   UNL     1       3.618   1.378   1.387  0.00  0.00    -0.050 A 
ATOM     21  C   UNL     1       2.627   0.423   1.252  0.00  0.00    +0.007 A 
ATOM     22  C   UNL     1       1.317   0.810   1.048  0.00  0.00    +0.046 A 
ATOM     23  C   UNL     1       0.995   2.158   0.980  0.00  0.00    +0.129 A 
ATOM     24  C   UNL     1       1.991   3.114   1.117  0.00  0.00    +0.046 A 
ATOM     25  C   UNL     1       3.300   2.722   1.319  0.00  0.00    +0.007 A 
ENDBRANCH  18  23
ENDBRANCH   1  18
BRANCH   8  26
ATOM     26  C   UNL     1      -1.273   8.591  -1.046  0.00  0.00    -0.036 C 
BRANCH  26  27
ATOM     27  N   UNL     1      -2.535   8.322  -1.767  0.00  0.00    +0.383 N 
ATOM     28  H   UNL     1      -2.760   7.324  -1.683  0.00  0.00    -0.081 HD
BRANCH  27  29
ATOM     29  C   UNL     1      -3.634   9.113  -1.174  0.00  0.00    -0.075 C 
BRANCH  29  30
ATOM     30  C   UNL     1      -4.967   8.555  -1.675  0.00  0.00    -0.034 C 
ATOM     31  C   UNL     1      -5.128   7.111  -1.194  0.00  0.00    +0.005 C 
ATOM     32  C   UNL     1      -6.115   9.406  -1.126  0.00  0.00    +0.005 C 
ENDBRANCH  29  30
ENDBRANCH  27  29
BRANCH  27  33
ATOM     33  C   UNL     1      -2.382   8.662  -3.197  0.00  0.00    -0.075 C 
BRANCH  33  34
ATOM     34  C   UNL     1      -1.605   7.539  -3.887  0.00  0.00    -0.034 C 
ATOM     35  C   UNL     1      -2.419   6.245  -3.830  0.00  0.00    +0.005 C 
ATOM     36  C   UNL     1      -1.352   7.918  -5.348  0.00  0.00    +0.005 C 
ENDBRANCH  33  34
ENDBRANCH  27  33
ENDBRANCH  26  27
ENDBRANCH   8  26
TORSDOF 10
