REMARK  Name = ZINC46717145
REMARK  8 active torsions:
REMARK  status: ('A' for Active; 'I' for Inactive)
REMARK    1  A    between atoms: C_1  and  C_2
REMARK    2  A    between atoms: C_3  and  C_11
REMARK    3  A    between atoms: C_7  and  N_8
REMARK    4  A    between atoms: N_13  and  C_14
REMARK    5  A    between atoms: C_19  and  C_20
REMARK    6  A    between atoms: N_22  and  C_23
REMARK    7  A    between atoms: C_23  and  C_24
REMARK    8  A    between atoms: C_23  and  C_25
REMARK                            x       y       z     vdW  Elec       q    Type
REMARK                         _______ _______ _______ _____ _____    ______ ____
ROOT
ATOM      1  C   UNL     1      -1.167  -0.364  -2.580  0.00  0.00    +0.249 C 
ATOM      2  O   UNL     1      -1.860   0.635  -2.570  0.00  0.00    -0.270 OA
ATOM      3  N   UNL     1      -0.790  -0.910  -3.753  0.00  0.00    -0.281 N 
ATOM      4  H   UNL     1      -0.164  -1.650  -3.764  0.00  0.00    +0.155 HD
ENDROOT
BRANCH   1   7
ATOM      5  C   UNL     1      -2.205   0.655  -0.078  0.00  0.00    +0.047 C 
ATOM      6  C   UNL     1      -1.233  -0.496  -0.093  0.00  0.00    -0.008 A 
ATOM      7  C   UNL     1      -0.739  -0.979  -1.307  0.00  0.00    +0.042 A 
ATOM      8  C   UNL     1       0.161  -2.046  -1.312  0.00  0.00    +0.013 A 
ATOM      9  C   UNL     1       0.557  -2.616  -0.119  0.00  0.00    +0.003 A 
ATOM     10  C   UNL     1       0.063  -2.133   1.079  0.00  0.00    +0.033 A 
ATOM     11  C   UNL     1      -0.825  -1.072   1.092  0.00  0.00    +0.130 A 
BRANCH  11  12
ATOM     12  N   UNL     1      -1.343  -0.558   2.379  0.00  0.00    +0.057 N 
ATOM     13  O   UNL     1      -1.085  -1.136   3.409  0.00  0.00    -0.126 OA
ATOM     14  O   UNL     1      -2.025   0.440   2.401  0.00  0.00    -0.126 OA
ENDBRANCH  11  12
ENDBRANCH   1   7
BRANCH   3  15
ATOM     15  C   UNL     1      -1.300  -0.411  -4.949  0.00  0.00    +0.047 A 
ATOM     16  C   UNL     1      -1.453   0.957  -5.125  0.00  0.00    +0.044 A 
ATOM     17  C   UNL     1      -1.959   1.450  -6.312  0.00  0.00    +0.043 A 
ATOM     18  C   UNL     1      -2.316   0.584  -7.335  0.00  0.00    +0.021 A 
ATOM     19  C   UNL     1      -2.170  -0.777  -7.178  0.00  0.00    +0.016 A 
ATOM     20  C   UNL     1      -1.655  -1.289  -5.984  0.00  0.00    +0.058 A 
ATOM     21 CL   UNL     1      -2.149   3.162  -6.525  0.00  0.00    -0.083 Cl
BRANCH  20  22
ATOM     22  C   UNL     1      -1.491  -2.744  -5.812  0.00  0.00    +0.246 C 
ATOM     23  O   UNL     1      -1.168  -3.196  -4.729  0.00  0.00    -0.270 OA
ATOM     24  N   UNL     1      -1.699  -3.574  -6.853  0.00  0.00    -0.309 N 
ATOM     25  H   UNL     1      -1.956  -3.214  -7.716  0.00  0.00    +0.149 HD
BRANCH  24  26
ATOM     26  C   UNL     1      -1.536  -5.020  -6.681  0.00  0.00    +0.067 C 
ATOM     27  C   UNL     1      -2.834  -5.618  -6.135  0.00  0.00    +0.027 C 
ATOM     28  C   UNL     1      -1.208  -5.660  -8.032  0.00  0.00    +0.027 C 
ENDBRANCH  24  26
ENDBRANCH  20  22
ENDBRANCH   3  15
TORSDOF 5
