REMARK  Name = ZINC39702772
REMARK  6 active torsions:
REMARK  status: ('A' for Active; 'I' for Inactive)
REMARK    1  A    between atoms: C_1  and  C_2
REMARK    2  A    between atoms: C_5  and  N_8
REMARK    3  A    between atoms: C_9  and  C_11
REMARK    4  A    between atoms: C_11  and  N_22
REMARK    5  A    between atoms: C_12  and  C_13
REMARK    6  A    between atoms: C_23  and  C_25
REMARK                            x       y       z     vdW  Elec       q    Type
REMARK                         _______ _______ _______ _____ _____    ______ ____
ROOT
ATOM      1  C   UNL     1       0.386  -6.264   1.148  0.00  0.00    +0.097 C 
ATOM      2  C   UNL     1       0.816  -6.917   2.282  0.00  0.00    +0.034 C 
ENDROOT
BRANCH   2   3
ATOM      3  C   UNL     1       1.284  -8.232   2.197  0.00  0.00    -0.017 C 
ATOM      4  C   UNL     1       1.656  -9.065   3.250  0.00  0.00    +0.003 A 
ATOM      5  C   UNL     1       1.685  -8.879   4.650  0.00  0.00    +0.010 A 
ATOM      6  C   UNL     1       2.104  -9.888   5.454  0.00  0.00    +0.001 A 
ATOM      7  C   UNL     1       2.513 -11.120   4.933  0.00  0.00    +0.002 A 
ATOM      8  C   UNL     1       2.512 -11.370   3.603  0.00  0.00    +0.026 A 
ATOM      9  C   UNL     1       2.086 -10.361   2.695  0.00  0.00    +0.043 A 
ATOM     10  N   UNL     1       1.994 -10.354   1.384  0.00  0.00    -0.380 N 
ATOM     11  C   UNL     1       1.487  -9.051   0.941  0.00  0.00    +0.149 C 
ATOM     12  H   UNL     1       2.221 -11.095   0.801  0.00  0.00    +0.160 HD
ENDBRANCH   2   3
BRANCH   1  14
ATOM     13  N   UNL     1      -0.404  -4.197   0.105  0.00  0.00    -0.280 N 
ATOM     14  C   UNL     1       0.016  -4.836   1.214  0.00  0.00    +0.262 C 
ATOM     15  O   UNL     1       0.091  -4.237   2.270  0.00  0.00    -0.268 OA
ATOM     16  H   UNL     1      -0.532  -4.691  -0.720  0.00  0.00    +0.155 HD
BRANCH  13  21
ATOM     17  C   UNL     1      -1.424   1.380   0.261  0.00  0.00    +0.044 C 
ATOM     18  C   UNL     1      -1.153  -0.102   0.220  0.00  0.00    -0.050 A 
ATOM     19  C   UNL     1      -1.860  -0.908  -0.653  0.00  0.00    +0.005 A 
ATOM     20  C   UNL     1      -1.614  -2.267  -0.694  0.00  0.00    +0.023 A 
ATOM     21  C   UNL     1      -0.655  -2.823   0.143  0.00  0.00    +0.034 A 
ATOM     22  C   UNL     1       0.054  -2.009   1.018  0.00  0.00    +0.023 A 
ATOM     23  C   UNL     1      -0.193  -0.651   1.050  0.00  0.00    +0.005 A 
ENDBRANCH  13  21
ENDBRANCH   1  14
BRANCH   1  24
ATOM     24  N   UNL     1       0.301  -6.945  -0.051  0.00  0.00    -0.277 N 
ATOM     25  C   UNL     1       1.021  -6.531  -1.113  0.00  0.00    +0.248 C 
ATOM     26  O   UNL     1       1.803  -5.609  -0.995  0.00  0.00    -0.270 OA
ATOM     27  H   UNL     1      -0.276  -7.721  -0.129  0.00  0.00    +0.155 HD
BRANCH  25  28
ATOM     28  C   UNL     1       0.858  -7.199  -2.421  0.00  0.00    +0.037 A 
ATOM     29  C   UNL     1      -0.122  -8.180  -2.591  0.00  0.00    +0.013 A 
ATOM     30  C   UNL     1      -0.269  -8.799  -3.815  0.00  0.00    +0.001 A 
ATOM     31  C   UNL     1       0.553  -8.451  -4.873  0.00  0.00    +0.000 A 
ATOM     32  C   UNL     1       1.526  -7.481  -4.711  0.00  0.00    +0.001 A 
ATOM     33  C   UNL     1       1.680  -6.849  -3.494  0.00  0.00    +0.013 A 
ENDBRANCH  25  28
ENDBRANCH   1  24
TORSDOF 5
