REMARK  Name = ZINC58278691
REMARK  8 active torsions:
REMARK  status: ('A' for Active; 'I' for Inactive)
REMARK    1  A    between atoms: C_1  and  C_2
REMARK    2  A    between atoms: C_2  and  C_3
REMARK    3  A    between atoms: C_2  and  N_17
REMARK    4  A    between atoms: N_5  and  C_6
REMARK    5  A    between atoms: C_13  and  C_15
REMARK    6  A    between atoms: C_13  and  C_16
REMARK    7  A    between atoms: N_17  and  S_18
REMARK    8  A    between atoms: S_18  and  C_21
REMARK                            x       y       z     vdW  Elec       q    Type
REMARK                         _______ _______ _______ _____ _____    ______ ____
ROOT
ATOM      1  C   UNL     1      -1.412  -0.524   0.012  0.00  0.00    +0.236 C 
ATOM      2  O   UNL     1      -1.810  -1.215  -0.902  0.00  0.00    -0.274 OA
ATOM      3  N   UNL     1      -2.236  -0.217   1.033  0.00  0.00    -0.284 N 
ATOM      4  H   UNL     1      -1.899   0.279   1.796  0.00  0.00    +0.155 HD
ENDROOT
BRANCH   3   5
ATOM      5  C   UNL     1      -3.579  -0.613   0.993  0.00  0.00    +0.037 A 
ATOM      6  C   UNL     1      -4.562   0.207   1.533  0.00  0.00    +0.027 A 
ATOM      7  C   UNL     1      -5.887  -0.183   1.493  0.00  0.00    +0.051 A 
ATOM      8  C   UNL     1      -6.239  -1.392   0.916  0.00  0.00    +0.167 A 
ATOM      9  C   UNL     1      -5.256  -2.216   0.374  0.00  0.00    +0.169 A 
ATOM     10  C   UNL     1      -3.929  -1.823   0.409  0.00  0.00    +0.072 A 
ATOM     11  O   UNL     1      -5.854  -3.337  -0.127  0.00  0.00    -0.448 OA
ATOM     12  C   UNL     1      -7.160  -3.378   0.476  0.00  0.00    +0.248 C 
ATOM     13  O   UNL     1      -7.454  -1.996   0.754  0.00  0.00    -0.448 OA
ATOM     14  C   UNL     1      -8.185  -3.960  -0.499  0.00  0.00    +0.104 C 
ATOM     15  C   UNL     1      -7.128  -4.192   1.772  0.00  0.00    +0.104 C 
ENDBRANCH   3   5
BRANCH   1  17
ATOM     16  C   UNL     1      -0.009   1.521   0.022  0.00  0.00    +0.035 C 
ATOM     17  C   UNL     1       0.004  -0.009   0.005  0.00  0.00    +0.159 C 
BRANCH  17  18
ATOM     18  N   UNL     1       0.689  -0.478  -1.202  0.00  0.00    -0.178 NA
ATOM     19  H   UNL     1       0.199  -0.566  -2.034  0.00  0.00    +0.149 HD
BRANCH  18  20
ATOM     20  S   UNL     1       2.300  -0.859  -1.145  0.00  0.00    +0.065 S 
ATOM     21  O   UNL     1       2.658  -1.301  -2.447  0.00  0.00    -0.153 OA
ATOM     22  O   UNL     1       2.951   0.228  -0.503  0.00  0.00    -0.153 OA
BRANCH  20  23
ATOM     23  C   UNL     1       2.469  -2.250  -0.077  0.00  0.00    +0.142 A 
ATOM     24  C   UNL     1       2.433  -3.570  -0.382  0.00  0.00    +0.036 A 
ATOM     25  C   UNL     1       2.592  -4.497   0.631  0.00  0.00    +0.010 A 
ATOM     26  C   UNL     1       2.779  -4.058   1.900  0.00  0.00    +0.047 A 
ATOM     27  S   UNL     1       2.741  -2.286   1.687  0.00  0.00    -0.077 S 
ENDBRANCH  20  23
ENDBRANCH  18  20
ENDBRANCH  17  18
ENDBRANCH   1  17
TORSDOF 5
