REMARK  Name = ZINC44260810
REMARK  7 active torsions:
REMARK  status: ('A' for Active; 'I' for Inactive)
REMARK    1  A    between atoms: C_1  and  C_2
REMARK    2  A    between atoms: C_5  and  N_8
REMARK    3  A    between atoms: N_8  and  C_9
REMARK    4  A    between atoms: N_8  and  C_16
REMARK    5  A    between atoms: C_12  and  C_15
REMARK    6  A    between atoms: C_19  and  C_22
REMARK    7  A    between atoms: C_23  and  C_24
REMARK                            x       y       z     vdW  Elec       q    Type
REMARK                         _______ _______ _______ _____ _____    ______ ____
ROOT
ATOM      1  N   UNL     1      -0.124  -3.395  -0.069  0.00  0.00    -0.269 N 
ENDROOT
BRANCH   1   6
ATOM      2  C   UNL     1      -1.517   2.101   0.083  0.00  0.00    +0.044 C 
ATOM      3  C   UNL     1      -1.147   0.641   0.043  0.00  0.00    -0.050 A 
ATOM      4  C   UNL     1      -0.478   0.069   1.109  0.00  0.00    +0.005 A 
ATOM      5  C   UNL     1      -0.137  -1.268   1.076  0.00  0.00    +0.024 A 
ATOM      6  C   UNL     1      -0.467  -2.040  -0.031  0.00  0.00    +0.039 A 
ATOM      7  C   UNL     1      -1.140  -1.463  -1.101  0.00  0.00    +0.024 A 
ATOM      8  C   UNL     1      -1.482  -0.126  -1.058  0.00  0.00    +0.005 A 
ENDBRANCH   1   6
BRANCH   1   9
ATOM      9  C   UNL     1       0.448  -4.002   1.054  0.00  0.00    +0.039 A 
ATOM     10  C   UNL     1       1.785  -4.380   1.035  0.00  0.00    +0.024 A 
ATOM     11  C   UNL     1       2.346  -4.979   2.146  0.00  0.00    +0.005 A 
ATOM     12  C   UNL     1       1.579  -5.204   3.274  0.00  0.00    -0.050 A 
ATOM     13  C   UNL     1       0.248  -4.829   3.296  0.00  0.00    +0.005 A 
ATOM     14  C   UNL     1      -0.318  -4.224   2.191  0.00  0.00    +0.024 A 
ATOM     15  C   UNL     1       2.196  -5.859   4.484  0.00  0.00    +0.044 C 
ENDBRANCH   1   9
BRANCH   1  16
ATOM     16  C   UNL     1      -0.351  -4.139  -1.223  0.00  0.00    +0.039 A 
ATOM     17  C   UNL     1      -1.354  -5.105  -1.241  0.00  0.00    +0.024 A 
ATOM     18  C   UNL     1      -1.581  -5.840  -2.376  0.00  0.00    +0.010 A 
ATOM     19  C   UNL     1      -0.803  -5.618  -3.518  0.00  0.00    -0.025 A 
ATOM     20  C   UNL     1       0.205  -4.645  -3.497  0.00  0.00    +0.010 A 
ATOM     21  C   UNL     1       0.422  -3.912  -2.359  0.00  0.00    +0.024 A 
BRANCH  19  22
ATOM     22  C   UNL     1      -1.042  -6.403  -4.737  0.00  0.00    +0.013 C 
ATOM     23  C   UNL     1       0.001  -6.888  -5.444  0.00  0.00    +0.067 C 
BRANCH  23  24
ATOM     24  C   UNL     1       1.350  -6.841  -4.881  0.00  0.00    +0.234 C 
ATOM     25  O   UNL     1       1.518  -6.477  -3.732  0.00  0.00    -0.271 OA
ATOM     26  N   UNL     1       2.407  -7.201  -5.635  0.00  0.00    -0.326 N 
ATOM     27  H   UNL     1       2.274  -7.491  -6.551  0.00  0.00    +0.145 HD
ATOM     28  H   UNL     1       3.302  -7.170  -5.262  0.00  0.00    +0.145 HD
ENDBRANCH  23  24
ENDBRANCH  19  22
ENDBRANCH   1  16
TORSDOF 5
