REMARK  Name = ZINC20808336
REMARK  6 active torsions:
REMARK  status: ('A' for Active; 'I' for Inactive)
REMARK    1  A    between atoms: C_1  and  C_2
REMARK    2  A    between atoms: C_2  and  C_3
REMARK    3  A    between atoms: C_3  and  C_4
REMARK    4  A    between atoms: C_8  and  S_10
REMARK    5  A    between atoms: S_10  and  C_11
REMARK    6  A    between atoms: C_12  and  C_24
REMARK                            x       y       z     vdW  Elec       q    Type
REMARK                         _______ _______ _______ _____ _____    ______ ____
ROOT
ATOM      1  C   UNL     1      -2.875   4.797  -0.977  0.00  0.00    +0.088 A 
ATOM      2  C   UNL     1      -2.632   3.840  -0.006  0.00  0.00    +0.010 A 
ATOM      3  C   UNL     1      -3.602   3.703   1.092  0.00  0.00    +0.007 A 
ATOM      4  C   UNL     1      -3.412   2.761   2.106  0.00  0.00    +0.012 A 
ATOM      5  C   UNL     1      -4.329   2.656   3.114  0.00  0.00    +0.021 A 
ATOM      6  C   UNL     1      -5.448   3.479   3.139  0.00  0.00    +0.043 A 
ATOM      7  C   UNL     1      -5.653   4.416   2.147  0.00  0.00    +0.046 A 
ATOM      8  C   UNL     1      -4.732   4.539   1.112  0.00  0.00    +0.051 A 
ATOM      9  N   UNL     1      -4.917   5.470   0.110  0.00  0.00    -0.321 N 
ATOM     10  H   UNL     1      -5.801   6.124   0.123  0.00  0.00    +0.169 HD
ATOM     11  C   UNL     1      -4.037   5.602  -0.896  0.00  0.00    +0.264 A 
ATOM     12  O   UNL     1      -4.242   6.438  -1.760  0.00  0.00    -0.267 OA
ATOM     13 CL   UNL     1      -6.599   3.327   4.430  0.00  0.00    -0.083 Cl
ENDROOT
BRANCH   2  14
ATOM     14  C   UNL     1      -1.428   2.984  -0.068  0.00  0.00    -0.016 A 
ATOM     15  C   UNL     1      -1.554   1.613  -0.302  0.00  0.00    +0.008 A 
ATOM     16  C   UNL     1      -0.427   0.819  -0.353  0.00  0.00    +0.001 A 
ATOM     17  C   UNL     1       0.826   1.380  -0.184  0.00  0.00    +0.000 A 
ATOM     18  C   UNL     1       0.959   2.738   0.042  0.00  0.00    +0.001 A 
ATOM     19  C   UNL     1      -0.160   3.543   0.101  0.00  0.00    +0.008 A 
ENDBRANCH   2  14
BRANCH   1  20
ATOM     20  S   UNL     1      -1.744   5.009  -2.312  0.00  0.00    -0.044 S 
BRANCH  20  25
ATOM     21  C   UNL     1      -2.969   4.056  -5.910  0.00  0.00    +0.049 A 
ATOM     22  C   UNL     1      -4.293   3.712  -5.712  0.00  0.00    +0.095 A 
ATOM     23  C   UNL     1      -4.810   3.773  -4.418  0.00  0.00    +0.274 A 
ATOM     24  N   UNL     1      -4.019   4.158  -3.425  0.00  0.00    -0.183 NA
ATOM     25  C   UNL     1      -2.757   4.490  -3.657  0.00  0.00    +0.197 A 
ATOM     26  N   UNL     1      -2.238   4.441  -4.875  0.00  0.00    -0.226 NA
ATOM     27  O   UNL     1      -6.102   3.440  -4.178  0.00  0.00    -0.266 OA
BRANCH  21  28
ATOM     28  C   UNL     1      -2.363   3.993  -7.289  0.00  0.00    +0.055 C 
BRANCH  28  30
ATOM     29  C   UNL     1      -1.151   5.291  -9.046  0.00  0.00    +0.004 C 
ATOM     30  C   UNL     1      -1.766   5.355  -7.646  0.00  0.00    +0.003 C 
ENDBRANCH  28  30
ENDBRANCH  21  28
ENDBRANCH  20  25
ENDBRANCH   1  20
TORSDOF 5
