REMARK  Name = ZINC39485684
REMARK  6 active torsions:
REMARK  status: ('A' for Active; 'I' for Inactive)
REMARK    1  A    between atoms: C_4  and  C_7
REMARK    2  A    between atoms: C_10  and  C_13
REMARK    3  A    between atoms: C_17  and  C_19
REMARK    4  A    between atoms: C_19  and  N_20
REMARK    5  A    between atoms: N_20  and  C_21
REMARK    6  A    between atoms: C_21  and  C_22
REMARK                            x       y       z     vdW  Elec       q    Type
REMARK                         _______ _______ _______ _____ _____    ______ ____
ROOT
ATOM      1  C   UNL     1       7.402  -2.748  -0.084  0.00  0.00    +0.077 C 
ATOM      2  N   UNL     1       8.596  -2.222  -0.083  0.00  0.00    -0.153 NA
ATOM      3  N   UNL     1       9.596  -3.188  -0.101  0.00  0.00    -0.161 NA
ATOM      4  C   UNL     1       9.122  -4.392  -0.114  0.00  0.00    +0.115 C 
ATOM      5  C   UNL     1       7.613  -4.250  -0.100  0.00  0.00    +0.066 C 
ENDROOT
BRANCH   1   9
ATOM      6  C   UNL     1       3.698  -0.688  -0.037  0.00  0.00    -0.018 A 
ATOM      7  C   UNL     1       4.895   0.030  -0.040  0.00  0.00    +0.009 A 
ATOM      8  C   UNL     1       6.094  -0.634  -0.054  0.00  0.00    +0.010 A 
ATOM      9  C   UNL     1       6.117  -2.034  -0.068  0.00  0.00    -0.001 A 
ATOM     10  C   UNL     1       4.916  -2.752  -0.065  0.00  0.00    +0.010 A 
ATOM     11  C   UNL     1       3.719  -2.083  -0.045  0.00  0.00    +0.009 A 
BRANCH   6  15
ATOM     12  C   UNL     1      -0.017   1.379   0.010  0.00  0.00    +0.000 A 
ATOM     13  C   UNL     1       1.169   2.092   0.002  0.00  0.00    +0.001 A 
ATOM     14  C   UNL     1       2.377   1.427  -0.013  0.00  0.00    +0.008 A 
ATOM     15  C   UNL     1       2.403   0.033  -0.021  0.00  0.00    -0.018 A 
ATOM     16  C   UNL     1       1.205  -0.680  -0.013  0.00  0.00    +0.008 A 
ATOM     17  C   UNL     1       0.002  -0.004   0.002  0.00  0.00    +0.001 A 
ENDBRANCH   6  15
ENDBRANCH   1   9
BRANCH   5  18
ATOM     18  C   UNL     1       7.003  -4.867  -1.360  0.00  0.00    -0.067 C 
BRANCH  18  19
ATOM     19  N   UNL     1       7.116  -6.330  -1.292  0.00  0.00    +0.381 N 
ATOM     20  H   UNL     1       8.089  -6.590  -1.227  0.00  0.00    -0.086 HD
ATOM     21  H   UNL     1       6.623  -6.668  -0.479  0.00  0.00    -0.086 HD
BRANCH  19  22
ATOM     22  C   UNL     1       6.530  -6.923  -2.502  0.00  0.00    -0.054 C 
BRANCH  22  23
ATOM     23  C   UNL     1       6.648  -8.447  -2.431  0.00  0.00    +0.099 C 
ATOM     24  C   UNL     1       5.887  -9.084  -3.572  0.00  0.00    +0.101 C 
ATOM     25  N   UNL     1       4.886  -9.735  -3.124  0.00  0.00    -0.267 NA
ATOM     26  C   UNL     1       4.789  -9.630  -1.674  0.00  0.00    +0.215 C 
ATOM     27  N   UNL     1       6.017  -8.945  -1.216  0.00  0.00    -0.305 N 
ATOM     28  C   UNL     1       6.417  -8.916   0.102  0.00  0.00    +0.073 C 
ATOM     29  C   UNL     1       6.097 -10.017   0.824  0.00  0.00    +0.015 C 
ATOM     30  C   UNL     1       5.402 -11.131   0.168  0.00  0.00    +0.001 C 
ATOM     31  C   UNL     1       4.759 -10.983  -1.006  0.00  0.00    +0.019 C 
ENDBRANCH  22  23
ENDBRANCH  19  22
ENDBRANCH  18  19
ENDBRANCH   5  18
TORSDOF 6
