REMARK  Name = ZINC38701836
REMARK  6 active torsions:
REMARK  status: ('A' for Active; 'I' for Inactive)
REMARK    1  A    between atoms: C_1  and  C_2
REMARK    2  A    between atoms: C_5  and  C_8
REMARK    3  A    between atoms: C_11  and  C_27
REMARK    4  A    between atoms: N_18  and  C_19
REMARK    5  A    between atoms: C_29  and  C_34
REMARK    6  A    between atoms: C_32  and  O_33
REMARK                            x       y       z     vdW  Elec       q    Type
REMARK                         _______ _______ _______ _____ _____    ______ ____
ROOT
ATOM      1  C   UNL     1       0.080  -4.416  -0.114  0.00  0.00    +0.142 C 
ATOM      2  C   UNL     1      -1.271  -4.873   0.364  0.00  0.00    +0.035 A 
ATOM      3  C   UNL     1      -2.654  -4.891   0.151  0.00  0.00    +0.102 A 
ATOM      4  N   UNL     1      -3.195  -5.582   1.135  0.00  0.00    -0.173 NA
ATOM      5  N   UNL     1      -2.292  -6.002   1.948  0.00  0.00    -0.272 N 
ATOM      6  H   UNL     1      -2.460  -6.531   2.743  0.00  0.00    +0.189 HD
ATOM      7  C   UNL     1      -1.059  -5.593   1.524  0.00  0.00    +0.126 A 
ATOM      8  C   UNL     1       0.381  -5.612   1.805  0.00  0.00    +0.266 C 
ATOM      9  O   UNL     1       0.895  -6.166   2.758  0.00  0.00    -0.268 OA
ATOM     10  N   UNL     1       1.053  -4.931   0.857  0.00  0.00    -0.280 N 
ENDROOT
BRANCH   1  15
ATOM     11  C   UNL     1       0.283   1.357  -0.266  0.00  0.00    +0.044 C 
ATOM     12  C   UNL     1       0.230  -0.148  -0.226  0.00  0.00    -0.050 A 
ATOM     13  C   UNL     1       0.202  -0.870  -1.405  0.00  0.00    +0.004 A 
ATOM     14  C   UNL     1       0.153  -2.251  -1.369  0.00  0.00    +0.006 A 
ATOM     15  C   UNL     1       0.134  -2.910  -0.154  0.00  0.00    -0.022 A 
ATOM     16  C   UNL     1       0.163  -2.189   1.025  0.00  0.00    +0.006 A 
ATOM     17  C   UNL     1       0.216  -0.808   0.989  0.00  0.00    +0.004 A 
ENDBRANCH   1  15
BRANCH  10  18
ATOM     18  C   UNL     1       2.504  -4.737   0.804  0.00  0.00    +0.100 C 
ATOM     19  C   UNL     1       3.210  -6.102   0.756  0.00  0.00    +0.047 C 
ATOM     20  C   UNL     1       4.724  -5.923   1.022  0.00  0.00    +0.168 C 
ATOM     21  S   UNL     1       4.774  -4.414   2.071  0.00  0.00    -0.029 S 
ATOM     22  O   UNL     1       5.171  -4.778   3.386  0.00  0.00    -0.174 OA
ATOM     23  O   UNL     1       5.487  -3.395   1.383  0.00  0.00    -0.174 OA
ATOM     24  C   UNL     1       2.981  -3.990   2.083  0.00  0.00    +0.188 C 
ENDBRANCH  10  18
BRANCH   3  25
ATOM     25  C   UNL     1      -3.378  -4.250  -0.974  0.00  0.00    +0.044 A 
ATOM     26  C   UNL     1      -2.919  -4.405  -2.280  0.00  0.00    +0.017 A 
ATOM     27  C   UNL     1      -3.596  -3.807  -3.323  0.00  0.00    -0.050 A 
ATOM     28  C   UNL     1      -4.729  -3.052  -3.077  0.00  0.00    +0.007 A 
ATOM     29  C   UNL     1      -5.193  -2.892  -1.785  0.00  0.00    +0.046 A 
ATOM     30  C   UNL     1      -4.526  -3.492  -0.729  0.00  0.00    +0.126 A 
ATOM     31  C   UNL     1      -3.098  -3.975  -4.736  0.00  0.00    +0.044 C 
BRANCH  30  32
ATOM     32  O   UNL     1      -4.985  -3.341   0.541  0.00  0.00    -0.506 OA
ATOM     33  H   UNL     1      -4.680  -2.532   0.975  0.00  0.00    +0.292 HD
ENDBRANCH  30  32
ENDBRANCH   3  25
TORSDOF 4
