REMARK  Name = ZINC08980987
REMARK  8 active torsions:
REMARK  status: ('A' for Active; 'I' for Inactive)
REMARK    1  A    between atoms: C_1  and  C_2
REMARK    2  A    between atoms: N_10  and  C_13
REMARK    3  A    between atoms: C_13  and  C_14
REMARK    4  A    between atoms: N_16  and  C_17
REMARK    5  A    between atoms: C_17  and  C_19
REMARK    6  A    between atoms: C_17  and  C_30
REMARK    7  A    between atoms: C_30  and  C_31
REMARK    8  A    between atoms: C_30  and  C_32
REMARK                            x       y       z     vdW  Elec       q    Type
REMARK                         _______ _______ _______ _____ _____    ______ ____
ROOT
ATOM      1  C   UNL     1      -3.492  -0.721  -1.434  0.00  0.00    +0.233 C 
ATOM      2  O   UNL     1      -4.584  -0.252  -1.195  0.00  0.00    -0.274 OA
ATOM      3  N   UNL     1      -2.390  -0.181  -0.876  0.00  0.00    -0.307 N 
ATOM      4  H   UNL     1      -1.516  -0.556  -1.067  0.00  0.00    +0.149 HD
ENDROOT
BRANCH   1   5
ATOM      5  C   UNL     1      -3.366  -1.907  -2.355  0.00  0.00    +0.222 C 
BRANCH   5  15
ATOM      6  C   UNL     1      -8.919  -2.624  -5.622  0.00  0.00    +0.046 C 
ATOM      7  C   UNL     1      -8.434  -3.273  -4.352  0.00  0.00    -0.024 A 
ATOM      8  C   UNL     1      -9.228  -4.188  -3.696  0.00  0.00    +0.005 A 
ATOM      9  C   UNL     1      -8.796  -4.794  -2.524  0.00  0.00    +0.001 A 
ATOM     10  C   UNL     1      -7.560  -4.492  -1.993  0.00  0.00    +0.015 A 
ATOM     11  C   UNL     1      -6.742  -3.570  -2.641  0.00  0.00    +0.065 A 
ATOM     12  C   UNL     1      -7.179  -2.951  -3.833  0.00  0.00    +0.081 A 
ATOM     13  N   UNL     1      -6.364  -2.056  -4.447  0.00  0.00    -0.237 NA
ATOM     14  C   UNL     1      -5.196  -1.757  -3.965  0.00  0.00    +0.203 A 
ATOM     15  N   UNL     1      -4.696  -2.303  -2.826  0.00  0.00    -0.290 N 
ATOM     16  C   UNL     1      -5.412  -3.213  -2.125  0.00  0.00    +0.262 A 
ATOM     17  O   UNL     1      -4.974  -3.713  -1.106  0.00  0.00    -0.267 OA
ENDBRANCH   5  15
ENDBRANCH   1   5
BRANCH   3  18
ATOM     18  C   UNL     1      -2.512   0.972   0.019  0.00  0.00    +0.106 C 
BRANCH  18  19
ATOM     19  C   UNL     1      -1.220   1.748   0.017  0.00  0.00    -0.023 A 
ATOM     20  C   UNL     1      -0.013   1.076   0.008  0.00  0.00    +0.009 A 
ATOM     21  C   UNL     1       1.177   1.782   0.000  0.00  0.00    +0.050 A 
ATOM     22  C   UNL     1       1.154   3.166   0.009  0.00  0.00    +0.162 A 
ATOM     23  C   UNL     1      -0.058   3.841   0.023  0.00  0.00    +0.162 A 
ATOM     24  C   UNL     1      -1.247   3.131   0.031  0.00  0.00    +0.055 A 
ATOM     25  O   UNL     1      -0.070   5.205   0.031  0.00  0.00    -0.488 OA
ATOM     26  C   UNL     1       0.390   5.841  -1.163  0.00  0.00    +0.232 C 
ATOM     27  C   UNL     1       1.905   5.965  -1.160  0.00  0.00    +0.082 C 
ATOM     28  C   UNL     1       2.597   4.612  -1.190  0.00  0.00    +0.232 C 
ATOM     29  O   UNL     1       2.321   3.874   0.002  0.00  0.00    -0.488 OA
ENDBRANCH  18  19
BRANCH  18  30
ATOM     30  C   UNL     1      -2.814   0.487   1.438  0.00  0.00    +0.008 C 
ATOM     31  C   UNL     1      -1.622  -0.312   1.968  0.00  0.00    +0.009 C 
ATOM     32  C   UNL     1      -3.065   1.692   2.347  0.00  0.00    +0.009 C 
ENDBRANCH  18  30
ENDBRANCH   3  18
TORSDOF 5
