REMARK  Name = ZINC16022019
REMARK  8 active torsions:
REMARK  status: ('A' for Active; 'I' for Inactive)
REMARK    1  A    between atoms: C_1  and  C_2
REMARK    2  A    between atoms: C_2  and  C_3
REMARK    3  A    between atoms: C_3  and  C_5
REMARK    4  A    between atoms: C_3  and  N_6
REMARK    5  A    between atoms: C_18  and  C_26
REMARK    6  A    between atoms: C_28  and  C_30
REMARK    7  A    between atoms: C_30  and  C_32
REMARK    8  A    between atoms: C_30  and  O_33
REMARK                            x       y       z     vdW  Elec       q    Type
REMARK                         _______ _______ _______ _____ _____    ______ ____
ROOT
ATOM      1  N   UNL     1      -2.082  -0.162   1.273  0.00  0.00    -0.239 N 
ATOM      2  C   UNL     1      -1.617  -0.547   2.467  0.00  0.00    +0.228 C 
ATOM      3  O   UNL     1      -0.631  -1.229   2.648  0.00  0.00    -0.275 OA
ATOM      4  C   UNL     1      -2.512   0.001   3.555  0.00  0.00    +0.109 C 
ATOM      5  C   UNL     1      -3.592   0.792   2.766  0.00  0.00    +0.123 C 
ATOM      6  C   UNL     1      -3.183   0.596   1.324  0.00  0.00    +0.228 C 
ATOM      7  O   UNL     1      -3.765   1.052   0.363  0.00  0.00    -0.275 OA
ATOM      8  C   UNL     1      -4.904   0.055   3.059  0.00  0.00    +0.136 C 
ATOM      9  C   UNL     1      -6.060   1.009   3.166  0.00  0.00    +0.005 A 
ATOM     10  C   UNL     1      -6.329   2.085   3.983  0.00  0.00    +0.011 A 
ATOM     11  C   UNL     1      -7.512   2.787   3.837  0.00  0.00    -0.049 A 
ATOM     12  C   UNL     1      -8.424   2.406   2.869  0.00  0.00    +0.025 A 
ATOM     13  C   UNL     1      -8.159   1.328   2.048  0.00  0.00    +0.063 A 
ATOM     14  C   UNL     1      -6.968   0.616   2.188  0.00  0.00    +0.057 A 
ATOM     15  N   UNL     1      -6.479  -0.490   1.490  0.00  0.00    -0.282 N 
ATOM     16  C   UNL     1      -5.271  -0.881   1.940  0.00  0.00    +0.243 C 
ATOM     17  O   UNL     1      -4.607  -1.807   1.524  0.00  0.00    -0.273 OA
ATOM     18 CL   UNL     1      -9.310   0.859   0.836  0.00  0.00    -0.082 Cl
ATOM     19  C   UNL     1      -7.807   3.964   4.731  0.00  0.00    +0.044 C 
ATOM     20  N   UNL     1      -4.686  -0.674   4.322  0.00  0.00    -0.293 NA
ATOM     21  C   UNL     1      -3.267  -1.167   4.226  0.00  0.00    +0.096 C 
ATOM     22  H   UNL     1      -6.954  -0.927   0.766  0.00  0.00    +0.155 HD
ATOM     23  H   UNL     1      -4.806  -0.064   5.117  0.00  0.00    +0.124 HD
ENDROOT
BRANCH   1  24
ATOM     24  C   UNL     1      -1.433  -0.534   0.013  0.00  0.00    +0.081 C 
ATOM     25  C   UNL     1      -1.416  -2.058  -0.121  0.00  0.00    +0.028 C 
BRANCH  24  27
ATOM     26  C   UNL     1      -0.019   1.526   0.010  0.00  0.00    +0.006 C 
ATOM     27  C   UNL     1       0.002  -0.004   0.002  0.00  0.00    +0.019 C 
ENDBRANCH  24  27
ENDBRANCH   1  24
BRANCH  21  28
ATOM     28  C   UNL     1      -2.701  -1.435   5.622  0.00  0.00    +0.129 C 
ATOM     29  C   UNL     1      -3.463  -2.595   6.267  0.00  0.00    +0.039 C 
BRANCH  28  30
ATOM     30  O   UNL     1      -1.317  -1.775   5.517  0.00  0.00    -0.390 OA
ATOM     31  H   UNL     1      -1.144  -2.562   4.983  0.00  0.00    +0.210 HD
ENDBRANCH  28  30
ENDBRANCH  21  28
TORSDOF 4
