REMARK  Name = ZINC03568278
REMARK  3 active torsions:
REMARK  status: ('A' for Active; 'I' for Inactive)
REMARK    1  A    between atoms: C_1  and  C_2
REMARK    2  A    between atoms: C_11  and  N_15
REMARK    3  A    between atoms: C_20  and  N_43
REMARK                            x       y       z     vdW  Elec       q    Type
REMARK                         _______ _______ _______ _____ _____    ______ ____
ROOT
ATOM      1  C   UNL     1       7.816   2.962  -0.908  0.00  0.00    +0.008 C 
ATOM      2  C   UNL     1       6.910   1.915  -0.255  0.00  0.00    -0.009 C 
ATOM      3  C   UNL     1       5.485   2.464  -0.141  0.00  0.00    +0.008 C 
ATOM      4  C   UNL     1       4.530   1.345   0.277  0.00  0.00    +0.037 C 
ATOM      5  C   UNL     1       5.079   0.673   1.533  0.00  0.00    -0.025 A 
ATOM      6  C   UNL     1       6.375   0.814   1.879  0.00  0.00    -0.004 A 
ATOM      7  S   UNL     1       6.558  -0.121   3.374  0.00  0.00    -0.073 S 
ATOM      8  C   UNL     1       4.889  -0.702   3.533  0.00  0.00    +0.114 A 
ATOM      9  C   UNL     1       4.243  -0.151   2.408  0.00  0.00    +0.051 A 
ATOM     10  C   UNL     1       2.860  -0.457   2.287  0.00  0.00    +0.133 A 
ATOM     11  N   UNL     1       2.288  -1.224   3.201  0.00  0.00    -0.220 NA
ATOM     12  C   UNL     1       2.958  -1.712   4.230  0.00  0.00    +0.224 A 
ATOM     13  N   UNL     1       4.242  -1.457   4.398  0.00  0.00    -0.228 NA
ATOM     14  C   UNL     1       7.429   1.594   1.154  0.00  0.00    +0.046 C 
ENDROOT
BRANCH  10  15
ATOM     15  N   UNL     1       2.123   0.034   1.224  0.00  0.00    -0.318 N 
ATOM     16  C   UNL     1       1.644  -1.058   0.365  0.00  0.00    +0.088 C 
ATOM     17  C   UNL     1       0.904  -0.470  -0.838  0.00  0.00    -0.060 C 
ATOM     18  C   UNL     1       0.262   1.447   0.493  0.00  0.00    -0.060 C 
ATOM     19  C   UNL     1       1.002   0.859   1.697  0.00  0.00    +0.088 C 
ATOM     20  C   UNL     1      -0.999   0.877  -1.494  0.00  0.00    -0.096 C 
ATOM     21  N   UNL     1      -0.233   0.339  -0.350  0.00  0.00    +0.380 N 
ATOM     22  H   UNL     1      -0.850  -0.259   0.213  0.00  0.00    -0.082 HD
ENDBRANCH  10  15
TORSDOF 1
