REMARK  Name = ZINC13594501
REMARK  9 active torsions:
REMARK  status: ('A' for Active; 'I' for Inactive)
REMARK    1  A    between atoms: C_1  and  C_2
REMARK    2  A    between atoms: C_4  and  C_28
REMARK    3  A    between atoms: N_5  and  C_7
REMARK    4  A    between atoms: C_7  and  C_8
REMARK    5  A    between atoms: C_8  and  N_9
REMARK    6  A    between atoms: C_10  and  C_12
REMARK    7  A    between atoms: C_12  and  C_13
REMARK    8  A    between atoms: N_20  and  C_21
REMARK    9  A    between atoms: C_21  and  C_22
REMARK                            x       y       z     vdW  Elec       q    Type
REMARK                         _______ _______ _______ _____ _____    ______ ____
ROOT
ATOM      1  C   UNL     1       4.062  -6.853   4.256  0.00  0.00    +0.028 C 
ATOM      2  C   UNL     1       4.184  -8.175   4.960  0.00  0.00    +0.200 C 
ATOM      3  O   UNL     1       3.423  -9.069   4.655  0.00  0.00    -0.278 OA
ATOM      4  N   UNL     1       5.099  -8.405   5.908  0.00  0.00    -0.318 N 
ATOM      5  C   UNL     1       6.040  -7.383   6.360  0.00  0.00    +0.085 C 
ATOM      6  C   UNL     1       6.109  -6.250   5.335  0.00  0.00    -0.059 C 
ATOM      7  N   UNL     1       4.740  -5.806   5.030  0.00  0.00    +0.389 N 
ATOM      8  H   UNL     1       5.139  -9.287   6.312  0.00  0.00    +0.149 HD
ATOM      9  H   UNL     1       4.237  -5.642   5.889  0.00  0.00    -0.081 HD
ENDROOT
BRANCH   1  10
ATOM     10  C   UNL     1       2.582  -6.494   4.105  0.00  0.00    +0.089 C 
BRANCH  10  12
ATOM     11  N   UNL     1       0.666  -6.005   5.592  0.00  0.00    -0.314 N 
ATOM     12  C   UNL     1       1.940  -6.428   5.467  0.00  0.00    +0.212 C 
ATOM     13  O   UNL     1       2.569  -6.756   6.450  0.00  0.00    -0.276 OA
ATOM     14  H   UNL     1       0.163  -5.743   4.805  0.00  0.00    +0.149 HD
BRANCH  11  15
ATOM     15  C   UNL     1       0.042  -5.942   6.915  0.00  0.00    +0.127 C 
BRANCH  15  16
ATOM     16  C   UNL     1      -1.395  -5.433   6.778  0.00  0.00    +0.162 C 
BRANCH  16  21
ATOM     17  C   UNL     1      -3.942  -6.753  10.896  0.00  0.00    +0.067 C 
ATOM     18  C   UNL     1      -3.137  -5.968   9.894  0.00  0.00    +0.060 A 
ATOM     19  C   UNL     1      -2.689  -4.652  10.051  0.00  0.00    +0.047 A 
ATOM     20  C   UNL     1      -2.005  -4.308   8.936  0.00  0.00    +0.036 A 
ATOM     21  N   UNL     1      -2.019  -5.369   8.102  0.00  0.00    -0.267 N 
ATOM     22  N   UNL     1      -2.731  -6.400   8.727  0.00  0.00    -0.176 NA
ATOM     23  C   UNL     1      -1.346  -2.979   8.671  0.00  0.00    +0.065 C 
ENDBRANCH  16  21
ENDBRANCH  15  16
ENDBRANCH  11  15
ENDBRANCH  10  12
ENDBRANCH   1  10
BRANCH   7  24
ATOM     24  C   UNL     1       4.791  -4.567   4.243  0.00  0.00    -0.074 C 
BRANCH  24  25
ATOM     25  C   UNL     1       5.354  -3.437   5.107  0.00  0.00    -0.028 C 
ATOM     26  C   UNL     1       4.389  -3.145   6.257  0.00  0.00    +0.002 C 
ATOM     27  C   UNL     1       4.952  -2.015   7.121  0.00  0.00    +0.000 C 
ATOM     28  C   UNL     1       5.122  -0.757   6.268  0.00  0.00    +0.000 C 
ATOM     29  C   UNL     1       6.087  -1.048   5.117  0.00  0.00    +0.000 C 
ATOM     30  C   UNL     1       5.524  -2.179   4.253  0.00  0.00    +0.002 C 
ENDBRANCH  24  25
ENDBRANCH   7  24
TORSDOF 7
