REMARK  Name = ZINC21952561
REMARK  3 active torsions:
REMARK  status: ('A' for Active; 'I' for Inactive)
REMARK    1  A    between atoms: C_1  and  C_2
REMARK    2  A    between atoms: C_2  and  C_4
REMARK    3  A    between atoms: C_2  and  O_14
REMARK                            x       y       z     vdW  Elec       q    Type
REMARK                         _______ _______ _______ _____ _____    ______ ____
ROOT
ATOM      1  C   UNL     1       4.507   0.692  -0.036  0.00  0.00    +0.134 A 
ATOM      2  C   UNL     1       3.788   1.823  -0.024  0.00  0.00    +0.056 A 
ATOM      3  C   UNL     1       2.379   1.411  -0.013  0.00  0.00    +0.022 A 
ATOM      4  C   UNL     1       1.164   2.095   0.002  0.00  0.00    +0.027 A 
ATOM      5  C   UNL     1      -0.017   1.384   0.010  0.00  0.00    +0.019 A 
ATOM      6  C   UNL     1       0.002  -0.004   0.002  0.00  0.00    +0.019 A 
ATOM      7  C   UNL     1       1.197  -0.691  -0.013  0.00  0.00    +0.048 A 
ATOM      8  C   UNL     1       2.398   0.006  -0.020  0.00  0.00    +0.135 A 
ATOM      9  O   UNL     1       3.691  -0.376  -0.034  0.00  0.00    -0.457 OA
ATOM     10 BR   UNL     1      -1.669   2.304   0.022  0.00  0.00    -0.050 Br
ENDROOT
BRANCH   1  12
ATOM     11  C   UNL     1       6.523   0.348   1.367  0.00  0.00    +0.046 C 
ATOM     12  C   UNL     1       6.013   0.628  -0.048  0.00  0.00    +0.177 C 
BRANCH  12  13
ATOM     13  O   UNL     1       6.438  -0.419  -0.924  0.00  0.00    -0.384 OA
ATOM     14  H   UNL     1       6.164  -0.390  -1.989  0.00  0.00    +0.210 HD
ENDBRANCH  12  13
ENDBRANCH   1  12
TORSDOF 2
