REMARK  Name = ZINC32956976
REMARK  8 active torsions:
REMARK  status: ('A' for Active; 'I' for Inactive)
REMARK    1  A    between atoms: C_1  and  C_2
REMARK    2  A    between atoms: C_2  and  N_3
REMARK    3  A    between atoms: N_3  and  S_4
REMARK    4  A    between atoms: S_4  and  C_7
REMARK    5  A    between atoms: C_10  and  C_13
REMARK    6  A    between atoms: C_14  and  C_15
REMARK    7  A    between atoms: N_17  and  C_18
REMARK    8  A    between atoms: N_17  and  C_19
REMARK                            x       y       z     vdW  Elec       q    Type
REMARK                         _______ _______ _______ _____ _____    ______ ____
ROOT
ATOM      1  C   UNL     1      -0.767   6.596   3.154  0.00  0.00    +0.013 C 
ATOM      2  C   UNL     1       0.146   5.629   2.931  0.00  0.00    +0.068 C 
ENDROOT
BRANCH   1   6
ATOM      3  C   UNL     1      -1.288   8.158   7.064  0.00  0.00    +0.105 A 
ATOM      4  C   UNL     1      -2.057   8.643   6.020  0.00  0.00    +0.029 A 
ATOM      5  C   UNL     1      -1.893   8.141   4.747  0.00  0.00    +0.010 A 
ATOM      6  C   UNL     1      -0.947   7.138   4.511  0.00  0.00    -0.025 A 
ATOM      7  C   UNL     1      -0.178   6.649   5.571  0.00  0.00    +0.010 A 
ATOM      8  C   UNL     1      -0.349   7.166   6.838  0.00  0.00    +0.029 A 
BRANCH   3   9
ATOM      9  S   UNL     1      -1.504   8.807   8.687  0.00  0.00    +0.058 S 
ATOM     10  O   UNL     1      -0.287   8.574   9.383  0.00  0.00    -0.153 OA
ATOM     11  O   UNL     1      -2.058  10.107   8.535  0.00  0.00    -0.153 OA
BRANCH   9  12
ATOM     12  N   UNL     1      -2.660   7.885   9.433  0.00  0.00    -0.190 NA
ATOM     13  H   UNL     1      -3.672   8.295   9.566  0.00  0.00    +0.148 HD
BRANCH  12  15
ATOM     14  C   UNL     1      -3.433   5.950  10.714  0.00  0.00    +0.022 C 
ATOM     15  C   UNL     1      -2.400   6.470   9.712  0.00  0.00    +0.102 C 
ENDBRANCH  12  15
ENDBRANCH   9  12
ENDBRANCH   3   9
ENDBRANCH   1   6
BRANCH   2  16
ATOM     16  C   UNL     1       0.325   5.090   1.581  0.00  0.00    +0.240 C 
ATOM     17  O   UNL     1      -0.349   5.514   0.662  0.00  0.00    -0.271 OA
ATOM     18  N   UNL     1       1.238   4.123   1.358  0.00  0.00    -0.294 N 
ATOM     19  C   UNL     1       2.050   3.613   2.465  0.00  0.00    +0.133 C 
BRANCH  18  20
ATOM     20  C   UNL     1       1.417   3.583   0.008  0.00  0.00    +0.107 C 
ATOM     21  C   UNL     1       2.883   3.752  -0.446  0.00  0.00    +0.032 C 
ATOM     22  C   UNL     1       3.518   2.412  -0.020  0.00  0.00    +0.037 C 
ATOM     23  C   UNL     1       2.377   1.417  -0.013  0.00  0.00    -0.042 A 
ATOM     24  C   UNL     1       1.170   2.090   0.002  0.00  0.00    -0.024 A 
ATOM     25  C   UNL     1      -0.017   1.377   0.010  0.00  0.00    +0.006 A 
ATOM     26  C   UNL     1       0.002  -0.004   0.002  0.00  0.00    +0.000 A 
ATOM     27  C   UNL     1       1.209  -0.677  -0.013  0.00  0.00    +0.000 A 
ATOM     28  C   UNL     1       2.394   0.032  -0.021  0.00  0.00    +0.004 A 
ENDBRANCH  18  20
ENDBRANCH   2  16
TORSDOF 6
