REMARK  Name = ZINC11635227
REMARK  7 active torsions:
REMARK  status: ('A' for Active; 'I' for Inactive)
REMARK    1  A    between atoms: C_1  and  C_2
REMARK    2  A    between atoms: C_2  and  N_3
REMARK    3  A    between atoms: N_3  and  C_4
REMARK    4  A    between atoms: N_3  and  S_12
REMARK    5  A    between atoms: C_9  and  C_10
REMARK    6  A    between atoms: S_12  and  C_15
REMARK    7  A    between atoms: C_20  and  C_21
REMARK                            x       y       z     vdW  Elec       q    Type
REMARK                         _______ _______ _______ _____ _____    ______ ____
ROOT
ATOM      1  S   UNL     1      -2.739   1.858  -0.197  0.00  0.00    +0.075 S 
ATOM      2  O   UNL     1      -3.333   2.667   0.809  0.00  0.00    -0.150 OA
ATOM      3  O   UNL     1      -1.454   1.272  -0.042  0.00  0.00    -0.150 OA
ENDROOT
BRANCH   1   4
ATOM      4  C   UNL     1      -3.861   0.537  -0.508  0.00  0.00    +0.114 A 
ATOM      5  C   UNL     1      -3.380  -0.742  -0.713  0.00  0.00    +0.057 A 
ATOM      6  C   UNL     1      -4.263  -1.780  -0.964  0.00  0.00    +0.069 A 
ATOM      7  C   UNL     1      -5.636  -1.530  -1.004  0.00  0.00    +0.067 A 
ATOM      8  C   UNL     1      -6.111  -0.245  -0.791  0.00  0.00    +0.033 A 
ATOM      9  C   UNL     1      -5.223   0.783  -0.542  0.00  0.00    -0.022 A 
ATOM     10  C   UNL     1      -5.739   2.180  -0.312  0.00  0.00    +0.046 C 
ATOM     11  N   UNL     1      -6.259  -2.747  -1.271  0.00  0.00    -0.306 N 
ATOM     12  H   UNL     1      -7.215  -2.889  -1.357  0.00  0.00    +0.170 HD
ATOM     13  C   UNL     1      -5.308  -3.693  -1.389  0.00  0.00    +0.325 A 
ATOM     14  O   UNL     1      -5.515  -4.870  -1.623  0.00  0.00    -0.247 OA
ATOM     15  N   UNL     1      -4.094  -3.141  -1.209  0.00  0.00    -0.306 N 
ATOM     16  H   UNL     1      -3.246  -3.610  -1.244  0.00  0.00    +0.170 HD
ENDBRANCH   1   4
BRANCH   1  17
ATOM     17  N   UNL     1      -2.675   2.781  -1.570  0.00  0.00    -0.202 N 
BRANCH  17  18
ATOM     18  C   UNL     1      -3.443   3.934  -1.668  0.00  0.00    +0.065 A 
ATOM     19  C   UNL     1      -4.668   3.903  -2.323  0.00  0.00    +0.025 A 
ATOM     20  C   UNL     1      -5.432   5.048  -2.415  0.00  0.00    +0.002 A 
ATOM     21  C   UNL     1      -4.981   6.239  -1.866  0.00  0.00    +0.001 A 
ATOM     22  C   UNL     1      -3.768   6.290  -1.218  0.00  0.00    +0.017 A 
ATOM     23  C   UNL     1      -2.984   5.138  -1.111  0.00  0.00    +0.086 A 
BRANCH  23  24
ATOM     24  C   UNL     1      -1.685   5.186  -0.419  0.00  0.00    +0.388 C 
ATOM     25  O   UNL     1      -0.961   4.210  -0.416  0.00  0.00    -0.241 OA
ATOM     26  O   UNL     1      -1.298   6.313   0.211  0.00  0.00    -0.241 OA
ENDBRANCH  23  24
ENDBRANCH  17  18
BRANCH  17  28
ATOM     27  C   UNL     1      -2.643   1.668  -3.748  0.00  0.00    +0.026 C 
ATOM     28  C   UNL     1      -1.809   2.382  -2.682  0.00  0.00    +0.128 C 
ENDBRANCH  17  28
ENDBRANCH   1  17
TORSDOF 5
