REMARK  Name = ZINC32154706
REMARK  7 active torsions:
REMARK  status: ('A' for Active; 'I' for Inactive)
REMARK    1  A    between atoms: C_3  and  S_27
REMARK    2  A    between atoms: C_6  and  C_7
REMARK    3  A    between atoms: C_8  and  C_9
REMARK    4  A    between atoms: N_14  and  C_17
REMARK    5  A    between atoms: C_22  and  N_23
REMARK    6  A    between atoms: S_27  and  N_30
REMARK    7  A    between atoms: N_30  and  C_31
REMARK                            x       y       z     vdW  Elec       q    Type
REMARK                         _______ _______ _______ _____ _____    ______ ____
ROOT
ATOM      1  C   UNL     1      -3.622   4.699   6.565  0.00  0.00    +0.240 C 
ATOM      2  O   UNL     1      -4.443   3.914   7.003  0.00  0.00    -0.271 OA
ATOM      3  N   UNL     1      -3.385   5.857   7.212  0.00  0.00    -0.295 N 
ATOM      4  C   UNL     1      -4.030   6.148   8.501  0.00  0.00    +0.127 C 
ATOM      5  C   UNL     1      -2.940   6.567   9.501  0.00  0.00    +0.124 C 
ATOM      6  N   UNL     1      -2.162   7.675   8.933  0.00  0.00    -0.325 N 
ATOM      7  C   UNL     1      -1.456   7.261   7.713  0.00  0.00    +0.124 C 
ATOM      8  C   UNL     1      -2.479   6.867   6.643  0.00  0.00    +0.127 C 
ENDROOT
BRANCH   6   9
ATOM      9  C   UNL     1      -1.270   8.196   9.875  0.00  0.00    +0.060 A 
ATOM     10  C   UNL     1      -0.294   7.380  10.434  0.00  0.00    +0.027 A 
ATOM     11  C   UNL     1       0.585   7.897  11.365  0.00  0.00    +0.022 A 
ATOM     12  C   UNL     1       0.496   9.227  11.740  0.00  0.00    +0.043 A 
ATOM     13  C   UNL     1      -0.475  10.041  11.184  0.00  0.00    +0.054 A 
ATOM     14  C   UNL     1      -1.355   9.530  10.250  0.00  0.00    +0.148 A 
ATOM     15 CL   UNL     1       1.603   9.873  12.910  0.00  0.00    -0.083 Cl
BRANCH  14  16
ATOM     16  N   UNL     1      -2.390  10.403   9.652  0.00  0.00    +0.058 N 
ATOM     17  O   UNL     1      -2.530  11.544  10.054  0.00  0.00    -0.126 OA
ATOM     18  O   UNL     1      -3.101   9.981   8.758  0.00  0.00    -0.126 OA
ENDBRANCH  14  16
ENDBRANCH   6   9
BRANCH   1  20
ATOM     19  C   UNL     1      -3.049   3.181   4.748  0.00  0.00    +0.013 C 
ATOM     20  C   UNL     1      -2.892   4.384   5.335  0.00  0.00    +0.068 C 
BRANCH  19  26
ATOM     21  C   UNL     1      -2.475   1.617   2.899  0.00  0.00    +0.010 A 
ATOM     22  C   UNL     1      -1.784   1.328   1.742  0.00  0.00    +0.029 A 
ATOM     23  C   UNL     1      -0.933   2.268   1.186  0.00  0.00    +0.105 A 
ATOM     24  C   UNL     1      -0.765   3.502   1.789  0.00  0.00    +0.029 A 
ATOM     25  C   UNL     1      -1.454   3.809   2.944  0.00  0.00    +0.010 A 
ATOM     26  C   UNL     1      -2.315   2.864   3.512  0.00  0.00    -0.025 A 
BRANCH  23  27
ATOM     27  S   UNL     1      -0.053   1.888  -0.292  0.00  0.00    +0.059 S 
ATOM     28  O   UNL     1       0.040   0.472  -0.357  0.00  0.00    -0.153 OA
ATOM     29  O   UNL     1       1.092   2.729  -0.311  0.00  0.00    -0.153 OA
BRANCH  27  30
ATOM     30  N   UNL     1      -1.006   2.358  -1.563  0.00  0.00    -0.187 NA
ATOM     31  H   UNL     1      -1.531   1.592  -2.153  0.00  0.00    +0.148 HD
BRANCH  30  32
ATOM     32  C   UNL     1      -1.317   3.776  -1.760  0.00  0.00    +0.077 C 
ATOM     33  C   UNL     1      -2.691   4.124  -2.338  0.00  0.00    +0.022 C 
ATOM     34  C   UNL     1      -1.436   4.279  -3.200  0.00  0.00    +0.022 C 
ENDBRANCH  30  32
ENDBRANCH  27  30
ENDBRANCH  23  27
ENDBRANCH  19  26
ENDBRANCH   1  20
TORSDOF 7
