REMARK  Name = ZINC10623976
REMARK  9 active torsions:
REMARK  status: ('A' for Active; 'I' for Inactive)
REMARK    1  A    between atoms: C_1  and  C_2
REMARK    2  A    between atoms: C_10  and  C_11
REMARK    3  A    between atoms: N_13  and  N_14
REMARK    4  A    between atoms: C_15  and  C_17
REMARK    5  A    between atoms: C_17  and  C_18
REMARK    6  A    between atoms: C_18  and  C_19
REMARK    7  A    between atoms: C_20  and  C_26
REMARK    8  A    between atoms: N_22  and  C_25
REMARK    9  A    between atoms: C_23  and  C_24
REMARK                            x       y       z     vdW  Elec       q    Type
REMARK                         _______ _______ _______ _____ _____    ______ ____
ROOT
ATOM      1  C   UNL     1       3.310  -6.307  -3.841  0.00  0.00    +0.296 C 
ATOM      2  O   UNL     1       3.101  -5.726  -4.889  0.00  0.00    -0.265 OA
ATOM      3  N   UNL     1       3.101  -5.676  -2.668  0.00  0.00    -0.228 N 
ATOM      4  H   UNL     1       3.267  -6.139  -1.832  0.00  0.00    +0.173 HD
ENDROOT
BRANCH   1  14
ATOM      5  C   UNL     1       3.857  -7.987  -6.400  0.00  0.00    +0.048 C 
ATOM      6  C   UNL     1       4.029  -8.430  -4.970  0.00  0.00    +0.008 A 
ATOM      7  C   UNL     1       4.491  -9.738  -4.504  0.00  0.00    +0.024 A 
ATOM      8  C   UNL     1       4.892 -10.913  -5.143  0.00  0.00    +0.012 A 
ATOM      9  C   UNL     1       5.272 -11.993  -4.397  0.00  0.00    +0.001 A 
ATOM     10  C   UNL     1       5.260 -11.931  -3.011  0.00  0.00    +0.004 A 
ATOM     11  C   UNL     1       4.867 -10.780  -2.361  0.00  0.00    +0.047 A 
ATOM     12  C   UNL     1       4.477  -9.668  -3.098  0.00  0.00    +0.136 A 
ATOM     13  O   UNL     1       4.054  -8.436  -2.755  0.00  0.00    -0.450 OA
ATOM     14  C   UNL     1       3.790  -7.696  -3.853  0.00  0.00    +0.195 A 
ENDBRANCH   1  14
BRANCH   3  15
ATOM     15  N   UNL     1       2.643  -4.352  -2.656  0.00  0.00    -0.234 N 
ATOM     16  C   UNL     1       2.434  -3.722  -1.484  0.00  0.00    +0.229 C 
ATOM     17  O   UNL     1       2.642  -4.300  -0.439  0.00  0.00    -0.274 OA
ATOM     18  H   UNL     1       2.476  -3.889  -3.492  0.00  0.00    +0.173 HD
BRANCH  16  19
ATOM     19  C   UNL     1       1.942  -2.297  -1.471  0.00  0.00    +0.102 C 
BRANCH  19  20
ATOM     20  C   UNL     1       1.789  -1.823  -0.025  0.00  0.00    +0.048 C 
BRANCH  20  21
ATOM     21  C   UNL     1       1.296  -0.399  -0.013  0.00  0.00    -0.004 A 
ATOM     22  C   UNL     1       2.096   0.748  -0.014  0.00  0.00    +0.063 A 
ATOM     23  N   UNL     1       1.311   1.794  -0.001  0.00  0.00    -0.176 NA
ATOM     24  N   UNL     1      -0.016   1.345   0.009  0.00  0.00    -0.271 N 
ATOM     25  C   UNL     1       0.002  -0.004   0.002  0.00  0.00    +0.039 A 
ATOM     26  C   UNL     1      -1.203  -0.909   0.009  0.00  0.00    +0.065 C 
ATOM     27  C   UNL     1      -1.212   2.191   0.020  0.00  0.00    +0.172 C 
ATOM     28  C   UNL     1       3.603   0.775  -0.028  0.00  0.00    +0.068 C 
ENDBRANCH  20  21
ENDBRANCH  19  20
ENDBRANCH  16  19
ENDBRANCH   3  15
TORSDOF 5
