REMARK  Name = ZINC21623467
REMARK  10 active torsions:
REMARK  status: ('A' for Active; 'I' for Inactive)
REMARK    1  A    between atoms: C_1  and  C_2
REMARK    2  A    between atoms: C_2  and  C_4
REMARK    3  A    between atoms: C_2  and  S_17
REMARK    4  A    between atoms: N_6  and  C_7
REMARK    5  A    between atoms: C_10  and  S_13
REMARK    6  A    between atoms: S_13  and  N_16
REMARK    7  A    between atoms: S_17  and  C_18
REMARK    8  A    between atoms: C_21  and  C_29
REMARK    9  A    between atoms: N_22  and  C_23
REMARK   10  A    between atoms: C_23  and  C_24
REMARK                            x       y       z     vdW  Elec       q    Type
REMARK                         _______ _______ _______ _____ _____    ______ ____
ROOT
ATOM      1  C   UNL     1      -6.358  -1.139  -2.926  0.00  0.00    +0.029 C 
ATOM      2  C   UNL     1      -5.328  -1.777  -3.859  0.00  0.00    +0.137 C 
ENDROOT
BRANCH   2   3
ATOM      3  C   UNL     1      -6.034  -2.411  -5.030  0.00  0.00    +0.230 C 
ATOM      4  O   UNL     1      -6.084  -1.831  -6.094  0.00  0.00    -0.274 OA
ATOM      5  N   UNL     1      -6.611  -3.621  -4.894  0.00  0.00    -0.285 N 
ATOM      6  H   UNL     1      -6.501  -4.180  -3.953  0.00  0.00    +0.155 HD
BRANCH   5   7
ATOM      7  C   UNL     1      -7.349  -4.167  -5.949  0.00  0.00    +0.034 A 
ATOM      8  C   UNL     1      -8.471  -4.942  -5.686  0.00  0.00    +0.025 A 
ATOM      9  C   UNL     1      -9.202  -5.474  -6.730  0.00  0.00    +0.030 A 
ATOM     10  C   UNL     1      -8.810  -5.246  -8.037  0.00  0.00    +0.105 A 
ATOM     11  C   UNL     1      -7.690  -4.481  -8.302  0.00  0.00    +0.030 A 
ATOM     12  C   UNL     1      -6.959  -3.940  -7.262  0.00  0.00    +0.025 A 
BRANCH  10  13
ATOM     13  S   UNL     1      -9.741  -5.933  -9.366  0.00  0.00    +0.056 S 
ATOM     14  O   UNL     1     -11.054  -6.155  -8.870  0.00  0.00    -0.153 OA
ATOM     15  O   UNL     1      -9.482  -5.122 -10.504  0.00  0.00    -0.153 OA
BRANCH  13  16
ATOM     16  N   UNL     1      -9.100  -7.425  -9.693  0.00  0.00    -0.204 NA
ATOM     17  H   UNL     1      -9.655  -7.889 -10.521  0.00  0.00    +0.144 HD
ATOM     18  H   UNL     1      -9.175  -8.061  -8.798  0.00  0.00    +0.144 HD
ENDBRANCH  13  16
ENDBRANCH  10  13
ENDBRANCH   5   7
ENDBRANCH   2   3
BRANCH   2  19
ATOM     19  S   UNL     1      -4.188  -0.505  -4.460  0.00  0.00    -0.074 S 
BRANCH  19  20
ATOM     20  C   UNL     1      -3.411  -0.051  -2.945  0.00  0.00    +0.193 A 
ATOM     21  N   UNL     1      -3.659  -0.556  -1.758  0.00  0.00    -0.122 NA
ATOM     22  N   UNL     1      -2.905   0.003  -0.880  0.00  0.00    -0.133 NA
ATOM     23  C   UNL     1      -2.144   0.896  -1.447  0.00  0.00    +0.138 A 
ATOM     24  N   UNL     1      -2.436   0.891  -2.783  0.00  0.00    -0.298 N 
BRANCH  23  25
ATOM     25  C   UNL     1      -1.126   1.769  -0.759  0.00  0.00    +0.057 C 
ATOM     26  C   UNL     1       0.017   1.071  -0.018  0.00  0.00    +0.012 C 
ATOM     27  C   UNL     1      -1.101   1.755   0.772  0.00  0.00    +0.012 C 
ENDBRANCH  23  25
BRANCH  24  28
ATOM     28  C   UNL     1      -1.829   1.724  -3.824  0.00  0.00    +0.199 C 
BRANCH  28  29
ATOM     29  C   UNL     1      -0.626   1.018  -4.395  0.00  0.00    +0.125 A 
ATOM     30  C   UNL     1      -0.634   0.171  -5.439  0.00  0.00    +0.046 A 
ATOM     31  C   UNL     1       0.701  -0.252  -5.633  0.00  0.00    +0.041 A 
ATOM     32  C   UNL     1       1.444   0.356  -4.691  0.00  0.00    +0.195 A 
ATOM     33  O   UNL     1       0.634   1.124  -3.943  0.00  0.00    -0.466 OA
ENDBRANCH  28  29
ENDBRANCH  24  28
ENDBRANCH  19  20
ENDBRANCH   2  19
TORSDOF 9
