REMARK  Name = ZINC22338269
REMARK  12 active torsions:
REMARK  status: ('A' for Active; 'I' for Inactive)
REMARK    1  A    between atoms: C_1  and  C_2
REMARK    2  A    between atoms: C_2  and  C_3
REMARK    3  A    between atoms: N_9  and  C_10
REMARK    4  A    between atoms: C_10  and  C_11
REMARK    5  A    between atoms: C_11  and  C_12
REMARK    6  A    between atoms: C_12  and  N_13
REMARK    7  A    between atoms: C_14  and  C_16
REMARK    8  A    between atoms: C_16  and  N_17
REMARK    9  A    between atoms: N_17  and  C_18
REMARK   10  A    between atoms: N_17  and  S_29
REMARK   11  A    between atoms: C_22  and  C_24
REMARK   12  A    between atoms: S_29  and  C_32
REMARK                            x       y       z     vdW  Elec       q    Type
REMARK                         _______ _______ _______ _____ _____    ______ ____
ROOT
ATOM      1  C   UNL     1       0.407   3.801  -8.453  0.00  0.00    +0.226 C 
ENDROOT
BRANCH   1   3
ATOM      2  N   UNL     1      -0.184   3.636  -6.057  0.00  0.00    -0.314 N 
ATOM      3  C   UNL     1      -0.536   4.022  -7.299  0.00  0.00    +0.232 C 
ATOM      4  O   UNL     1      -1.613   4.547  -7.489  0.00  0.00    -0.274 OA
ATOM      5  H   UNL     1       0.793   3.160  -5.885  0.00  0.00    +0.149 HD
BRANCH   2   6
ATOM      6  C   UNL     1      -1.101   3.852  -4.935  0.00  0.00    +0.102 C 
BRANCH   6   7
ATOM      7  C   UNL     1      -0.463   3.327  -3.647  0.00  0.00    +0.000 C 
BRANCH   7   8
ATOM      8  C   UNL     1      -1.421   3.552  -2.475  0.00  0.00    -0.077 C 
BRANCH   8  14
ATOM      9  C   UNL     1      -1.517   3.557  -0.057  0.00  0.00    -0.069 C 
ATOM     10  C   UNL     1      -0.768   3.133   1.209  0.00  0.00    -0.015 C 
ATOM     11  C   UNL     1      -0.683   1.605   1.260  0.00  0.00    -0.003 C 
ATOM     12  C   UNL     1       0.015   1.099  -0.006  0.00  0.00    -0.019 C 
ATOM     13  C   UNL     1      -0.757   1.581  -1.236  0.00  0.00    -0.078 C 
ATOM     14  N   UNL     1      -0.809   3.049  -1.239  0.00  0.00    +0.382 N 
ATOM     15  H   UNL     1       0.225   3.421  -1.196  0.00  0.00    -0.081 HD
BRANCH   9  17
ATOM     16  C   UNL     1      -0.172   5.653  -0.253  0.00  0.00    +0.002 C 
ATOM     17  C   UNL     1      -1.586   5.084  -0.121  0.00  0.00    -0.019 C 
ENDBRANCH   9  17
ENDBRANCH   8  14
ENDBRANCH   7   8
ENDBRANCH   6   7
ENDBRANCH   2   6
ENDBRANCH   1   3
BRANCH   1  18
ATOM     18  N   UNL     1      -0.203   4.303  -9.687  0.00  0.00    -0.199 N 
BRANCH  18  19
ATOM     19  C   UNL     1      -1.074   3.489 -10.417  0.00  0.00    +0.052 A 
ATOM     20  C   UNL     1      -1.767   2.466  -9.782  0.00  0.00    +0.026 A 
ATOM     21  C   UNL     1      -2.627   1.663 -10.506  0.00  0.00    +0.022 A 
ATOM     22  C   UNL     1      -2.798   1.877 -11.862  0.00  0.00    +0.053 A 
ATOM     23  C   UNL     1      -2.108   2.894 -12.497  0.00  0.00    +0.075 A 
ATOM     24  C   UNL     1      -1.252   3.704 -11.777  0.00  0.00    +0.038 A 
ATOM     25 CL   UNL     1      -3.879   0.866 -12.769  0.00  0.00    -0.083 Cl
BRANCH  23  26
ATOM     26  C   UNL     1      -2.296   3.124 -13.975  0.00  0.00    +0.419 C 
ATOM     27  F   UNL     1      -1.500   4.199 -14.385  0.00  0.00    -0.166 F 
ATOM     28  F   UNL     1      -1.923   1.972 -14.677  0.00  0.00    -0.166 F 
ATOM     29  F   UNL     1      -3.640   3.413 -14.234  0.00  0.00    -0.166 F 
ENDBRANCH  23  26
ENDBRANCH  18  19
BRANCH  18  30
ATOM     30  S   UNL     1       0.138   5.834 -10.216  0.00  0.00    +0.043 S 
ATOM     31  O   UNL     1      -1.033   6.248 -10.907  0.00  0.00    -0.155 OA
ATOM     32  O   UNL     1       0.578   6.529  -9.057  0.00  0.00    -0.155 OA
ATOM     33  C   UNL     1       1.512   5.629 -11.382  0.00  0.00    +0.218 C 
ENDBRANCH  18  30
ENDBRANCH   1  18
TORSDOF 10
