REMARK  Name = ZINC61543365
REMARK  5 active torsions:
REMARK  status: ('A' for Active; 'I' for Inactive)
REMARK    1  A    between atoms: C_1  and  C_2
REMARK    2  A    between atoms: C_2  and  C_3
REMARK    3  A    between atoms: C_3  and  C_5
REMARK    4  A    between atoms: C_3  and  S_6
REMARK    5  A    between atoms: S_6  and  C_7
REMARK                            x       y       z     vdW  Elec       q    Type
REMARK                         _______ _______ _______ _____ _____    ______ ____
ROOT
ATOM      1  C   UNL     1       3.102  -0.498  -2.760  0.00  0.00    +0.194 A 
ATOM      2  N   UNL     1       4.381  -0.283  -3.054  0.00  0.00    -0.189 NA
ATOM      3  C   UNL     1       4.861  -0.665  -4.233  0.00  0.00    +0.223 A 
ATOM      4  N   UNL     1       4.062  -1.262  -5.114  0.00  0.00    -0.184 NA
ATOM      5  C   UNL     1       2.790  -1.475  -4.817  0.00  0.00    +0.228 A 
ATOM      6  N   UNL     1       2.309  -1.101  -3.643  0.00  0.00    -0.192 NA
ATOM      7 CL   UNL     1       1.751  -2.255  -5.970  0.00  0.00    -0.041 Cl
ATOM      8  N   UNL     1       6.187  -0.442  -4.543  0.00  0.00    -0.295 N 
ATOM      9  C   UNL     1       7.090   0.211  -3.582  0.00  0.00    +0.136 C 
ATOM     10  C   UNL     1       8.351  -0.649  -3.442  0.00  0.00    +0.179 C 
ATOM     11  O   UNL     1       8.888  -0.913  -4.740  0.00  0.00    -0.377 OA
ATOM     12  C   UNL     1       8.018  -1.660  -5.593  0.00  0.00    +0.179 C 
ATOM     13  C   UNL     1       6.741  -0.857  -5.842  0.00  0.00    +0.136 C 
ENDROOT
BRANCH   1  14
ATOM     14  S   UNL     1       2.460   0.006  -1.198  0.00  0.00    -0.083 S 
BRANCH  14  15
ATOM     15  C   UNL     1       0.718  -0.497  -1.257  0.00  0.00    +0.051 C 
ATOM     16  C   UNL     1       0.630  -2.023  -1.329  0.00  0.00    +0.019 C 
BRANCH  15  18
ATOM     17  C   UNL     1      -0.019   1.526   0.010  0.00  0.00    +0.005 C 
ATOM     18  C   UNL     1       0.002  -0.004   0.002  0.00  0.00    +0.011 C 
ENDBRANCH  15  18
ENDBRANCH  14  15
ENDBRANCH   1  14
TORSDOF 3
