REMARK  Name = ZINC13406260
REMARK  7 active torsions:
REMARK  status: ('A' for Active; 'I' for Inactive)
REMARK    1  A    between atoms: C_1  and  C_2
REMARK    2  A    between atoms: C_2  and  C_3
REMARK    3  A    between atoms: C_3  and  C_4
REMARK    4  A    between atoms: N_21  and  C_31
REMARK    5  A    between atoms: C_32  and  C_34
REMARK    6  A    between atoms: C_36  and  C_38
REMARK    7  A    between atoms: C_36  and  C_39
REMARK                            x       y       z     vdW  Elec       q    Type
REMARK                         _______ _______ _______ _____ _____    ______ ____
ROOT
ATOM      1  C   UNL     1       1.740  -1.283  -1.432  0.00  0.00    +0.214 C 
ATOM      2  O   UNL     1       2.736  -1.373  -2.118  0.00  0.00    -0.276 OA
ATOM      3  N   UNL     1       1.608  -0.256  -0.568  0.00  0.00    -0.314 N 
ATOM      4  C   UNL     1       0.914  -0.266   0.738  0.00  0.00    +0.107 C 
ATOM      5  C   UNL     1       0.229   1.116   0.825  0.00  0.00    +0.031 C 
ATOM      6  C   UNL     1       1.093   2.027  -0.063  0.00  0.00    +0.015 C 
ATOM      7  C   UNL     1       2.127   1.127  -0.725  0.00  0.00    +0.035 C 
ATOM      8  C   UNL     1       2.450   2.873  -2.300  0.00  0.00    -0.074 C 
ATOM      9  C   UNL     1       1.143   3.609  -1.975  0.00  0.00    -0.003 C 
ATOM     10  C   UNL     1       0.254   2.716  -1.123  0.00  0.00    +0.040 C 
ATOM     11  C   UNL     1      -0.555   1.841  -2.006  0.00  0.00    -0.014 A 
ATOM     12  C   UNL     1      -0.071   0.894  -2.894  0.00  0.00    -0.053 A 
ATOM     13  C   UNL     1      -1.034   0.124  -3.514  0.00  0.00    +0.002 A 
ATOM     14  C   UNL     1      -2.381   0.393  -3.327  0.00  0.00    +0.002 A 
ATOM     15  C   UNL     1      -2.845   1.468  -2.577  0.00  0.00    +0.023 A 
ATOM     16  C   UNL     1      -1.888   2.258  -1.948  0.00  0.00    +0.035 A 
ATOM     17  N   UNL     1      -1.981   3.449  -1.209  0.00  0.00    -0.314 N 
ATOM     18  C   UNL     1      -0.836   3.468  -0.327  0.00  0.00    +0.170 C 
ATOM     19  N   UNL     1      -0.198   4.624   0.236  0.00  0.00    -0.325 N 
ATOM     20  C   UNL     1       1.038   4.366   0.887  0.00  0.00    +0.032 A 
ATOM     21  C   UNL     1       1.681   3.131   0.781  0.00  0.00    -0.019 A 
ATOM     22  C   UNL     1       2.867   2.919   1.456  0.00  0.00    +0.006 A 
ATOM     23  C   UNL     1       3.421   3.925   2.226  0.00  0.00    +0.000 A 
ATOM     24  C   UNL     1       2.790   5.151   2.326  0.00  0.00    +0.002 A 
ATOM     25  C   UNL     1       1.602   5.373   1.658  0.00  0.00    +0.023 A 
ATOM     26  C   UNL     1      -3.235   3.498  -0.446  0.00  0.00    +0.131 C 
ATOM     27  C   UNL     1       1.381   0.881  -3.107  0.00  0.00    -0.003 C 
ATOM     28  H   UNL     1      -0.581   5.513   0.177  0.00  0.00    +0.148 HD
ATOM     29  N   UNL     1       2.389   1.442  -2.148  0.00  0.00    +0.399 N 
ATOM     30  H   UNL     1       3.304   1.045  -2.392  0.00  0.00    -0.078 HD
ENDROOT
BRANCH  27  31
ATOM     31  C   UNL     1       1.784  -0.575  -3.351  0.00  0.00    +0.141 C 
ATOM     32  C   UNL     1       3.225  -0.853  -3.785  0.00  0.00    +0.089 C 
ATOM     33  O   UNL     1       2.119  -0.958  -4.687  0.00  0.00    -0.367 OA
ATOM     34  C   UNL     1       4.164   0.344  -3.945  0.00  0.00    +0.044 C 
ATOM     35  C   UNL     1       3.877  -2.150  -3.303  0.00  0.00    +0.044 C 
ENDBRANCH  27  31
BRANCH   1  36
ATOM     36  C   UNL     1       0.651  -2.318  -1.544  0.00  0.00    +0.095 C 
BRANCH  36  38
ATOM     37  C   UNL     1      -0.022  -4.452  -2.656  0.00  0.00    +0.004 C 
ATOM     38  C   UNL     1       1.122  -3.456  -2.452  0.00  0.00    +0.006 C 
ENDBRANCH  36  38
ENDBRANCH   1  36
TORSDOF 3
