REMARK  Name = ZINC10697646
REMARK  7 active torsions:
REMARK  status: ('A' for Active; 'I' for Inactive)
REMARK    1  A    between atoms: C_1  and  C_2
REMARK    2  A    between atoms: C_2  and  S_3
REMARK    3  A    between atoms: S_3  and  C_4
REMARK    4  A    between atoms: C_10  and  C_12
REMARK    5  A    between atoms: N_14  and  C_28
REMARK    6  A    between atoms: N_19  and  C_22
REMARK    7  A    between atoms: C_28  and  C_29
REMARK                            x       y       z     vdW  Elec       q    Type
REMARK                         _______ _______ _______ _____ _____    ______ ____
ROOT
ATOM      1  C   UNL     1       1.171   1.755   0.000  0.00  0.00    +0.081 A 
ATOM      2  C   UNL     1      -0.013   1.076   0.008  0.00  0.00    +0.101 A 
ATOM      3  N   UNL     1      -1.206   1.718   0.017  0.00  0.00    -0.347 N 
ATOM      4  C   UNL     1      -1.327   3.059   0.032  0.00  0.00    +0.101 A 
ATOM      5  C   UNL     1      -0.216   3.863   0.025  0.00  0.00    +0.085 A 
ATOM      6  C   UNL     1       0.041   5.300   0.030  0.00  0.00    +0.283 A 
ATOM      7  O   UNL     1      -0.790   6.194   0.043  0.00  0.00    -0.265 OA
ATOM      8  N   UNL     1       1.385   5.441   0.018  0.00  0.00    -0.196 N 
ATOM      9  N   UNL     1       2.004   4.189   0.005  0.00  0.00    -0.162 NA
ATOM     10  C   UNL     1       1.122   3.230   0.009  0.00  0.00    +0.112 A 
ENDROOT
BRANCH   1  17
ATOM     11  C   UNL     1       5.792  -2.664  -0.065  0.00  0.00    +0.160 A 
ATOM     12  N   UNL     1       5.993  -1.359  -0.060  0.00  0.00    -0.133 NA
ATOM     13  N   UNL     1       4.918  -0.501  -0.046  0.00  0.00    -0.125 NA
ATOM     14  C   UNL     1       3.692  -0.986  -0.037  0.00  0.00    +0.189 A 
ATOM     15  S   UNL     1       4.008  -2.744  -0.042  0.00  0.00    -0.024 S 
ATOM     16  N   UNL     1       2.476  -0.308  -0.022  0.00  0.00    -0.259 N 
ATOM     17  C   UNL     1       2.456   1.039  -0.015  0.00  0.00    +0.253 C 
ATOM     18  O   UNL     1       3.500   1.663  -0.022  0.00  0.00    -0.270 OA
ATOM     19  H   UNL     1       1.644  -0.806  -0.017  0.00  0.00    +0.157 HD
BRANCH  11  20
ATOM     20  S   UNL     1       6.968  -3.975  -0.083  0.00  0.00    -0.097 S 
BRANCH  20  22
ATOM     21  C   UNL     1       9.697  -4.163  -0.110  0.00  0.00    +0.016 C 
ATOM     22  C   UNL     1       8.572  -3.127  -0.094  0.00  0.00    +0.073 C 
ENDBRANCH  20  22
ENDBRANCH  11  20
ENDBRANCH   1  17
BRANCH   8  23
ATOM     23  C   UNL     1       2.060   6.667   0.018  0.00  0.00    +0.069 A 
ATOM     24  C   UNL     1       1.529   7.754  -0.665  0.00  0.00    +0.028 A 
ATOM     25  C   UNL     1       2.195   8.964  -0.658  0.00  0.00    +0.002 A 
ATOM     26  C   UNL     1       3.395   9.091   0.018  0.00  0.00    +0.000 A 
ATOM     27  C   UNL     1       3.928   8.009   0.695  0.00  0.00    +0.002 A 
ATOM     28  C   UNL     1       3.265   6.798   0.697  0.00  0.00    +0.028 A 
ENDBRANCH   8  23
BRANCH   3  29
ATOM     29  C   UNL     1      -2.429   0.911   0.019  0.00  0.00    +0.156 C 
BRANCH  29  30
ATOM     30  C   UNL     1      -2.841   0.627   1.440  0.00  0.00    -0.028 A 
ATOM     31  C   UNL     1      -2.375  -0.506   2.081  0.00  0.00    +0.008 A 
ATOM     32  C   UNL     1      -2.749  -0.765   3.386  0.00  0.00    +0.038 A 
ATOM     33  C   UNL     1      -3.599   0.104   4.048  0.00  0.00    +0.123 A 
ATOM     34  C   UNL     1      -4.069   1.236   3.403  0.00  0.00    +0.038 A 
ATOM     35  C   UNL     1      -3.690   1.496   2.100  0.00  0.00    +0.008 A 
ATOM     36  F   UNL     1      -3.968  -0.151   5.322  0.00  0.00    -0.205 F 
ENDBRANCH  29  30
ENDBRANCH   3  29
TORSDOF 6
