REMARK  Name = ZINC39997189
REMARK  7 active torsions:
REMARK  status: ('A' for Active; 'I' for Inactive)
REMARK    1  A    between atoms: C_4  and  C_7
REMARK    2  A    between atoms: C_7  and  S_8
REMARK    3  A    between atoms: S_8  and  C_9
REMARK    4  A    between atoms: C_12  and  N_15
REMARK    5  A    between atoms: C_16  and  C_18
REMARK    6  A    between atoms: C_18  and  C_29
REMARK    7  A    between atoms: C_19  and  C_20
REMARK                            x       y       z     vdW  Elec       q    Type
REMARK                         _______ _______ _______ _____ _____    ______ ____
ROOT
ATOM      1  N   UNL     1       8.276  -4.647   1.853  0.00  0.00    -0.283 N 
ATOM      2  C   UNL     1       9.042  -5.141   2.846  0.00  0.00    +0.256 C 
ATOM      3  O   UNL     1       9.640  -4.384   3.586  0.00  0.00    -0.269 OA
ATOM      4  H   UNL     1       7.799  -5.251   1.262  0.00  0.00    +0.152 HD
ENDROOT
BRANCH   1   8
ATOM      5  C   UNL     1       5.786  -1.866   1.477  0.00  0.00    +0.152 C 
ATOM      6  N   UNL     1       6.386  -2.197   0.376  0.00  0.00    -0.171 NA
ATOM      7  N   UNL     1       7.588  -2.869   0.342  0.00  0.00    -0.237 N 
ATOM      8  C   UNL     1       8.164  -3.198   1.666  0.00  0.00    +0.242 C 
ATOM      9  S   UNL     1       6.872  -2.473   2.758  0.00  0.00    -0.054 S 
ATOM     10  H   UNL     1       8.025  -3.110  -0.489  0.00  0.00    +0.171 HD
BRANCH   5  11
ATOM     11  S   UNL     1       4.257  -1.011   1.666  0.00  0.00    -0.093 S 
BRANCH  11  12
ATOM     12  C   UNL     1       3.711  -0.707  -0.038  0.00  0.00    +0.111 C 
BRANCH  12  16
ATOM     13  C   UNL     1      -0.017   1.378   0.010  0.00  0.00    +0.000 A 
ATOM     14  C   UNL     1       1.171   2.086   0.002  0.00  0.00    +0.000 A 
ATOM     15  C   UNL     1       2.377   1.411  -0.013  0.00  0.00    +0.004 A 
ATOM     16  C   UNL     1       2.396   0.029  -0.020  0.00  0.00    -0.037 A 
ATOM     17  C   UNL     1       1.208  -0.679  -0.012  0.00  0.00    +0.004 A 
ATOM     18  C   UNL     1       0.002  -0.004   0.002  0.00  0.00    +0.000 A 
ENDBRANCH  12  16
ENDBRANCH  11  12
ENDBRANCH   5  11
ENDBRANCH   1   8
BRANCH   2  19
ATOM     19  C   UNL     1       9.155  -6.598   3.034  0.00  0.00    +0.114 C 
ATOM     20  C   UNL     1       9.943  -7.106   4.055  0.00  0.00    +0.030 C 
BRANCH  20  21
ATOM     21  C   UNL     1      10.051  -8.489   4.233  0.00  0.00    -0.018 C 
ATOM     22  C   UNL     1      10.788  -9.158   5.204  0.00  0.00    +0.003 A 
ATOM     23  C   UNL     1      11.615  -8.711   6.258  0.00  0.00    +0.010 A 
ATOM     24  C   UNL     1      12.227  -9.603   7.071  0.00  0.00    +0.001 A 
ATOM     25  C   UNL     1      12.075 -10.988   6.915  0.00  0.00    +0.002 A 
ATOM     26  C   UNL     1      11.305 -11.517   5.938  0.00  0.00    +0.026 A 
ATOM     27  C   UNL     1      10.606 -10.614   5.011  0.00  0.00    +0.043 A 
ATOM     28  N   UNL     1       9.815 -10.847   3.998  0.00  0.00    -0.380 N 
ATOM     29  C   UNL     1       9.383  -9.573   3.415  0.00  0.00    +0.149 C 
ATOM     30  H   UNL     1       9.552 -11.726   3.683  0.00  0.00    +0.160 HD
ENDBRANCH  20  21
BRANCH  19  31
ATOM     31  C   UNL     1       8.451  -7.489   2.162  0.00  0.00    +0.104 C 
ATOM     32  N   UNL     1       7.893  -8.196   1.470  0.00  0.00    -0.191 NA
ENDBRANCH  19  31
ENDBRANCH   2  19
TORSDOF 7
