REMARK  Name = ZINC06087306
REMARK  5 active torsions:
REMARK  status: ('A' for Active; 'I' for Inactive)
REMARK    1  A    between atoms: C_1  and  C_2
REMARK    2  A    between atoms: C_2  and  C_3
REMARK    3  A    between atoms: C_3  and  N_4
REMARK    4  A    between atoms: C_8  and  C_10
REMARK    5  A    between atoms: C_10  and  N_11
REMARK                            x       y       z     vdW  Elec       q    Type
REMARK                         _______ _______ _______ _____ _____    ______ ____
ROOT
ATOM      1  N   UNL     1      -5.065  -6.739   0.014  0.00  0.00    -0.290 N 
ATOM      2  C   UNL     1      -5.687  -6.973   1.199  0.00  0.00    +0.203 A 
ATOM      3  N   UNL     1      -6.902  -7.422   1.292  0.00  0.00    -0.235 NA
ATOM      4  C   UNL     1      -7.646  -7.691   0.190  0.00  0.00    +0.096 A 
ATOM      5  C   UNL     1      -7.082  -7.478  -1.087  0.00  0.00    +0.068 A 
ATOM      6  C   UNL     1      -5.705  -6.965  -1.157  0.00  0.00    +0.262 A 
ATOM      7  O   UNL     1      -5.162  -6.755  -2.225  0.00  0.00    -0.267 OA
ATOM      8  C   UNL     1      -7.826  -7.747  -2.234  0.00  0.00    +0.035 A 
ATOM      9  C   UNL     1      -9.115  -8.223  -2.111  0.00  0.00    +0.043 A 
ATOM     10  C   UNL     1      -9.674  -8.433  -0.857  0.00  0.00    +0.042 A 
ATOM     11  C   UNL     1      -8.954  -8.173   0.289  0.00  0.00    +0.068 A 
ATOM     12 CL   UNL     1      -9.668  -8.443   1.848  0.00  0.00    -0.081 Cl
ATOM     13 CL   UNL     1     -10.047  -8.559  -3.537  0.00  0.00    -0.083 Cl
ENDROOT
BRANCH   1  14
ATOM     14  C   UNL     1      -3.691  -6.232   0.004  0.00  0.00    +0.222 C 
BRANCH  14  19
ATOM     15  N   UNL     1      -1.413  -1.998   0.005  0.00  0.00    -0.299 N 
ATOM     16  C   UNL     1      -2.571  -2.688   0.012  0.00  0.00    +0.306 C 
ATOM     17  O   UNL     1      -3.632  -2.095   0.025  0.00  0.00    -0.252 OA
ATOM     18  N   UNL     1      -2.553  -4.036   0.005  0.00  0.00    -0.239 N 
ATOM     19  C   UNL     1      -3.711  -4.726   0.012  0.00  0.00    +0.240 C 
ATOM     20  O   UNL     1      -4.769  -4.134   0.025  0.00  0.00    -0.273 OA
ATOM     21  H   UNL     1      -0.567  -2.472  -0.006  0.00  0.00    +0.150 HD
ATOM     22  H   UNL     1      -1.707  -4.509  -0.006  0.00  0.00    +0.159 HD
BRANCH  15  23
ATOM     23  C   UNL     1      -1.433  -0.534   0.013  0.00  0.00    +0.105 C 
BRANCH  23  25
ATOM     24  C   UNL     1      -0.019   1.526   0.010  0.00  0.00    +0.005 C 
ATOM     25  C   UNL     1       0.002  -0.004   0.002  0.00  0.00    +0.015 C 
ENDBRANCH  23  25
ENDBRANCH  15  23
ENDBRANCH  14  19
ENDBRANCH   1  14
TORSDOF 4
