REMARK  Name = ZINC63825028
REMARK  7 active torsions:
REMARK  status: ('A' for Active; 'I' for Inactive)
REMARK    1  A    between atoms: C_1  and  C_2
REMARK    2  A    between atoms: C_4  and  C_30
REMARK    3  A    between atoms: C_8  and  C_12
REMARK    4  A    between atoms: C_12  and  S_13
REMARK    5  A    between atoms: S_13  and  C_14
REMARK    6  A    between atoms: C_14  and  C_15
REMARK    7  A    between atoms: N_17  and  C_18
REMARK                            x       y       z     vdW  Elec       q    Type
REMARK                         _______ _______ _______ _____ _____    ______ ____
ROOT
ATOM      1  C   UNL     1      -4.027  -5.256   6.257  0.00  0.00    +0.165 C 
ENDROOT
BRANCH   1   2
ATOM      2  C   UNL     1      -5.405  -5.843   6.420  0.00  0.00    +0.227 C 
ATOM      3  O   UNL     1      -6.257  -5.633   5.583  0.00  0.00    -0.275 OA
ATOM      4  N   UNL     1      -5.692  -6.600   7.498  0.00  0.00    -0.285 N 
ATOM      5  H   UNL     1      -4.993  -6.824   8.133  0.00  0.00    +0.155 HD
BRANCH   4   6
ATOM      6  C   UNL     1      -6.997  -7.065   7.700  0.00  0.00    +0.034 A 
ATOM      7  C   UNL     1      -7.785  -7.422   6.607  0.00  0.00    +0.027 A 
ATOM      8  C   UNL     1      -9.071  -7.881   6.789  0.00  0.00    +0.049 A 
ATOM      9  C   UNL     1      -9.595  -7.993   8.071  0.00  0.00    +0.139 A 
ATOM     10  C   UNL     1      -8.805  -7.634   9.177  0.00  0.00    +0.019 A 
ATOM     11  C   UNL     1      -7.499  -7.175   8.983  0.00  0.00    +0.035 A 
ATOM     12  C   UNL     1      -9.370  -7.756  10.524  0.00  0.00    +0.018 A 
ATOM     13  C   UNL     1     -10.642  -8.214  10.647  0.00  0.00    +0.092 A 
ATOM     14  C   UNL     1     -11.378  -8.556   9.493  0.00  0.00    +0.337 A 
ATOM     15  O   UNL     1     -12.519  -8.965   9.616  0.00  0.00    -0.245 OA
ATOM     16  O   UNL     1     -10.855  -8.441   8.263  0.00  0.00    -0.422 OA
ENDBRANCH   4   6
ENDBRANCH   1   2
BRANCH   1  17
ATOM     17  S   UNL     1      -3.958  -4.294   4.720  0.00  0.00    -0.144 S 
BRANCH  17  18
ATOM     18  C   UNL     1      -2.257  -3.665   4.672  0.00  0.00    +0.143 C 
BRANCH  18  25
ATOM     19  C   UNL     1      -0.006   1.516   0.010  0.00  0.00    +0.024 C 
ATOM     20  C   UNL     1       0.007  -0.013  -0.003  0.00  0.00    +0.076 C 
ATOM     21  C   UNL     1      -1.397  -0.567   0.089  0.00  0.00    -0.045 C 
ATOM     22  C   UNL     1      -1.702  -1.324   1.153  0.00  0.00    +0.071 C 
ATOM     23  C   UNL     1      -0.639  -1.559   2.155  0.00  0.00    +0.111 C 
ATOM     24  N   UNL     1      -0.876  -2.290   3.218  0.00  0.00    -0.227 NA
ATOM     25  C   UNL     1      -2.063  -2.837   3.428  0.00  0.00    +0.133 C 
ATOM     26  N   UNL     1      -3.078  -2.697   2.610  0.00  0.00    -0.161 NA
ATOM     27  C   UNL     1      -3.005  -1.985   1.481  0.00  0.00    +0.271 C 
ATOM     28  O   UNL     1      -3.969  -1.876   0.742  0.00  0.00    -0.268 OA
ATOM     29  S   UNL     1       0.772  -0.679   1.531  0.00  0.00    -0.098 S 
ATOM     30  C   UNL     1      -2.420  -0.277  -0.979  0.00  0.00    +0.041 C 
ENDBRANCH  18  25
ENDBRANCH  17  18
ENDBRANCH   1  17
TORSDOF 5
