REMARK  Name = ZINC21032677
REMARK  8 active torsions:
REMARK  status: ('A' for Active; 'I' for Inactive)
REMARK    1  A    between atoms: C_1  and  C_2
REMARK    2  A    between atoms: C_2  and  C_4
REMARK    3  A    between atoms: C_2  and  N_17
REMARK    4  A    between atoms: C_10  and  C_12
REMARK    5  A    between atoms: C_18  and  C_20
REMARK    6  A    between atoms: C_21  and  C_22
REMARK    7  A    between atoms: C_25  and  O_28
REMARK    8  A    between atoms: O_28  and  C_29
REMARK                            x       y       z     vdW  Elec       q    Type
REMARK                         _______ _______ _______ _____ _____    ______ ____
ROOT
ATOM      1  C   UNL     1       0.251   1.499   0.143  0.00  0.00    +0.038 C 
ATOM      2  C   UNL     1       0.002  -0.004   0.002  0.00  0.00    +0.156 C 
ENDROOT
BRANCH   2   3
ATOM      3  C   UNL     1       0.597  -0.491  -1.294  0.00  0.00    +0.236 C 
ATOM      4  O   UNL     1       1.726  -0.935  -1.314  0.00  0.00    -0.274 OA
ATOM      5  N   UNL     1      -0.125  -0.435  -2.430  0.00  0.00    -0.292 N 
ATOM      6  C   UNL     1      -1.459   0.177  -2.571  0.00  0.00    +0.108 C 
ATOM      7  C   UNL     1      -1.572   0.543  -4.072  0.00  0.00    +0.021 C 
ATOM      8  C   UNL     1      -0.841  -0.652  -4.739  0.00  0.00    +0.029 C 
ATOM      9  C   UNL     1       0.289  -0.967  -3.737  0.00  0.00    +0.113 C 
BRANCH   9  10
ATOM     10  C   UNL     1       0.487  -2.458  -3.643  0.00  0.00    +0.010 A 
ATOM     11  C   UNL     1       1.454  -3.228  -4.199  0.00  0.00    +0.013 A 
ATOM     12  C   UNL     1       1.438  -4.592  -3.974  0.00  0.00    +0.008 A 
ATOM     13  C   UNL     1       0.454  -5.119  -3.205  0.00  0.00    +0.045 A 
ATOM     14  S   UNL     1      -0.488  -3.668  -2.764  0.00  0.00    -0.100 S 
ENDBRANCH   9  10
ENDBRANCH   2   3
BRANCH   2  15
ATOM     15  N   UNL     1       0.628  -0.710   1.123  0.00  0.00    -0.301 N 
ATOM     16  C   UNL     1      -0.033  -0.842   2.290  0.00  0.00    +0.237 C 
ATOM     17  O   UNL     1      -1.150  -0.374   2.413  0.00  0.00    -0.271 OA
ATOM     18  H   UNL     1       1.518  -1.083   1.025  0.00  0.00    +0.150 HD
BRANCH  16  19
ATOM     19  C   UNL     1       0.592  -1.546   3.409  0.00  0.00    +0.068 C 
ATOM     20  C   UNL     1      -0.070  -1.678   4.577  0.00  0.00    +0.013 C 
BRANCH  20  21
ATOM     21  C   UNL     1       0.558  -2.387   5.702  0.00  0.00    -0.025 A 
ATOM     22  C   UNL     1       1.845  -2.921   5.565  0.00  0.00    +0.011 A 
ATOM     23  C   UNL     1       2.428  -3.583   6.621  0.00  0.00    +0.046 A 
ATOM     24  C   UNL     1       1.742  -3.723   7.822  0.00  0.00    +0.120 A 
ATOM     25  C   UNL     1       0.464  -3.195   7.963  0.00  0.00    +0.046 A 
ATOM     26  C   UNL     1      -0.126  -2.525   6.915  0.00  0.00    +0.011 A 
BRANCH  24  27
ATOM     27  O   UNL     1       2.322  -4.377   8.860  0.00  0.00    -0.495 OA
ATOM     28  C   UNL     1       1.562  -4.484  10.066  0.00  0.00    +0.277 C 
ENDBRANCH  24  27
ENDBRANCH  20  21
ENDBRANCH  16  19
ENDBRANCH   2  15
TORSDOF 6
