REMARK  Name = ZINC33615206
REMARK  6 active torsions:
REMARK  status: ('A' for Active; 'I' for Inactive)
REMARK    1  A    between atoms: C_6  and  N_7
REMARK    2  A    between atoms: C_8  and  S_12
REMARK    3  A    between atoms: S_12  and  C_13
REMARK    4  A    between atoms: C_13  and  C_14
REMARK    5  A    between atoms: N_16  and  C_17
REMARK    6  A    between atoms: C_22  and  N_23
REMARK                            x       y       z     vdW  Elec       q    Type
REMARK                         _______ _______ _______ _____ _____    ______ ____
ROOT
ATOM      1  C   UNL     1      -0.398  -5.572  -2.500  0.00  0.00    +0.228 C 
ATOM      2  O   UNL     1       0.800  -5.623  -2.317  0.00  0.00    -0.275 OA
ATOM      3  N   UNL     1      -0.966  -6.325  -3.462  0.00  0.00    -0.283 N 
ATOM      4  H   UNL     1      -1.931  -6.345  -3.556  0.00  0.00    +0.155 HD
ENDROOT
BRANCH   3   5
ATOM      5  C   UNL     1      -0.162  -7.079  -4.328  0.00  0.00    +0.056 A 
ATOM      6  C   UNL     1       1.150  -6.700  -4.565  0.00  0.00    +0.045 A 
ATOM      7  C   UNL     1       1.942  -7.446  -5.420  0.00  0.00    +0.043 A 
ATOM      8  C   UNL     1       1.427  -8.571  -6.039  0.00  0.00    +0.022 A 
ATOM      9  C   UNL     1       0.120  -8.956  -5.808  0.00  0.00    +0.026 A 
ATOM     10  C   UNL     1      -0.678  -8.217  -4.948  0.00  0.00    +0.051 A 
ATOM     11 CL   UNL     1       3.584  -6.969  -5.716  0.00  0.00    -0.083 Cl
BRANCH  10  12
ATOM     12  N   UNL     1      -2.001  -8.608  -4.707  0.00  0.00    -0.328 N 
ATOM     13  C   UNL     1      -3.094  -8.116  -5.556  0.00  0.00    +0.105 C 
ATOM     14  C   UNL     1      -3.885  -9.316  -6.087  0.00  0.00    +0.019 C 
ATOM     15  C   UNL     1      -4.343 -10.180  -4.910  0.00  0.00    +0.003 C 
ATOM     16  C   UNL     1      -3.121 -10.704  -4.152  0.00  0.00    +0.019 C 
ATOM     17  C   UNL     1      -2.321  -9.524  -3.604  0.00  0.00    +0.105 C 
ENDBRANCH  10  12
ENDBRANCH   3   5
BRANCH   1  18
ATOM     18  C   UNL     1      -1.251  -4.665  -1.651  0.00  0.00    +0.173 C 
BRANCH  18  19
ATOM     19  S   UNL     1      -0.202  -3.792  -0.456  0.00  0.00    -0.075 S 
BRANCH  19  21
ATOM     20  N   UNL     1      -1.024  -1.940   1.464  0.00  0.00    -0.187 N 
ATOM     21  C   UNL     1      -1.332  -2.786   0.449  0.00  0.00    +0.214 A 
ATOM     22  N   UNL     1      -2.633  -2.714   0.267  0.00  0.00    -0.101 NA
ATOM     23  N   UNL     1      -3.157  -1.884   1.095  0.00  0.00    -0.022 NA
ATOM     24  N   UNL     1      -2.250  -1.377   1.858  0.00  0.00    -0.038 NA
BRANCH  20  30
ATOM     25  C   UNL     1       0.563  -0.414   2.463  0.00  0.00    +0.029 A 
ATOM     26  C   UNL     1       1.812  -0.167   2.998  0.00  0.00    +0.017 A 
ATOM     27  C   UNL     1       2.745  -1.185   3.078  0.00  0.00    +0.018 A 
ATOM     28  C   UNL     1       2.430  -2.453   2.624  0.00  0.00    +0.017 A 
ATOM     29  C   UNL     1       1.182  -2.706   2.088  0.00  0.00    +0.029 A 
ATOM     30  C   UNL     1       0.244  -1.686   2.006  0.00  0.00    +0.070 A 
ATOM     31 BR   UNL     1       4.455  -0.842   3.810  0.00  0.00    -0.050 Br
ENDBRANCH  20  30
ENDBRANCH  19  21
ENDBRANCH  18  19
ENDBRANCH   1  18
TORSDOF 6
