REMARK  Name = ZINC08875107
REMARK  6 active torsions:
REMARK  status: ('A' for Active; 'I' for Inactive)
REMARK    1  A    between atoms: C_1  and  C_2
REMARK    2  A    between atoms: C_5  and  S_8
REMARK    3  A    between atoms: S_8  and  O_11
REMARK    4  A    between atoms: O_11  and  C_12
REMARK    5  A    between atoms: C_15  and  C_19
REMARK    6  A    between atoms: N_27  and  C_35
REMARK                            x       y       z     vdW  Elec       q    Type
REMARK                         _______ _______ _______ _____ _____    ______ ____
ROOT
ATOM      1  C   UNL     1       4.129   1.395   3.922  0.00  0.00    +0.175 A 
ATOM      2  C   UNL     1       4.800   2.010   2.875  0.00  0.00    +0.050 A 
ATOM      3  C   UNL     1       4.260   1.991   1.604  0.00  0.00    +0.008 A 
ATOM      4  C   UNL     1       3.051   1.360   1.373  0.00  0.00    -0.034 A 
ATOM      5  C   UNL     1       2.377   0.751   2.415  0.00  0.00    +0.028 A 
ATOM      6  C   UNL     1       2.916   0.762   3.688  0.00  0.00    +0.086 A 
ATOM      7 CL   UNL     1       2.072  -0.010   4.995  0.00  0.00    -0.080 Cl
ENDROOT
BRANCH   4   8
ATOM      8  C   UNL     1       2.465   1.342  -0.015  0.00  0.00    +0.089 C 
ATOM      9  C   UNL     1       1.140   2.059   0.002  0.00  0.00    +0.024 C 
ATOM     10  C   UNL     1      -0.017   1.363   0.009  0.00  0.00    +0.018 C 
ATOM     11  C   UNL     1      -1.349   2.071   0.020  0.00  0.00    +0.052 C 
ATOM     12  C   UNL     1      -1.214   3.402   0.765  0.00  0.00    +0.014 C 
ATOM     13  C   UNL     1      -0.145   4.245   0.062  0.00  0.00    +0.080 C 
ATOM     14  C   UNL     1       1.141   3.465   0.017  0.00  0.00    +0.162 C 
ATOM     15  O   UNL     1       2.200   4.061  -0.009  0.00  0.00    -0.292 OA
ATOM     16  N   UNL     1       0.002  -0.004   0.002  0.00  0.00    -0.309 N 
ATOM     17  C   UNL     1       1.103  -0.691  -0.429  0.00  0.00    +0.018 C 
ATOM     18  C   UNL     1       2.309  -0.086  -0.466  0.00  0.00    +0.024 C 
ATOM     19  C   UNL     1       3.450  -0.771  -0.920  0.00  0.00    +0.162 C 
ATOM     20  O   UNL     1       4.522  -0.199  -0.938  0.00  0.00    -0.292 OA
ATOM     21  C   UNL     1       3.368  -2.200  -1.385  0.00  0.00    +0.080 C 
ATOM     22  C   UNL     1       1.965  -2.464  -1.940  0.00  0.00    +0.014 C 
ATOM     23  C   UNL     1       0.941  -2.129  -0.853  0.00  0.00    +0.052 C 
ATOM     24  C   UNL     1      -1.175  -0.744   0.463  0.00  0.00    +0.135 C 
ENDBRANCH   4   8
BRANCH   1  25
ATOM     25  O   UNL     1       4.659   1.411   5.173  0.00  0.00    -0.341 OA
BRANCH  25  26
ATOM     26  S   UNL     1       4.229   2.607   6.012  0.00  0.00    +0.151 S 
ATOM     27  O   UNL     1       5.022   2.582   7.191  0.00  0.00    -0.131 OA
ATOM     28  O   UNL     1       4.199   3.726   5.137  0.00  0.00    -0.131 OA
BRANCH  26  33
ATOM     29  C   UNL     1      -1.466   1.619   7.743  0.00  0.00    +0.044 C 
ATOM     30  C   UNL     1      -0.043   1.866   7.311  0.00  0.00    -0.050 A 
ATOM     31  C   UNL     1       1.004   1.428   8.099  0.00  0.00    +0.005 A 
ATOM     32  C   UNL     1       2.309   1.655   7.702  0.00  0.00    +0.031 A 
ATOM     33  C   UNL     1       2.566   2.318   6.517  0.00  0.00    +0.128 A 
ATOM     34  C   UNL     1       1.518   2.760   5.731  0.00  0.00    +0.031 A 
ATOM     35  C   UNL     1       0.213   2.530   6.125  0.00  0.00    +0.005 A 
ENDBRANCH  26  33
ENDBRANCH  25  26
ENDBRANCH   1  25
TORSDOF 4
