REMARK  Name = ZINC67387370
REMARK  8 active torsions:
REMARK  status: ('A' for Active; 'I' for Inactive)
REMARK    1  A    between atoms: C_1  and  O_2
REMARK    2  A    between atoms: O_2  and  C_3
REMARK    3  A    between atoms: C_5  and  C_10
REMARK    4  A    between atoms: C_8  and  O_9
REMARK    5  A    between atoms: C_10  and  N_11
REMARK    6  A    between atoms: N_11  and  C_12
REMARK    7  A    between atoms: N_17  and  C_18
REMARK    8  A    between atoms: N_21  and  C_24
REMARK                            x       y       z     vdW  Elec       q    Type
REMARK                         _______ _______ _______ _____ _____    ______ ____
ROOT
ATOM      1  N   UNL     1      -5.293   0.516  -1.337  0.00  0.00    -0.278 N 
ATOM      2  C   UNL     1      -4.845   1.615  -1.975  0.00  0.00    +0.303 C 
ATOM      3  O   UNL     1      -4.038   2.345  -1.434  0.00  0.00    -0.253 OA
ATOM      4  N   UNL     1      -5.292   1.905  -3.213  0.00  0.00    -0.297 N 
ATOM      5  H   UNL     1      -5.989   1.364  -3.616  0.00  0.00    +0.151 HD
ENDROOT
BRANCH   4   6
ATOM      6  C   UNL     1      -4.725   3.036  -3.951  0.00  0.00    +0.071 C 
ATOM      7  C   UNL     1      -5.455   4.323  -3.556  0.00  0.00    +0.004 C 
ATOM      8  C   UNL     1      -4.912   5.487  -4.387  0.00  0.00    -0.077 C 
ATOM      9  N   UNL     1      -5.129   5.217  -5.814  0.00  0.00    +0.382 N 
ATOM     10  C   UNL     1      -4.374   4.025  -6.216  0.00  0.00    -0.077 C 
ATOM     11  C   UNL     1      -4.896   2.805  -5.455  0.00  0.00    +0.004 C 
ATOM     12  H   UNL     1      -6.112   5.063  -5.980  0.00  0.00    -0.081 HD
BRANCH   9  13
ATOM     13  C   UNL     1      -4.677   6.371  -6.603  0.00  0.00    -0.069 C 
ATOM     14  C   UNL     1      -5.746   7.200  -7.318  0.00  0.00    -0.017 C 
ATOM     15  C   UNL     1      -4.820   6.286  -8.124  0.00  0.00    -0.017 C 
ENDBRANCH   9  13
ENDBRANCH   4   6
BRANCH   1  16
ATOM     16  C   UNL     1      -6.182  -0.422  -2.028  0.00  0.00    +0.078 C 
ATOM     17  C   UNL     1      -6.704  -1.619  -1.231  0.00  0.00    +0.024 C 
ATOM     18  C   UNL     1      -5.644  -1.825  -2.314  0.00  0.00    +0.024 C 
ENDBRANCH   1  16
BRANCH   1  19
ATOM     19  C   UNL     1      -4.892   0.258   0.049  0.00  0.00    +0.144 C 
BRANCH  19  22
ATOM     20  C   UNL     1      -1.232  -0.675   0.077  0.00  0.00    +0.162 A 
ATOM     21  C   UNL     1      -2.397   0.074   0.066  0.00  0.00    +0.054 A 
ATOM     22  C   UNL     1      -3.626  -0.558   0.061  0.00  0.00    -0.026 A 
ATOM     23  C   UNL     1      -3.696  -1.939   0.068  0.00  0.00    +0.009 A 
ATOM     24  C   UNL     1      -2.537  -2.693   0.080  0.00  0.00    +0.049 A 
ATOM     25  C   UNL     1      -1.302  -2.065   0.079  0.00  0.00    +0.158 A 
BRANCH  20  27
ATOM     26  C   UNL     1      -0.026   1.375   0.080  0.00  0.00    +0.277 C 
ATOM     27  O   UNL     1      -0.022  -0.054   0.081  0.00  0.00    -0.491 OA
ENDBRANCH  20  27
BRANCH  25  28
ATOM     28  O   UNL     1      -0.161  -2.805   0.085  0.00  0.00    -0.503 OA
ATOM     29  H   UNL     1       0.165  -3.018   0.970  0.00  0.00    +0.292 HD
ENDBRANCH  25  28
ENDBRANCH  19  22
ENDBRANCH   1  19
TORSDOF 7
