REMARK  Name = ZINC09428535
REMARK  6 active torsions:
REMARK  status: ('A' for Active; 'I' for Inactive)
REMARK    1  A    between atoms: C_1  and  O_2
REMARK    2  A    between atoms: O_2  and  C_3
REMARK    3  A    between atoms: C_6  and  N_10
REMARK    4  A    between atoms: C_14  and  C_15
REMARK    5  A    between atoms: N_19  and  C_20
REMARK    6  A    between atoms: C_20  and  C_21
REMARK                            x       y       z     vdW  Elec       q    Type
REMARK                         _______ _______ _______ _____ _____    ______ ____
ROOT
ATOM      1  N   UNL     1       3.332  -1.813   1.520  0.00  0.00    -0.190 N 
ATOM      2  C   UNL     1       2.828  -2.066   0.294  0.00  0.00    +0.264 C 
ATOM      3  O   UNL     1       1.628  -2.034   0.093  0.00  0.00    -0.269 OA
ATOM      4  C   UNL     1       3.769  -2.383  -0.794  0.00  0.00    +0.102 C 
ATOM      5  C   UNL     1       3.324  -2.655  -2.082  0.00  0.00    +0.044 C 
ATOM      6  C   UNL     1       5.203  -2.404  -0.456  0.00  0.00    +0.257 C 
ATOM      7  O   UNL     1       6.040  -2.662  -1.300  0.00  0.00    -0.270 OA
ATOM      8  N   UNL     1       5.563  -2.125   0.814  0.00  0.00    -0.235 N 
ATOM      9  C   UNL     1       4.651  -1.845   1.755  0.00  0.00    +0.320 C 
ATOM     10  O   UNL     1       5.040  -1.607   2.882  0.00  0.00    -0.251 OA
ATOM     11  H   UNL     1       6.503  -2.131   1.052  0.00  0.00    +0.159 HD
ENDROOT
BRANCH   1  15
ATOM     12  C   UNL     1       0.723  -0.909   4.648  0.00  0.00    +0.138 A 
ATOM     13  C   UNL     1       1.581   0.065   4.157  0.00  0.00    +0.049 A 
ATOM     14  C   UNL     1       2.444  -0.234   3.121  0.00  0.00    +0.027 A 
ATOM     15  C   UNL     1       2.454  -1.509   2.572  0.00  0.00    +0.047 A 
ATOM     16  C   UNL     1       1.593  -2.482   3.059  0.00  0.00    +0.047 A 
ATOM     17  C   UNL     1       0.732  -2.183   4.099  0.00  0.00    +0.084 A 
ATOM     18 CL   UNL     1      -0.342  -3.401   4.713  0.00  0.00    -0.080 Cl
BRANCH  12  20
ATOM     19  C   UNL     1      -0.082   0.718   6.185  0.00  0.00    +0.277 C 
ATOM     20  O   UNL     1      -0.126  -0.614   5.668  0.00  0.00    -0.494 OA
ENDBRANCH  12  20
ENDBRANCH   1  15
BRANCH   5  21
ATOM     21  C   UNL     1       1.965  -2.499  -2.403  0.00  0.00    +0.043 A 
ATOM     22  C   UNL     1       1.095  -3.503  -2.813  0.00  0.00    +0.027 A 
ATOM     23  C   UNL     1      -0.144  -2.902  -3.027  0.00  0.00    +0.020 A 
ATOM     24  C   UNL     1      -0.022  -1.578  -2.748  0.00  0.00    +0.086 A 
ATOM     25  N   UNL     1       1.246  -1.322  -2.367  0.00  0.00    -0.343 N 
BRANCH  25  26
ATOM     26  C   UNL     1       1.774  -0.011  -1.983  0.00  0.00    +0.158 C 
BRANCH  26  27
ATOM     27  C   UNL     1       2.453   0.624  -3.169  0.00  0.00    -0.009 A 
ATOM     28  C   UNL     1       3.815   0.473  -3.349  0.00  0.00    +0.008 A 
ATOM     29  C   UNL     1       4.438   1.054  -4.437  0.00  0.00    +0.020 A 
ATOM     30  C   UNL     1       3.699   1.790  -5.346  0.00  0.00    +0.042 A 
ATOM     31  C   UNL     1       2.336   1.941  -5.168  0.00  0.00    +0.040 A 
ATOM     32  C   UNL     1       1.712   1.358  -4.079  0.00  0.00    +0.047 A 
ATOM     33 CL   UNL     1       0.001   1.547  -3.854  0.00  0.00    -0.083 Cl
ATOM     34 CL   UNL     1       4.481   2.520  -6.713  0.00  0.00    -0.083 Cl
ENDBRANCH  26  27
ENDBRANCH  25  26
ENDBRANCH   5  21
TORSDOF 5
