REMARK  Name = ZINC08962092
REMARK  10 active torsions:
REMARK  status: ('A' for Active; 'I' for Inactive)
REMARK    1  A    between atoms: C_1  and  C_2
REMARK    2  A    between atoms: C_2  and  C_3
REMARK    3  A    between atoms: C_10  and  N_16
REMARK    4  A    between atoms: N_16  and  S_17
REMARK    5  A    between atoms: S_17  and  C_20
REMARK    6  A    between atoms: C_21  and  C_30
REMARK    7  A    between atoms: C_22  and  C_29
REMARK    8  A    between atoms: C_23  and  C_28
REMARK    9  A    between atoms: C_24  and  C_27
REMARK   10  A    between atoms: C_25  and  C_26
REMARK                            x       y       z     vdW  Elec       q    Type
REMARK                         _______ _______ _______ _____ _____    ______ ____
ROOT
ATOM      1  N   UNL     1       2.522   3.282   2.212  0.00  0.00    -0.216 N 
ATOM      2  H   UNL     1       3.014   3.511   1.408  0.00  0.00    +0.174 HD
ENDROOT
BRANCH   1   9
ATOM      3  C   UNL     1       2.944   8.713   4.807  0.00  0.00    +0.110 C 
ATOM      4  C   UNL     1       1.819   8.424   5.792  0.00  0.00    +0.251 C 
ATOM      5  O   UNL     1       1.814   7.060   6.196  0.00  0.00    -0.489 OA
ATOM      6  C   UNL     1       1.976   6.125   5.224  0.00  0.00    +0.133 A 
ATOM      7  C   UNL     1       0.909   5.357   4.790  0.00  0.00    +0.048 A 
ATOM      8  C   UNL     1       1.093   4.422   3.791  0.00  0.00    +0.028 A 
ATOM      9  C   UNL     1       2.348   4.236   3.222  0.00  0.00    +0.049 A 
ATOM     10  C   UNL     1       3.426   4.996   3.647  0.00  0.00    +0.041 A 
ATOM     11  C   UNL     1       3.245   5.944   4.652  0.00  0.00    +0.080 A 
ATOM     12  C   UNL     1       4.371   6.766   5.135  0.00  0.00    +0.248 C 
ATOM     13  O   UNL     1       5.436   6.253   5.419  0.00  0.00    -0.270 OA
ATOM     14  N   UNL     1       4.197   8.104   5.256  0.00  0.00    -0.305 N 
ATOM     15  H   UNL     1       4.898   8.655   5.638  0.00  0.00    +0.149 HD
BRANCH   3  17
ATOM     16  C   UNL     1       3.721   8.383   2.456  0.00  0.00    +0.006 C 
ATOM     17  C   UNL     1       2.571   8.145   3.437  0.00  0.00    +0.022 C 
ENDBRANCH   3  17
ENDBRANCH   1   9
BRANCH   1  18
ATOM     18  S   UNL     1       1.889   1.762   2.391  0.00  0.00    +0.073 S 
ATOM     19  O   UNL     1       2.240   1.327   3.697  0.00  0.00    -0.150 OA
ATOM     20  O   UNL     1       2.244   1.034   1.224  0.00  0.00    -0.150 OA
BRANCH  18  21
ATOM     21  C   UNL     1       0.134   1.924   2.368  0.00  0.00    +0.115 A 
ATOM     22  C   UNL     1      -0.511   2.288   1.202  0.00  0.00    -0.020 A 
ATOM     23  C   UNL     1      -1.888   2.414   1.184  0.00  0.00    -0.043 A 
ATOM     24  C   UNL     1      -2.619   2.176   2.333  0.00  0.00    -0.044 A 
ATOM     25  C   UNL     1      -1.974   1.807   3.498  0.00  0.00    -0.043 A 
ATOM     26  C   UNL     1      -0.597   1.686   3.517  0.00  0.00    -0.020 A 
ATOM     27  C   UNL     1       0.107   1.289   4.789  0.00  0.00    +0.046 C 
ATOM     28  C   UNL     1      -2.771   1.542   4.749  0.00  0.00    +0.044 C 
ATOM     29  C   UNL     1      -4.119   2.314   2.313  0.00  0.00    +0.044 C 
ATOM     30  C   UNL     1      -2.592   2.810  -0.089  0.00  0.00    +0.044 C 
ATOM     31  C   UNL     1       0.285   2.546  -0.051  0.00  0.00    +0.046 C 
ENDBRANCH  18  21
ENDBRANCH   1  18
TORSDOF 4
