REMARK  Name = ZINC63204647
REMARK  11 active torsions:
REMARK  status: ('A' for Active; 'I' for Inactive)
REMARK    1  A    between atoms: C_1  and  C_2
REMARK    2  A    between atoms: N_4  and  C_5
REMARK    3  A    between atoms: C_8  and  C_11
REMARK    4  A    between atoms: C_11  and  C_12
REMARK    5  A    between atoms: N_14  and  C_15
REMARK    6  A    between atoms: C_15  and  C_16
REMARK    7  A    between atoms: C_16  and  C_18
REMARK    8  A    between atoms: C_16  and  C_27
REMARK    9  A    between atoms: C_21  and  N_24
REMARK   10  A    between atoms: N_24  and  C_25
REMARK   11  A    between atoms: N_24  and  C_26
REMARK                            x       y       z     vdW  Elec       q    Type
REMARK                         _______ _______ _______ _____ _____    ______ ____
ROOT
ATOM      1  C   UNL     1      -0.774 -10.013   3.608  0.00  0.00    +0.064 C 
ENDROOT
BRANCH   1   2
ATOM      2  C   UNL     1      -2.008 -10.619   2.990  0.00  0.00    -0.033 C 
ATOM      3  C   UNL     1      -2.058 -11.471   1.941  0.00  0.00    -0.000 A 
ATOM      4  C   UNL     1      -1.017 -12.065   1.093  0.00  0.00    +0.010 A 
ATOM      5  C   UNL     1      -1.383 -12.902   0.096  0.00  0.00    +0.001 A 
ATOM      6  C   UNL     1      -2.728 -13.215  -0.148  0.00  0.00    +0.002 A 
ATOM      7  C   UNL     1      -3.739 -12.709   0.589  0.00  0.00    +0.026 A 
ATOM      8  C   UNL     1      -3.470 -11.818   1.664  0.00  0.00    +0.043 A 
ATOM      9  N   UNL     1      -4.262 -11.204   2.509  0.00  0.00    -0.380 N 
ATOM     10  C   UNL     1      -3.441 -10.402   3.422  0.00  0.00    +0.145 C 
ATOM     11  H   UNL     1      -5.230 -11.272   2.529  0.00  0.00    +0.160 HD
ENDBRANCH   1   2
BRANCH   1  12
ATOM     12  C   UNL     1      -0.681 -10.426   5.054  0.00  0.00    -0.039 A 
ATOM     13  C   UNL     1      -1.698 -10.096   5.932  0.00  0.00    +0.006 A 
ATOM     14  C   UNL     1      -1.616 -10.474   7.258  0.00  0.00    +0.023 A 
ATOM     15  C   UNL     1      -0.511 -11.185   7.710  0.00  0.00    +0.029 A 
ATOM     16  C   UNL     1       0.508 -11.514   6.825  0.00  0.00    +0.023 A 
ATOM     17  C   UNL     1       0.417 -11.139   5.499  0.00  0.00    +0.006 A 
BRANCH  15  18
ATOM     18  N   UNL     1      -0.425 -11.568   9.050  0.00  0.00    -0.336 N 
ATOM     19  C   UNL     1      -1.548 -11.317   9.957  0.00  0.00    +0.129 C 
ATOM     20  C   UNL     1       0.788 -12.220   9.549  0.00  0.00    +0.129 C 
ENDBRANCH  15  18
ENDBRANCH   1  12
BRANCH   1  21
ATOM     21  C   UNL     1      -0.855  -8.487   3.518  0.00  0.00    +0.116 C 
BRANCH  21  24
ATOM     22  C   UNL     1      -0.885  -6.772   1.787  0.00  0.00    +0.217 C 
ATOM     23  O   UNL     1      -0.964  -5.934   2.660  0.00  0.00    -0.275 OA
ATOM     24  N   UNL     1      -0.825  -8.079   2.111  0.00  0.00    -0.314 N 
ATOM     25  H   UNL     1      -0.761  -8.750   1.413  0.00  0.00    +0.149 HD
BRANCH  22  26
ATOM     26  C   UNL     1      -0.854  -6.353   0.340  0.00  0.00    +0.130 C 
BRANCH  26  30
ATOM     27  C   UNL     1      -1.080  -2.092   0.088  0.00  0.00    +0.033 A 
ATOM     28  C   UNL     1       0.156  -2.720   0.174  0.00  0.00    +0.023 A 
ATOM     29  C   UNL     1       0.226  -4.096   0.255  0.00  0.00    +0.006 A 
ATOM     30  C   UNL     1      -0.933  -4.850   0.251  0.00  0.00    -0.039 A 
ATOM     31  C   UNL     1      -2.166  -4.229   0.165  0.00  0.00    +0.006 A 
ATOM     32  C   UNL     1      -2.242  -2.852   0.089  0.00  0.00    +0.023 A 
BRANCH  27  36
ATOM     33  C   UNL     1      -2.191   1.467   0.603  0.00  0.00    +0.109 C 
ATOM     34  C   UNL     1      -2.167  -0.040   0.603  0.00  0.00    +0.214 C 
ATOM     35  O   UNL     1      -3.059  -0.660   1.142  0.00  0.00    -0.276 OA
ATOM     36  N   UNL     1      -1.154  -0.697   0.005  0.00  0.00    -0.286 N 
ATOM     37  H   UNL     1      -0.476  -0.204  -0.483  0.00  0.00    +0.155 HD
ENDBRANCH  27  36
ENDBRANCH  26  30
ENDBRANCH  22  26
ENDBRANCH  21  24
ENDBRANCH   1  21
TORSDOF 8
