REMARK  Name = ZINC54390036
REMARK  6 active torsions:
REMARK  status: ('A' for Active; 'I' for Inactive)
REMARK    1  A    between atoms: C_1  and  C_2
REMARK    2  A    between atoms: C_2  and  C_4
REMARK    3  A    between atoms: C_2  and  N_16
REMARK    4  A    between atoms: N_6  and  C_7
REMARK    5  A    between atoms: C_24  and  N_25
REMARK    6  A    between atoms: C_26  and  C_28
REMARK                            x       y       z     vdW  Elec       q    Type
REMARK                         _______ _______ _______ _____ _____    ______ ____
ROOT
ATOM      1  N   UNL     1       0.087  -0.201   1.136  0.00  0.00    +0.390 N 
ATOM      2  C   UNL     1      -0.028  -1.658   0.978  0.00  0.00    -0.073 C 
ATOM      3  C   UNL     1       0.791  -2.334   2.078  0.00  0.00    +0.019 C 
ATOM      4  C   UNL     1       0.416  -1.758   3.420  0.00  0.00    -0.027 A 
ATOM      5  C   UNL     1      -0.269  -0.568   3.525  0.00  0.00    -0.059 A 
ATOM      6  C   UNL     1      -0.592  -0.068   4.778  0.00  0.00    +0.002 A 
ATOM      7  C   UNL     1      -0.235  -0.757   5.921  0.00  0.00    +0.002 A 
ATOM      8  C   UNL     1       0.449  -1.952   5.821  0.00  0.00    +0.023 A 
ATOM      9  C   UNL     1       0.776  -2.455   4.570  0.00  0.00    +0.037 A 
ATOM     10  C   UNL     1      -0.687   0.215   2.308  0.00  0.00    -0.042 C 
ATOM     11  H   UNL     1       1.056   0.051   1.264  0.00  0.00    -0.080 HD
ENDROOT
BRANCH   9  12
ATOM     12  N   UNL     1       1.470  -3.666   4.464  0.00  0.00    -0.285 N 
ATOM     13  C   UNL     1       2.190  -4.123   5.507  0.00  0.00    +0.214 C 
ATOM     14  O   UNL     1       2.317  -3.441   6.502  0.00  0.00    -0.276 OA
ATOM     15  C   UNL     1       2.839  -5.482   5.437  0.00  0.00    +0.109 C 
ATOM     16  H   UNL     1       1.432  -4.176   3.640  0.00  0.00    +0.155 HD
ENDBRANCH   9  12
BRANCH   1  18
ATOM     17  C   UNL     1      -0.329   1.983   0.108  0.00  0.00    -0.004 C 
ATOM     18  C   UNL     1      -0.439   0.467  -0.062  0.00  0.00    +0.017 C 
BRANCH  18  19
ATOM     19  C   UNL     1       0.359   0.038  -1.267  0.00  0.00    +0.203 C 
ATOM     20  O   UNL     1       1.275  -0.747  -1.140  0.00  0.00    -0.277 OA
ATOM     21  N   UNL     1       0.054   0.526  -2.486  0.00  0.00    -0.287 N 
ATOM     22  H   UNL     1      -0.726   1.092  -2.600  0.00  0.00    +0.155 HD
BRANCH  21  23
ATOM     23  C   UNL     1       0.862   0.216  -3.587  0.00  0.00    +0.037 A 
ATOM     24  C   UNL     1       0.296   0.082  -4.848  0.00  0.00    +0.027 A 
ATOM     25  C   UNL     1       1.093  -0.223  -5.935  0.00  0.00    +0.051 A 
ATOM     26  C   UNL     1       2.457  -0.397  -5.771  0.00  0.00    +0.166 A 
ATOM     27  C   UNL     1       3.028  -0.264  -4.507  0.00  0.00    +0.168 A 
ATOM     28  C   UNL     1       2.230   0.048  -3.419  0.00  0.00    +0.072 A 
ATOM     29  O   UNL     1       4.372  -0.481  -4.610  0.00  0.00    -0.453 OA
ATOM     30  C   UNL     1       4.558  -1.150  -5.871  0.00  0.00    +0.466 C 
ATOM     31  O   UNL     1       3.445  -0.699  -6.665  0.00  0.00    -0.453 OA
ENDBRANCH  21  23
ENDBRANCH  18  19
ENDBRANCH   1  18
TORSDOF 4
