REMARK  Name = ZINC63993980
REMARK  8 active torsions:
REMARK  status: ('A' for Active; 'I' for Inactive)
REMARK    1  A    between atoms: C_1  and  C_2
REMARK    2  A    between atoms: C_2  and  C_4
REMARK    3  A    between atoms: C_2  and  N_15
REMARK    4  A    between atoms: C_4  and  C_5
REMARK    5  A    between atoms: C_5  and  C_6
REMARK    6  A    between atoms: N_23  and  C_34
REMARK    7  A    between atoms: N_26  and  C_27
REMARK    8  A    between atoms: C_27  and  C_28
REMARK                            x       y       z     vdW  Elec       q    Type
REMARK                         _______ _______ _______ _____ _____    ______ ____
ROOT
ATOM      1  N   UNL     1      -1.366  -0.186  -0.076  0.00  0.00    +0.382 N 
ATOM      2  C   UNL     1      -2.104   0.080  -1.317  0.00  0.00    -0.076 C 
ATOM      3  C   UNL     1      -3.592  -0.205  -1.099  0.00  0.00    +0.017 C 
ATOM      4  C   UNL     1      -3.771  -1.660  -0.678  0.00  0.00    +0.112 C 
ATOM      5  C   UNL     1      -2.928  -1.964   0.557  0.00  0.00    +0.017 C 
ATOM      6  C   UNL     1      -1.466  -1.608   0.271  0.00  0.00    -0.076 C 
ATOM      7  C   UNL     1      -5.228  -1.959  -0.410  0.00  0.00    +0.246 C 
ATOM      8  O   UNL     1      -5.942  -1.444   0.423  0.00  0.00    -0.273 OA
ATOM      9  N   UNL     1      -5.566  -2.920  -1.295  0.00  0.00    -0.227 N 
ATOM     10  C   UNL     1      -4.531  -3.260  -2.073  0.00  0.00    +0.312 C 
ATOM     11  O   UNL     1      -4.590  -4.104  -2.946  0.00  0.00    -0.252 OA
ATOM     12  N   UNL     1      -3.417  -2.563  -1.779  0.00  0.00    -0.267 N 
ATOM     13  C   UNL     1      -6.901  -3.516  -1.392  0.00  0.00    +0.143 C 
ATOM     14  H   UNL     1      -1.756   0.370   0.670  0.00  0.00    -0.081 HD
ENDROOT
BRANCH   1  16
ATOM     15  C   UNL     1       0.158   1.667  -0.567  0.00  0.00    -0.013 C 
ATOM     16  C   UNL     1       0.047   0.172  -0.263  0.00  0.00    -0.071 C 
BRANCH  16  17
ATOM     17  C   UNL     1       0.827  -0.148   1.013  0.00  0.00    -0.011 C 
BRANCH  17  18
ATOM     18  C   UNL     1       2.308   0.170   0.799  0.00  0.00    +0.031 C 
BRANCH  18  19
ATOM     19  C   UNL     1       3.097  -0.271   2.005  0.00  0.00    -0.042 C 
ATOM     20  C   UNL     1       3.749  -1.445   2.166  0.00  0.00    -0.001 A 
ATOM     21  C   UNL     1       3.913  -2.619   1.299  0.00  0.00    +0.010 A 
ATOM     22  C   UNL     1       4.639  -3.668   1.746  0.00  0.00    +0.001 A 
ATOM     23  C   UNL     1       5.238  -3.664   3.014  0.00  0.00    +0.002 A 
ATOM     24  C   UNL     1       5.132  -2.623   3.866  0.00  0.00    +0.026 A 
ATOM     25  C   UNL     1       4.391  -1.465   3.499  0.00  0.00    +0.043 A 
ATOM     26  N   UNL     1       4.146  -0.347   4.138  0.00  0.00    -0.380 N 
ATOM     27  C   UNL     1       3.324   0.512   3.279  0.00  0.00    +0.144 C 
ATOM     28  H   UNL     1       4.459  -0.124   5.029  0.00  0.00    +0.160 HD
ENDBRANCH  18  19
ENDBRANCH  17  18
ENDBRANCH  16  17
ENDBRANCH   1  16
BRANCH  12  29
ATOM     29  C   UNL     1      -2.110  -2.682  -2.430  0.00  0.00    +0.145 C 
BRANCH  29  30
ATOM     30  C   UNL     1      -1.597  -4.090  -2.273  0.00  0.00    -0.030 A 
ATOM     31  C   UNL     1      -0.943  -4.462  -1.113  0.00  0.00    +0.005 A 
ATOM     32  C   UNL     1      -0.472  -5.754  -0.968  0.00  0.00    +0.000 A 
ATOM     33  C   UNL     1      -0.656  -6.674  -1.983  0.00  0.00    +0.000 A 
ATOM     34  C   UNL     1      -1.311  -6.303  -3.142  0.00  0.00    +0.000 A 
ATOM     35  C   UNL     1      -1.785  -5.012  -3.285  0.00  0.00    +0.005 A 
ENDBRANCH  29  30
ENDBRANCH  12  29
TORSDOF 6
