REMARK  Name = ZINC40735324
REMARK  6 active torsions:
REMARK  status: ('A' for Active; 'I' for Inactive)
REMARK    1  A    between atoms: C_1  and  C_2
REMARK    2  A    between atoms: C_7  and  C_9
REMARK    3  A    between atoms: C_7  and  C_10
REMARK    4  A    between atoms: C_14  and  N_32
REMARK    5  A    between atoms: C_15  and  N_19
REMARK    6  A    between atoms: N_22  and  C_25
REMARK                            x       y       z     vdW  Elec       q    Type
REMARK                         _______ _______ _______ _____ _____    ______ ____
ROOT
ATOM      1  C   UNL     1       0.478   0.446   1.519  0.00  0.00    +0.013 C 
ATOM      2  C   UNL     1       0.055  -1.028   1.427  0.00  0.00    -0.014 C 
ATOM      3  C   UNL     1       0.995  -1.856   0.508  0.00  0.00    +0.030 C 
ATOM      4  C   UNL     1       0.078  -3.074   0.231  0.00  0.00    +0.076 C 
ATOM      5  C   UNL     1       0.081  -3.937   1.490  0.00  0.00    +0.029 C 
ATOM      6  C   UNL     1      -0.335  -3.192   2.745  0.00  0.00    -0.033 C 
ATOM      7  C   UNL     1       0.024  -1.719   2.789  0.00  0.00    +0.014 C 
ATOM      8  C   UNL     1      -1.840  -3.376   2.985  0.00  0.00    +0.011 C 
ATOM      9  C   UNL     1       0.383  -3.873   3.938  0.00  0.00    +0.011 C 
ATOM     10  N   UNL     1      -1.269  -2.499   0.041  0.00  0.00    -0.310 N 
ATOM     11  C   UNL     1      -1.316  -1.203   0.735  0.00  0.00    +0.113 C 
ATOM     12  C   UNL     1      -2.309  -3.075  -0.677  0.00  0.00    +0.147 A 
ATOM     13  C   UNL     1      -3.580  -2.497  -0.672  0.00  0.00    +0.106 A 
ATOM     14  C   UNL     1      -4.589  -3.116  -1.411  0.00  0.00    +0.147 A 
ATOM     15  N   UNL     1      -4.304  -4.226  -2.088  0.00  0.00    -0.219 NA
ATOM     16  C   UNL     1      -3.091  -4.740  -2.066  0.00  0.00    +0.225 A 
ATOM     17  N   UNL     1      -2.109  -4.184  -1.385  0.00  0.00    -0.219 NA
ENDROOT
BRANCH  14  18
ATOM     18  N   UNL     1      -5.872  -2.582  -1.440  0.00  0.00    -0.311 N 
ATOM     19  C   UNL     1      -6.258  -1.618  -2.480  0.00  0.00    +0.125 C 
ATOM     20  C   UNL     1      -7.504  -2.146  -3.200  0.00  0.00    +0.124 C 
ATOM     21  N   UNL     1      -8.500  -2.536  -2.191  0.00  0.00    -0.327 N 
ATOM     22  C   UNL     1      -8.114  -3.500  -1.151  0.00  0.00    +0.124 C 
ATOM     23  C   UNL     1      -6.869  -2.976  -0.434  0.00  0.00    +0.125 C 
BRANCH  21  24
ATOM     24  C   UNL     1      -9.790  -1.998  -2.220  0.00  0.00    +0.030 A 
ATOM     25  C   UNL     1     -10.753  -2.454  -1.329  0.00  0.00    +0.026 A 
ATOM     26  C   UNL     1     -12.027  -1.921  -1.359  0.00  0.00    +0.040 A 
ATOM     27  C   UNL     1     -12.345  -0.934  -2.277  0.00  0.00    +0.124 A 
ATOM     28  C   UNL     1     -11.386  -0.478  -3.166  0.00  0.00    +0.040 A 
ATOM     29  C   UNL     1     -10.109  -1.004  -3.136  0.00  0.00    +0.026 A 
ATOM     30  F   UNL     1     -13.591  -0.415  -2.305  0.00  0.00    -0.205 F 
ENDBRANCH  21  24
ENDBRANCH  14  18
BRANCH  13  31
ATOM     31  N   UNL     1      -3.836  -1.324   0.057  0.00  0.00    -0.353 N 
ATOM     32  H   UNL     1      -3.153  -0.639   0.129  0.00  0.00    +0.143 HD
ATOM     33  H   UNL     1      -4.696  -1.198   0.488  0.00  0.00    +0.143 HD
ENDBRANCH  13  31
TORSDOF 3
