REMARK  Name = ZINC63920245
REMARK  8 active torsions:
REMARK  status: ('A' for Active; 'I' for Inactive)
REMARK    1  A    between atoms: C_4  and  C_7
REMARK    2  A    between atoms: C_7  and  C_8
REMARK    3  A    between atoms: C_8  and  C_10
REMARK    4  A    between atoms: C_8  and  N_32
REMARK    5  A    between atoms: N_12  and  C_13
REMARK    6  A    between atoms: C_13  and  C_14
REMARK    7  A    between atoms: C_14  and  C_16
REMARK    8  A    between atoms: C_14  and  C_23
REMARK                            x       y       z     vdW  Elec       q    Type
REMARK                         _______ _______ _______ _____ _____    ______ ____
ROOT
ATOM      1  C   UNL     1       5.422  -1.804   1.383  0.00  0.00    +0.234 C 
ATOM      2  O   UNL     1       6.506  -1.282   1.528  0.00  0.00    -0.274 OA
ATOM      3  N   UNL     1       5.334  -3.138   1.209  0.00  0.00    -0.313 N 
ATOM      4  H   UNL     1       4.467  -3.557   1.094  0.00  0.00    +0.149 HD
ENDROOT
BRANCH   1   5
ATOM      5  C   UNL     1       4.171  -0.963   1.399  0.00  0.00    +0.165 C 
BRANCH   5   6
ATOM      6  N   UNL     1       4.451   0.315   2.057  0.00  0.00    -0.288 N 
ATOM      7  C   UNL     1       5.392   1.140   1.556  0.00  0.00    +0.298 C 
ATOM      8  O   UNL     1       6.009   0.822   0.557  0.00  0.00    -0.253 OA
ATOM      9  N   UNL     1       5.649   2.316   2.162  0.00  0.00    -0.313 N 
ATOM     10  H   UNL     1       3.959   0.568   2.854  0.00  0.00    +0.151 HD
ATOM     11  H   UNL     1       5.157   2.569   2.959  0.00  0.00    +0.146 HD
ATOM     12  H   UNL     1       6.327   2.909   1.801  0.00  0.00    +0.146 HD
ENDBRANCH   5   6
BRANCH   5  13
ATOM     13  C   UNL     1       3.711  -0.707  -0.038  0.00  0.00    +0.067 C 
BRANCH  13  17
ATOM     14  C   UNL     1      -0.017   1.378   0.010  0.00  0.00    +0.000 A 
ATOM     15  C   UNL     1       1.171   2.086   0.002  0.00  0.00    +0.000 A 
ATOM     16  C   UNL     1       2.377   1.411  -0.013  0.00  0.00    +0.004 A 
ATOM     17  C   UNL     1       2.396   0.029  -0.020  0.00  0.00    -0.045 A 
ATOM     18  C   UNL     1       1.208  -0.679  -0.012  0.00  0.00    +0.004 A 
ATOM     19  C   UNL     1       0.002  -0.004   0.002  0.00  0.00    +0.000 A 
ENDBRANCH  13  17
ENDBRANCH   5  13
ENDBRANCH   1   5
BRANCH   3  20
ATOM     20  C   UNL     1       6.550  -3.956   1.194  0.00  0.00    +0.116 C 
BRANCH  20  21
ATOM     21  C   UNL     1       6.174  -5.424   0.982  0.00  0.00    +0.066 C 
BRANCH  21  22
ATOM     22  C   UNL     1       7.428  -6.248   0.844  0.00  0.00    -0.033 C 
ATOM     23  C   UNL     1       7.795  -6.998  -0.221  0.00  0.00    -0.000 A 
ATOM     24  C   UNL     1       7.161  -7.260  -1.518  0.00  0.00    +0.010 A 
ATOM     25  C   UNL     1       7.785  -8.074  -2.400  0.00  0.00    +0.001 A 
ATOM     26  C   UNL     1       9.018  -8.672  -2.107  0.00  0.00    +0.002 A 
ATOM     27  C   UNL     1       9.662  -8.479  -0.936  0.00  0.00    +0.026 A 
ATOM     28  C   UNL     1       9.098  -7.641   0.065  0.00  0.00    +0.043 A 
ATOM     29  N   UNL     1       9.519  -7.302   1.259  0.00  0.00    -0.380 N 
ATOM     30  C   UNL     1       8.534  -6.400   1.865  0.00  0.00    +0.145 C 
ATOM     31  H   UNL     1      10.347  -7.596   1.672  0.00  0.00    +0.160 HD
ENDBRANCH  21  22
BRANCH  21  32
ATOM     32  C   UNL     1       5.378  -5.914   2.164  0.00  0.00    -0.020 A 
ATOM     33  C   UNL     1       5.932  -5.886   3.430  0.00  0.00    +0.006 A 
ATOM     34  C   UNL     1       5.202  -6.336   4.515  0.00  0.00    +0.000 A 
ATOM     35  C   UNL     1       3.918  -6.814   4.333  0.00  0.00    +0.001 A 
ATOM     36  C   UNL     1       3.363  -6.843   3.068  0.00  0.00    +0.020 A 
ATOM     37  C   UNL     1       4.091  -6.388   1.983  0.00  0.00    +0.045 A 
ATOM     38 CL   UNL     1       3.393  -6.418   0.394  0.00  0.00    -0.083 Cl
ENDBRANCH  21  32
ENDBRANCH  20  21
ENDBRANCH   3  20
TORSDOF 8
