REMARK  Name = ZINC03621808
REMARK  15 active torsions:
REMARK  status: ('A' for Active; 'I' for Inactive)
REMARK    1  A    between atoms: C_1  and  C_2
REMARK    2  A    between atoms: C_5  and  O_39
REMARK    3  A    between atoms: C_6  and  N_8
REMARK    4  A    between atoms: C_9  and  C_11
REMARK    5  A    between atoms: C_15  and  O_37
REMARK    6  A    between atoms: C_16  and  O_35
REMARK    7  A    between atoms: N_21  and  C_34
REMARK    8  A    between atoms: C_22  and  C_24
REMARK    9  A    between atoms: C_27  and  O_32
REMARK   10  A    between atoms: C_28  and  O_30
REMARK   11  A    between atoms: O_30  and  C_31
REMARK   12  A    between atoms: O_32  and  C_33
REMARK   13  A    between atoms: O_35  and  C_36
REMARK   14  A    between atoms: O_37  and  C_38
REMARK   15  A    between atoms: O_39  and  C_40
REMARK                            x       y       z     vdW  Elec       q    Type
REMARK                         _______ _______ _______ _____ _____    ______ ____
ROOT
ATOM      1  C   UNL     1      -1.666  -1.405   1.663  0.00  0.00    +0.131 C 
ATOM      2  C   UNL     1      -1.244  -2.666   2.371  0.00  0.00    -0.018 A 
ATOM      3  C   UNL     1      -1.378  -2.781   3.737  0.00  0.00    +0.054 A 
ATOM      4  C   UNL     1      -0.999  -3.954   4.375  0.00  0.00    +0.162 A 
ATOM      5  C   UNL     1      -0.483  -5.020   3.639  0.00  0.00    +0.162 A 
ATOM      6  C   UNL     1      -0.341  -4.909   2.269  0.00  0.00    +0.062 A 
ATOM      7  C   UNL     1      -0.716  -3.726   1.630  0.00  0.00    +0.045 A 
ATOM      8  C   UNL     1      -0.540  -3.565   0.173  0.00  0.00    +0.247 C 
ATOM      9  O   UNL     1      -0.305  -4.531  -0.527  0.00  0.00    -0.270 OA
ATOM     10  N   UNL     1      -0.644  -2.339  -0.373  0.00  0.00    -0.292 N 
ATOM     11  C   UNL     1      -0.756  -1.147   0.465  0.00  0.00    +0.122 C 
ATOM     12  C   UNL     1      -0.645  -2.197  -1.831  0.00  0.00    +0.133 C 
ENDROOT
BRANCH  11  13
ATOM     13  C   UNL     1       0.614  -0.758   0.958  0.00  0.00    -0.022 A 
ATOM     14  C   UNL     1       1.498  -1.734   1.380  0.00  0.00    +0.009 A 
ATOM     15  C   UNL     1       2.756  -1.383   1.833  0.00  0.00    +0.050 A 
ATOM     16  C   UNL     1       3.134  -0.050   1.865  0.00  0.00    +0.162 A 
ATOM     17  C   UNL     1       2.244   0.932   1.440  0.00  0.00    +0.162 A 
ATOM     18  C   UNL     1       0.985   0.573   0.987  0.00  0.00    +0.055 A 
BRANCH  17  19
ATOM     19  O   UNL     1       2.610   2.241   1.470  0.00  0.00    -0.491 OA
ATOM     20  C   UNL     1       1.646   3.195   1.018  0.00  0.00    +0.277 C 
ENDBRANCH  17  19
BRANCH  16  21
ATOM     21  O   UNL     1       4.370   0.297   2.311  0.00  0.00    -0.491 OA
ATOM     22  C   UNL     1       5.230  -0.764   2.731  0.00  0.00    +0.277 C 
ENDBRANCH  16  21
ENDBRANCH  11  13
BRANCH   1  24
ATOM     23  N   UNL     1      -2.510   0.730   2.584  0.00  0.00    -0.282 N 
ATOM     24  C   UNL     1      -1.577  -0.242   2.617  0.00  0.00    +0.227 C 
ATOM     25  O   UNL     1      -0.665  -0.181   3.416  0.00  0.00    -0.275 OA
ATOM     26  H   UNL     1      -3.281   0.641   2.003  0.00  0.00    +0.155 HD
BRANCH  23  32
ATOM     27  C   UNL     1       0.377   3.698   5.237  0.00  0.00    +0.044 C 
ATOM     28  C   UNL     1      -0.978   3.331   4.688  0.00  0.00    -0.048 A 
ATOM     29  C   UNL     1      -2.077   4.118   4.978  0.00  0.00    +0.007 A 
ATOM     30  C   UNL     1      -3.322   3.786   4.477  0.00  0.00    +0.048 A 
ATOM     31  C   UNL     1      -3.470   2.665   3.677  0.00  0.00    +0.141 A 
ATOM     32  C   UNL     1      -2.365   1.868   3.389  0.00  0.00    +0.076 A 
ATOM     33  C   UNL     1      -1.119   2.207   3.895  0.00  0.00    +0.030 A 
BRANCH  31  34
ATOM     34  O   UNL     1      -4.693   2.340   3.179  0.00  0.00    -0.493 OA
ATOM     35  C   UNL     1      -5.781   3.203   3.516  0.00  0.00    +0.277 C 
ENDBRANCH  31  34
ENDBRANCH  23  32
ENDBRANCH   1  24
BRANCH   5  36
ATOM     36  O   UNL     1      -0.120  -6.169   4.269  0.00  0.00    -0.491 OA
ATOM     37  C   UNL     1       0.400  -7.220   3.453  0.00  0.00    +0.277 C 
ENDBRANCH   5  36
BRANCH   4  38
ATOM     38  O   UNL     1      -1.131  -4.064   5.723  0.00  0.00    -0.491 OA
ATOM     39  C   UNL     1      -1.666  -2.934   6.416  0.00  0.00    +0.277 C 
ENDBRANCH   4  38
TORSDOF 8
