REMARK  Name = ZINC04307962
REMARK  10 active torsions:
REMARK  status: ('A' for Active; 'I' for Inactive)
REMARK    1  A    between atoms: C_1  and  C_2
REMARK    2  A    between atoms: C_6  and  N_9
REMARK    3  A    between atoms: C_10  and  C_12
REMARK    4  A    between atoms: C_12  and  N_13
REMARK    5  A    between atoms: C_16  and  C_20
REMARK    6  A    between atoms: C_16  and  C_21
REMARK    7  A    between atoms: C_21  and  C_22
REMARK    8  A    between atoms: C_22  and  C_23
REMARK    9  A    between atoms: C_23  and  C_24
REMARK   10  A    between atoms: C_23  and  C_25
REMARK                            x       y       z     vdW  Elec       q    Type
REMARK                         _______ _______ _______ _____ _____    ______ ____
ROOT
ATOM      1  C   UNL     1      -1.817   5.910   1.097  0.00  0.00    +0.214 C 
ENDROOT
BRANCH   1   2
ATOM      2  N   UNL     1      -0.382   6.047   0.833  0.00  0.00    -0.215 N 
ATOM      3  C   UNL     1       0.185   7.135   0.267  0.00  0.00    +0.247 C 
ATOM      4  O   UNL     1      -0.373   8.145  -0.106  0.00  0.00    -0.273 OA
ATOM      5  C   UNL     1       1.667   6.828   0.194  0.00  0.00    +0.110 C 
ATOM      6  N   UNL     1       1.775   5.482   0.783  0.00  0.00    -0.285 N 
ATOM      7  C   UNL     1       0.528   5.111   1.125  0.00  0.00    +0.310 C 
ATOM      8  O   UNL     1       0.259   4.044   1.641  0.00  0.00    -0.252 OA
ATOM      9  C   UNL     1       2.144   6.819  -1.260  0.00  0.00    +0.041 C 
ATOM     10  H   UNL     1       2.587   4.965   0.901  0.00  0.00    +0.151 HD
BRANCH   5  11
ATOM     11  C   UNL     1       2.468   7.841   1.015  0.00  0.00    +0.035 C 
BRANCH  11  12
ATOM     12  C   UNL     1       3.953   7.476   0.967  0.00  0.00    +0.005 C 
BRANCH  12  13
ATOM     13  C   UNL     1       4.753   8.489   1.788  0.00  0.00    -0.017 C 
ATOM     14  C   UNL     1       4.357   8.378   3.262  0.00  0.00    +0.007 C 
ATOM     15  C   UNL     1       6.248   8.199   1.639  0.00  0.00    +0.007 C 
ENDBRANCH  12  13
ENDBRANCH  11  12
ENDBRANCH   5  11
ENDBRANCH   1   2
BRANCH   1  17
ATOM     16  N   UNL     1      -3.393   6.417   2.934  0.00  0.00    -0.282 N 
ATOM     17  C   UNL     1      -2.127   6.441   2.473  0.00  0.00    +0.235 C 
ATOM     18  O   UNL     1      -1.237   6.888   3.165  0.00  0.00    -0.274 OA
ATOM     19  H   UNL     1      -4.115   6.128   2.355  0.00  0.00    +0.155 HD
BRANCH  16  25
ATOM     20  C   UNL     1      -3.840   5.260   7.694  0.00  0.00    +0.045 C 
ATOM     21  C   UNL     1      -3.890   6.271   6.577  0.00  0.00    -0.030 A 
ATOM     22  C   UNL     1      -4.207   7.588   6.851  0.00  0.00    +0.006 A 
ATOM     23  C   UNL     1      -4.253   8.519   5.830  0.00  0.00    +0.022 A 
ATOM     24  C   UNL     1      -3.984   8.134   4.529  0.00  0.00    +0.064 A 
ATOM     25  C   UNL     1      -3.666   6.811   4.250  0.00  0.00    +0.071 A 
ATOM     26  C   UNL     1      -3.625   5.878   5.279  0.00  0.00    +0.066 A 
ATOM     27 CL   UNL     1      -3.236   4.221   4.934  0.00  0.00    -0.081 Cl
ATOM     28 CL   UNL     1      -4.043   9.303   3.247  0.00  0.00    -0.082 Cl
ENDBRANCH  16  25
ENDBRANCH   1  17
TORSDOF 6
