REMARK  Name = ZINC24174590
REMARK  11 active torsions:
REMARK  status: ('A' for Active; 'I' for Inactive)
REMARK    1  A    between atoms: C_1  and  C_2
REMARK    2  A    between atoms: C_5  and  C_9
REMARK    3  A    between atoms: C_7  and  C_8
REMARK    4  A    between atoms: C_9  and  C_11
REMARK    5  A    between atoms: C_9  and  N_12
REMARK    6  A    between atoms: C_13  and  C_15
REMARK    7  A    between atoms: C_15  and  S_16
REMARK    8  A    between atoms: S_16  and  C_17
REMARK    9  A    between atoms: C_20  and  C_23
REMARK   10  A    between atoms: N_21  and  N_22
REMARK   11  A    between atoms: C_27  and  C_28
REMARK                            x       y       z     vdW  Elec       q    Type
REMARK                         _______ _______ _______ _____ _____    ______ ____
ROOT
ATOM      1  C   UNL     1      -0.013   1.086   0.008  0.00  0.00    +0.173 C 
ENDROOT
BRANCH   1   3
ATOM      2  N   UNL     1      -0.242   1.246   2.466  0.00  0.00    -0.308 N 
ATOM      3  C   UNL     1      -0.718   1.572   1.248  0.00  0.00    +0.224 C 
ATOM      4  O   UNL     1      -1.714   2.256   1.150  0.00  0.00    -0.275 OA
ATOM      5  H   UNL     1       0.662   0.625   2.555  0.00  0.00    +0.149 HD
BRANCH   2   6
ATOM      6  C   UNL     1      -0.927   1.718   3.671  0.00  0.00    +0.100 C 
ATOM      7  C   UNL     1      -2.065   0.757   4.021  0.00  0.00    +0.033 C 
BRANCH   6  12
ATOM      8  C   UNL     1       2.825   1.940   8.060  0.00  0.00    +0.044 C 
ATOM      9  C   UNL     1       1.846   1.882   6.916  0.00  0.00    -0.048 A 
ATOM     10  C   UNL     1       1.888   0.827   6.023  0.00  0.00    +0.004 A 
ATOM     11  C   UNL     1       0.988   0.772   4.976  0.00  0.00    +0.006 A 
ATOM     12  C   UNL     1       0.051   1.776   4.816  0.00  0.00    -0.027 A 
ATOM     13  C   UNL     1       0.008   2.830   5.709  0.00  0.00    +0.009 A 
ATOM     14  C   UNL     1       0.906   2.883   6.759  0.00  0.00    -0.047 A 
ATOM     15  C   UNL     1       0.860   4.032   7.733  0.00  0.00    +0.044 C 
ENDBRANCH   6  12
ENDBRANCH   2   6
ENDBRANCH   1   3
BRANCH   1  16
ATOM     16  S   UNL     1      -0.888   1.685  -1.458  0.00  0.00    -0.075 S 
BRANCH  16  17
ATOM     17  C   UNL     1       0.122   0.990  -2.724  0.00  0.00    +0.209 A 
ATOM     18  N   UNL     1       1.194   0.253  -2.547  0.00  0.00    -0.121 NA
ATOM     19  N   UNL     1       1.688  -0.087  -3.683  0.00  0.00    -0.127 NA
ATOM     20  C   UNL     1       0.962   0.411  -4.656  0.00  0.00    +0.185 A 
ATOM     21  N   UNL     1      -0.068   1.112  -4.072  0.00  0.00    -0.224 N 
BRANCH  20  22
ATOM     22  C   UNL     1       1.201   0.246  -6.106  0.00  0.00    +0.061 A 
ATOM     23  C   UNL     1       0.398   0.797  -7.206  0.00  0.00    +0.053 A 
ATOM     24  C   UNL     1       0.992   0.388  -8.339  0.00  0.00    +0.196 A 
ATOM     25  O   UNL     1       2.068  -0.350  -8.028  0.00  0.00    -0.467 OA
ATOM     26  C   UNL     1       2.213  -0.443  -6.698  0.00  0.00    +0.112 A 
ATOM     27  C   UNL     1       3.310  -1.188  -5.981  0.00  0.00    +0.087 C 
ENDBRANCH  20  22
BRANCH  21  28
ATOM     28  N   UNL     1      -1.069   1.791  -4.707  0.00  0.00    -0.295 N 
ATOM     29  H   UNL     1      -1.108   1.812  -5.806  0.00  0.00    +0.163 HD
ATOM     30  H   UNL     1      -1.835   2.317  -4.119  0.00  0.00    +0.163 HD
ENDBRANCH  21  28
ENDBRANCH  16  17
ENDBRANCH   1  16
TORSDOF 7
