REMARK  Name = ZINC07333672
REMARK  3 active torsions:
REMARK  status: ('A' for Active; 'I' for Inactive)
REMARK    1  A    between atoms: C_5  and  C_7
REMARK    2  A    between atoms: C_8  and  C_9
REMARK    3  A    between atoms: C_9  and  C_11
REMARK                            x       y       z     vdW  Elec       q    Type
REMARK                         _______ _______ _______ _____ _____    ______ ____
ROOT
ATOM      1  C   UNL     1       1.157   3.178   0.008  0.00  0.00    +0.024 A 
ATOM      2  C   UNL     1       1.172   1.780   0.000  0.00  0.00    +0.015 A 
ATOM      3  C   UNL     1      -0.013   1.076   0.008  0.00  0.00    +0.048 A 
ATOM      4  C   UNL     1      -1.224   1.752   0.017  0.00  0.00    +0.142 A 
ATOM      5  C   UNL     1      -1.246   3.149   0.031  0.00  0.00    +0.076 A 
ATOM      6  C   UNL     1      -0.063   3.861   0.023  0.00  0.00    +0.038 A 
ATOM      7  N   UNL     1      -2.481   3.815   0.044  0.00  0.00    -0.280 N 
ATOM      8  C   UNL     1      -3.596   3.121   0.350  0.00  0.00    +0.255 C 
ATOM      9  O   UNL     1      -4.678   3.668   0.335  0.00  0.00    -0.272 OA
ATOM     10  C   UNL     1      -3.489   1.664   0.723  0.00  0.00    +0.325 C 
ATOM     11  O   UNL     1      -2.397   1.067   0.021  0.00  0.00    -0.481 OA
ATOM     12  H   UNL     1      -2.534   4.758  -0.174  0.00  0.00    +0.155 HD
ENDROOT
BRANCH   1  13
ATOM     13  C   UNL     1       2.427   3.932  -0.001  0.00  0.00    +0.186 C 
ATOM     14  O   UNL     1       2.412   5.149   0.005  0.00  0.00    -0.287 OA
BRANCH  13  16
ATOM     15  C   UNL     1       4.863   3.905  -0.026  0.00  0.00    +0.013 C 
ATOM     16  C   UNL     1       3.702   3.216  -0.018  0.00  0.00    +0.052 C 
BRANCH  15  21
ATOM     17  C   UNL     1       7.373   1.119  -0.065  0.00  0.00    +0.001 A 
ATOM     18  C   UNL     1       8.562   1.829  -0.073  0.00  0.00    +0.001 A 
ATOM     19  C   UNL     1       8.550   3.212  -0.066  0.00  0.00    +0.016 A 
ATOM     20  C   UNL     1       7.351   3.896  -0.057  0.00  0.00    +0.025 A 
ATOM     21  C   UNL     1       6.146   3.185  -0.042  0.00  0.00    -0.011 A 
ATOM     22  C   UNL     1       6.167   1.786  -0.050  0.00  0.00    +0.009 A 
ATOM     23 BR   UNL     1       7.338   5.787  -0.055  0.00  0.00    -0.050 Br
ENDBRANCH  15  21
ENDBRANCH  13  16
ENDBRANCH   1  13
TORSDOF 3
