REMARK  Name = ZINC28658602
REMARK  7 active torsions:
REMARK  status: ('A' for Active; 'I' for Inactive)
REMARK    1  A    between atoms: C_1  and  C_2
REMARK    2  A    between atoms: C_2  and  C_3
REMARK    3  A    between atoms: C_3  and  C_23
REMARK    4  A    between atoms: N_6  and  N_10
REMARK    5  A    between atoms: C_11  and  C_13
REMARK    6  A    between atoms: C_13  and  N_14
REMARK    7  A    between atoms: N_14  and  C_15
REMARK                            x       y       z     vdW  Elec       q    Type
REMARK                         _______ _______ _______ _____ _____    ______ ____
ROOT
ATOM      1  N   UNL     1      -2.344  -3.611  -1.728  0.00  0.00    -0.222 N 
ATOM      2  C   UNL     1      -3.573  -4.155  -1.626  0.00  0.00    +0.247 C 
ATOM      3  O   UNL     1      -4.475  -3.525  -1.116  0.00  0.00    -0.273 OA
ATOM      4  H   UNL     1      -1.623  -4.115  -2.136  0.00  0.00    +0.174 HD
ENDROOT
BRANCH   1   8
ATOM      5  C   UNL     1      -1.433  -0.534   0.013  0.00  0.00    +0.111 C 
ATOM      6  C   UNL     1      -1.445  -2.045  -0.103  0.00  0.00    +0.263 C 
ATOM      7  O   UNL     1      -0.960  -2.843   0.670  0.00  0.00    -0.271 OA
ATOM      8  N   UNL     1      -2.108  -2.317  -1.245  0.00  0.00    -0.137 N 
ATOM      9  C   UNL     1      -2.513  -1.200  -1.859  0.00  0.00    +0.326 C 
ATOM     10  O   UNL     1      -3.131  -1.190  -2.906  0.00  0.00    -0.251 OA
ATOM     11  N   UNL     1      -2.159  -0.088  -1.189  0.00  0.00    -0.284 N 
ATOM     12  C   UNL     1      -2.162  -0.082   1.280  0.00  0.00    +0.041 C 
ATOM     13  H   UNL     1      -2.346   0.828  -1.447  0.00  0.00    +0.151 HD
BRANCH   5  15
ATOM     14  C   UNL     1      -0.019   1.526   0.010  0.00  0.00    +0.006 C 
ATOM     15  C   UNL     1       0.002  -0.004   0.002  0.00  0.00    +0.032 C 
ENDBRANCH   5  15
ENDBRANCH   1   8
BRANCH   2  16
ATOM     16  C   UNL     1      -3.826  -5.546  -2.147  0.00  0.00    +0.199 C 
BRANCH  16  17
ATOM     17  N   UNL     1      -5.229  -5.905  -1.920  0.00  0.00    -0.334 N 
ATOM     18  H   UNL     1      -5.827  -5.273  -1.491  0.00  0.00    +0.147 HD
BRANCH  17  19
ATOM     19  C   UNL     1      -5.705  -7.157  -2.321  0.00  0.00    +0.046 A 
ATOM     20  C   UNL     1      -4.847  -8.064  -2.930  0.00  0.00    +0.027 A 
ATOM     21  C   UNL     1      -5.319  -9.301  -3.325  0.00  0.00    +0.040 A 
ATOM     22  C   UNL     1      -6.646  -9.637  -3.116  0.00  0.00    +0.125 A 
ATOM     23  C   UNL     1      -7.503  -8.734  -2.510  0.00  0.00    +0.060 A 
ATOM     24  C   UNL     1      -7.034  -7.498  -2.106  0.00  0.00    +0.064 A 
ATOM     25 CL   UNL     1      -8.108  -6.370  -1.339  0.00  0.00    -0.082 Cl
ATOM     26  F   UNL     1      -7.105 -10.846  -3.505  0.00  0.00    -0.205 F 
ENDBRANCH  17  19
ENDBRANCH  16  17
ENDBRANCH   2  16
TORSDOF 5
