REMARK  Name = ZINC38705238
REMARK  11 active torsions:
REMARK  status: ('A' for Active; 'I' for Inactive)
REMARK    1  A    between atoms: C_1  and  C_2
REMARK    2  A    between atoms: C_4  and  C_37
REMARK    3  A    between atoms: C_5  and  C_9
REMARK    4  A    between atoms: C_6  and  O_8
REMARK    5  A    between atoms: N_17  and  C_34
REMARK    6  A    between atoms: C_18  and  C_20
REMARK    7  A    between atoms: C_23  and  O_26
REMARK    8  A    between atoms: O_26  and  C_27
REMARK    9  A    between atoms: C_27  and  C_28
REMARK   10  A    between atoms: C_34  and  C_35
REMARK   11  A    between atoms: C_35  and  O_36
REMARK                            x       y       z     vdW  Elec       q    Type
REMARK                         _______ _______ _______ _____ _____    ______ ____
ROOT
ATOM      1  C   UNL     1       0.528  -4.235   0.040  0.00  0.00    +0.102 A 
ATOM      2  C   UNL     1       0.350  -5.102   1.123  0.00  0.00    +0.035 A 
ATOM      3  C   UNL     1       0.614  -6.369   0.639  0.00  0.00    +0.126 A 
ATOM      4  N   UNL     1       0.932  -6.212  -0.681  0.00  0.00    -0.272 N 
ATOM      5  H   UNL     1       1.165  -6.933  -1.286  0.00  0.00    +0.189 HD
ATOM      6  N   UNL     1       0.868  -4.969  -1.002  0.00  0.00    -0.173 NA
ATOM      7  C   UNL     1       0.444  -7.332   1.733  0.00  0.00    +0.266 C 
ATOM      8  O   UNL     1       0.604  -8.533   1.632  0.00  0.00    -0.268 OA
ATOM      9  N   UNL     1       0.086  -6.697   2.864  0.00  0.00    -0.283 N 
ATOM     10  C   UNL     1      -0.002  -5.259   2.577  0.00  0.00    +0.141 C 
ENDROOT
BRANCH   1  15
ATOM     11  C   UNL     1      -0.126   1.490   0.104  0.00  0.00    +0.044 C 
ATOM     12  C   UNL     1       0.042  -0.007   0.089  0.00  0.00    -0.047 A 
ATOM     13  C   UNL     1       1.192  -0.566  -0.442  0.00  0.00    +0.007 A 
ATOM     14  C   UNL     1       1.354  -1.936  -0.461  0.00  0.00    -0.037 A 
ATOM     15  C   UNL     1       0.358  -2.761   0.057  0.00  0.00    +0.047 A 
ATOM     16  C   UNL     1      -0.802  -2.194   0.593  0.00  0.00    +0.127 A 
ATOM     17  C   UNL     1      -0.949  -0.816   0.610  0.00  0.00    +0.049 A 
ATOM     18  C   UNL     1       2.607  -2.540  -1.040  0.00  0.00    +0.044 C 
BRANCH  16  19
ATOM     19  O   UNL     1      -1.778  -2.991   1.100  0.00  0.00    -0.506 OA
ATOM     20  H   UNL     1      -1.724  -3.118   2.057  0.00  0.00    +0.292 HD
ENDBRANCH  16  19
ENDBRANCH   1  15
BRANCH  10  21
ATOM     21  C   UNL     1       0.979  -4.499   3.433  0.00  0.00    -0.022 A 
ATOM     22  C   UNL     1       2.331  -4.774   3.345  0.00  0.00    +0.009 A 
ATOM     23  C   UNL     1       3.231  -4.079   4.128  0.00  0.00    +0.046 A 
ATOM     24  C   UNL     1       2.778  -3.103   5.003  0.00  0.00    +0.121 A 
ATOM     25  C   UNL     1       1.421  -2.827   5.089  0.00  0.00    +0.046 A 
ATOM     26  C   UNL     1       0.525  -3.522   4.300  0.00  0.00    +0.009 A 
BRANCH  24  27
ATOM     27  O   UNL     1       3.662  -2.417   5.775  0.00  0.00    -0.487 OA
BRANCH  27  28
ATOM     28  C   UNL     1       3.124  -1.427   6.654  0.00  0.00    +0.264 C 
BRANCH  28  29
ATOM     29  C   UNL     1       4.244  -0.776   7.423  0.00  0.00    -0.010 A 
ATOM     30  C   UNL     1       4.649  -1.305   8.634  0.00  0.00    +0.007 A 
ATOM     31  C   UNL     1       5.677  -0.709   9.341  0.00  0.00    +0.000 A 
ATOM     32  C   UNL     1       6.300   0.417   8.835  0.00  0.00    +0.000 A 
ATOM     33  C   UNL     1       5.896   0.946   7.624  0.00  0.00    +0.000 A 
ATOM     34  C   UNL     1       4.871   0.346   6.915  0.00  0.00    +0.007 A 
ENDBRANCH  28  29
ENDBRANCH  27  28
ENDBRANCH  24  27
ENDBRANCH  10  21
BRANCH   9  35
ATOM     35  C   UNL     1      -0.174  -7.331   4.158  0.00  0.00    +0.137 C 
BRANCH  35  36
ATOM     36  C   UNL     1       1.151  -7.564   4.887  0.00  0.00    +0.175 C 
BRANCH  36  37
ATOM     37  O   UNL     1       1.697  -6.307   5.295  0.00  0.00    -0.393 OA
ATOM     38  H   UNL     1       2.540  -6.378   5.764  0.00  0.00    +0.209 HD
ENDBRANCH  36  37
ENDBRANCH  35  36
ENDBRANCH   9  35
TORSDOF 9
