REMARK  Name = ZINC63598856
REMARK  6 active torsions:
REMARK  status: ('A' for Active; 'I' for Inactive)
REMARK    1  A    between atoms: C_3  and  C_11
REMARK    2  A    between atoms: C_5  and  C_7
REMARK    3  A    between atoms: N_13  and  N_14
REMARK    4  A    between atoms: C_15  and  C_17
REMARK    5  A    between atoms: C_22  and  O_27
REMARK    6  A    between atoms: O_27  and  C_28
REMARK                            x       y       z     vdW  Elec       q    Type
REMARK                         _______ _______ _______ _____ _____    ______ ____
ROOT
ATOM      1  N   UNL     1       4.848   4.222  -0.023  0.00  0.00    -0.232 N 
ATOM      2  C   UNL     1       4.833   5.569  -0.016  0.00  0.00    +0.255 C 
ATOM      3  O   UNL     1       3.776   6.164  -0.003  0.00  0.00    -0.272 OA
ATOM      4  H   UNL     1       5.693   3.746  -0.034  0.00  0.00    +0.173 HD
ENDROOT
BRANCH   2   5
ATOM      5  C   UNL     1       6.129   6.337  -0.025  0.00  0.00    +0.191 C 
ATOM      6  C   UNL     1       6.705   6.405   1.372  0.00  0.00    +0.016 C 
ATOM      7  C   UNL     1       6.769   7.718   1.688  0.00  0.00    -0.000 A 
ATOM      8  C   UNL     1       7.228   8.433   2.884  0.00  0.00    +0.055 A 
ATOM      9  C   UNL     1       7.172   9.787   2.915  0.00  0.00    +0.131 A 
ATOM     10  C   UNL     1       6.686  10.542   1.833  0.00  0.00    +0.048 A 
ATOM     11  C   UNL     1       6.242   9.976   0.691  0.00  0.00    +0.029 A 
ATOM     12  C   UNL     1       6.257   8.516   0.550  0.00  0.00    +0.043 A 
ATOM     13  N   UNL     1       5.891   7.727  -0.432  0.00  0.00    -0.370 N 
ATOM     14  H   UNL     1       5.525   8.013  -1.283  0.00  0.00    +0.161 HD
BRANCH   9  15
ATOM     15  O   UNL     1       7.601  10.436   4.029  0.00  0.00    -0.406 OA
BRANCH  15  16
ATOM     16  C   UNL     1       7.524  11.863   4.019  0.00  0.00    +0.575 C 
ATOM     17  F   UNL     1       6.193  12.257   3.842  0.00  0.00    -0.133 F 
ATOM     18  F   UNL     1       8.002  12.364   5.234  0.00  0.00    -0.133 F 
ATOM     19  F   UNL     1       8.302  12.364   2.969  0.00  0.00    -0.133 F 
ENDBRANCH  15  16
ENDBRANCH   9  15
ENDBRANCH   2   5
BRANCH   1  22
ATOM     20  C   UNL     1       3.657   2.160  -0.022  0.00  0.00    +0.260 C 
ATOM     21  O   UNL     1       4.716   1.564  -0.035  0.00  0.00    -0.269 OA
ATOM     22  N   UNL     1       3.642   3.508  -0.015  0.00  0.00    -0.230 N 
ATOM     23  H   UNL     1       2.797   3.984  -0.004  0.00  0.00    +0.173 HD
BRANCH  20  26
ATOM     24  C   UNL     1      -0.017   1.379   0.010  0.00  0.00    +0.001 A 
ATOM     25  C   UNL     1       1.167   2.088   0.002  0.00  0.00    +0.013 A 
ATOM     26  C   UNL     1       2.385   1.407  -0.013  0.00  0.00    +0.039 A 
ATOM     27  C   UNL     1       2.397   0.011  -0.021  0.00  0.00    +0.025 A 
ATOM     28  C   UNL     1       1.206  -0.686  -0.013  0.00  0.00    +0.056 A 
ATOM     29  C   UNL     1       0.002  -0.004   0.002  0.00  0.00    +0.012 A 
BRANCH  28  30
ATOM     30  C   UNL     1       1.217  -2.193  -0.022  0.00  0.00    +0.417 C 
ATOM     31  F   UNL     1       1.233  -2.667   1.294  0.00  0.00    -0.166 F 
ATOM     32  F   UNL     1       0.072  -2.663  -0.673  0.00  0.00    -0.166 F 
ATOM     33  F   UNL     1       2.356  -2.647  -0.695  0.00  0.00    -0.166 F 
ENDBRANCH  28  30
ENDBRANCH  20  26
ENDBRANCH   1  22
TORSDOF 6
