REMARK  Name = ZINC13500019
REMARK  12 active torsions:
REMARK  status: ('A' for Active; 'I' for Inactive)
REMARK    1  A    between atoms: C_1  and  C_2
REMARK    2  A    between atoms: C_3  and  C_32
REMARK    3  A    between atoms: C_10  and  S_17
REMARK    4  A    between atoms: C_12  and  C_14
REMARK    5  A    between atoms: C_14  and  C_15
REMARK    6  A    between atoms: C_14  and  C_16
REMARK    7  A    between atoms: S_17  and  C_18
REMARK    8  A    between atoms: C_18  and  C_19
REMARK    9  A    between atoms: C_24  and  C_31
REMARK   10  A    between atoms: C_25  and  C_27
REMARK   11  A    between atoms: C_27  and  O_29
REMARK   12  A    between atoms: O_29  and  C_30
REMARK                            x       y       z     vdW  Elec       q    Type
REMARK                         _______ _______ _______ _____ _____    ______ ____
ROOT
ATOM      1  C   UNL     1       5.438  12.607   0.047  0.00  0.00    +0.045 C 
ATOM      2  C   UNL     1       3.989  13.021   0.023  0.00  0.00    -0.028 A 
ATOM      3  C   UNL     1       3.664  14.327  -0.010  0.00  0.00    -0.008 A 
ATOM      4  S   UNL     1       1.880  14.289  -0.027  0.00  0.00    -0.073 S 
ATOM      5  C   UNL     1       1.661  12.527   0.013  0.00  0.00    +0.114 A 
ATOM      6  C   UNL     1       2.981  12.043   0.037  0.00  0.00    +0.055 A 
ATOM      7  C   UNL     1       3.099  10.569   0.073  0.00  0.00    +0.173 A 
ATOM      8  N   UNL     1       4.110   9.736   0.102  0.00  0.00    -0.128 NA
ATOM      9  N   UNL     1       3.674   8.525   0.127  0.00  0.00    -0.122 NA
ATOM     10  C   UNL     1       2.361   8.514   0.115  0.00  0.00    +0.198 A 
ATOM     11  N   UNL     1       1.945   9.816   0.074  0.00  0.00    -0.257 N 
ATOM     12  C   UNL     1       0.722  10.421   0.053  0.00  0.00    +0.121 A 
ATOM     13  N   UNL     1       0.607  11.718   0.021  0.00  0.00    -0.226 NA
ATOM     14  C   UNL     1       4.580  15.523  -0.030  0.00  0.00    +0.052 C 
ENDROOT
BRANCH  12  15
ATOM     15  C   UNL     1      -0.522   9.570   0.061  0.00  0.00    +0.049 C 
ATOM     16  C   UNL     1      -1.274   9.777   1.377  0.00  0.00    +0.015 C 
ATOM     17  C   UNL     1      -1.422   9.972  -1.110  0.00  0.00    +0.015 C 
ENDBRANCH  12  15
BRANCH  10  18
ATOM     18  S   UNL     1       1.327   7.087   0.138  0.00  0.00    -0.076 S 
BRANCH  18  19
ATOM     19  C   UNL     1       2.495   5.700   0.182  0.00  0.00    +0.173 C 
BRANCH  19  20
ATOM     20  C   UNL     1       1.732   4.401   0.205  0.00  0.00    +0.229 C 
ATOM     21  O   UNL     1       0.519   4.409   0.193  0.00  0.00    -0.275 OA
ATOM     22  N   UNL     1       2.397   3.229   0.239  0.00  0.00    -0.264 N 
ATOM     23  C   UNL     1       1.696   2.036   0.260  0.00  0.00    +0.165 A 
ATOM     24  N   UNL     1       2.167   0.799   0.294  0.00  0.00    -0.229 NA
ATOM     25  C   UNL     1       1.371  -0.237   0.311  0.00  0.00    +0.062 A 
ATOM     26  C   UNL     1       0.002  -0.002   0.291  0.00  0.00    +0.120 A 
ATOM     27  S   UNL     1      -0.022   1.785   0.248  0.00  0.00    -0.045 S 
ATOM     28  C   UNL     1       1.919  -1.641   0.349  0.00  0.00    +0.067 C 
ATOM     29  H   UNL     1       3.367   3.221   0.249  0.00  0.00    +0.157 HD
BRANCH  26  30
ATOM     30  C   UNL     1      -1.109  -0.950   0.301  0.00  0.00    +0.347 C 
ATOM     31  O   UNL     1      -0.888  -2.146   0.332  0.00  0.00    -0.244 OA
BRANCH  30  32
ATOM     32  O   UNL     1      -2.381  -0.500   0.277  0.00  0.00    -0.464 OA
ATOM     33  C   UNL     1      -3.418  -1.484   0.289  0.00  0.00    +0.280 C 
ENDBRANCH  30  32
ENDBRANCH  26  30
ENDBRANCH  19  20
ENDBRANCH  18  19
ENDBRANCH  10  18
TORSDOF 6
