REMARK  Name = ZINC49908689
REMARK  6 active torsions:
REMARK  status: ('A' for Active; 'I' for Inactive)
REMARK    1  A    between atoms: C_1  and  C_2
REMARK    2  A    between atoms: C_2  and  C_4
REMARK    3  A    between atoms: C_2  and  S_17
REMARK    4  A    between atoms: C_4  and  C_6
REMARK    5  A    between atoms: S_17  and  C_18
REMARK    6  A    between atoms: C_21  and  C_24
REMARK                            x       y       z     vdW  Elec       q    Type
REMARK                         _______ _______ _______ _____ _____    ______ ____
ROOT
ATOM      1  C   UNL     1      -0.019   1.526   0.010  0.00  0.00    +0.028 C 
ATOM      2  C   UNL     1       0.002  -0.004   0.002  0.00  0.00    +0.122 C 
ENDROOT
BRANCH   2   3
ATOM      3  C   UNL     1      -1.412  -0.526   0.013  0.00  0.00    +0.176 C 
ATOM      4  O   UNL     1      -1.959  -0.816  -1.030  0.00  0.00    -0.291 OA
BRANCH   3   5
ATOM      5  C   UNL     1      -2.127  -0.683   1.286  0.00  0.00    +0.020 A 
ATOM      6  C   UNL     1      -1.499  -0.343   2.490  0.00  0.00    +0.015 A 
ATOM      7  C   UNL     1      -2.170  -0.490   3.684  0.00  0.00    +0.048 A 
ATOM      8  C   UNL     1      -3.470  -0.975   3.697  0.00  0.00    +0.142 A 
ATOM      9  C   UNL     1      -4.104  -1.316   2.499  0.00  0.00    +0.076 A 
ATOM     10  C   UNL     1      -3.441  -1.167   1.298  0.00  0.00    +0.038 A 
ATOM     11  N   UNL     1      -5.418  -1.805   2.534  0.00  0.00    -0.280 N 
ATOM     12  C   UNL     1      -6.147  -1.641   3.660  0.00  0.00    +0.255 C 
ATOM     13  O   UNL     1      -7.275  -2.082   3.724  0.00  0.00    -0.272 OA
ATOM     14  C   UNL     1      -5.552  -0.908   4.835  0.00  0.00    +0.325 C 
ATOM     15  O   UNL     1      -4.139  -1.122   4.870  0.00  0.00    -0.481 OA
ATOM     16  H   UNL     1      -5.797  -2.254   1.763  0.00  0.00    +0.155 HD
ENDBRANCH   3   5
ENDBRANCH   2   3
BRANCH   2  17
ATOM     17  S   UNL     1       0.851  -0.589  -1.490  0.00  0.00    -0.075 S 
BRANCH  17  18
ATOM     18  C   UNL     1       2.509  -0.029  -1.285  0.00  0.00    +0.185 A 
ATOM     19  N   UNL     1       2.972   0.655  -0.262  0.00  0.00    -0.200 NA
ATOM     20  H   UNL     1       3.487  -0.708  -2.993  0.00  0.00    +0.191 HD
ATOM     21  C   UNL     1       4.277   0.909  -0.442  0.00  0.00    +0.189 A 
ATOM     22  N   UNL     1       4.657   0.387  -1.589  0.00  0.00    -0.151 NA
ATOM     23  N   UNL     1       3.528  -0.231  -2.150  0.00  0.00    -0.253 N 
BRANCH  21  24
ATOM     24  C   UNL     1       5.146   1.655   0.493  0.00  0.00    +0.058 A 
ATOM     25  C   UNL     1       6.476   1.959   0.379  0.00  0.00    +0.019 A 
ATOM     26  C   UNL     1       7.081   2.674   1.390  0.00  0.00    +0.008 A 
ATOM     27  C   UNL     1       6.344   3.053   2.465  0.00  0.00    +0.046 A 
ATOM     28  S   UNL     1       4.732   2.400   2.062  0.00  0.00    -0.093 S 
ENDBRANCH  21  24
ENDBRANCH  17  18
ENDBRANCH   2  17
TORSDOF 5
