REMARK  Name = ZINC58481842
REMARK  6 active torsions:
REMARK  status: ('A' for Active; 'I' for Inactive)
REMARK    1  A    between atoms: C_1  and  C_2
REMARK    2  A    between atoms: C_2  and  N_3
REMARK    3  A    between atoms: N_6  and  C_9
REMARK    4  A    between atoms: C_14  and  N_15
REMARK    5  A    between atoms: C_16  and  C_18
REMARK    6  A    between atoms: C_19  and  C_20
REMARK                            x       y       z     vdW  Elec       q    Type
REMARK                         _______ _______ _______ _____ _____    ______ ____
ROOT
ATOM      1  C   UNL     1       0.793  -2.810   4.628  0.00  0.00    +0.051 A 
ATOM      2  C   UNL     1      -0.436  -3.446   4.717  0.00  0.00    +0.026 A 
ATOM      3  C   UNL     1      -0.701  -4.294   5.776  0.00  0.00    +0.022 A 
ATOM      4  C   UNL     1       0.258  -4.511   6.750  0.00  0.00    +0.043 A 
ATOM      5  C   UNL     1       1.486  -3.880   6.669  0.00  0.00    +0.045 A 
ATOM      6  C   UNL     1       1.762  -3.033   5.607  0.00  0.00    +0.056 A 
ATOM      7 CL   UNL     1      -0.082  -5.578   8.076  0.00  0.00    -0.083 Cl
ENDROOT
BRANCH   1  11
ATOM      8  N   UNL     1       0.699  -0.501   1.195  0.00  0.00    +0.382 N 
ATOM      9  C   UNL     1      -0.042  -0.110   2.402  0.00  0.00    -0.060 C 
ATOM     10  C   UNL     1       0.759  -0.514   3.644  0.00  0.00    +0.086 C 
ATOM     11  N   UNL     1       1.063  -1.950   3.557  0.00  0.00    -0.332 N 
ATOM     12  C   UNL     1       1.659  -2.459   2.311  0.00  0.00    +0.086 C 
ATOM     13  C   UNL     1       0.816  -1.963   1.132  0.00  0.00    -0.060 C 
ATOM     14  H   UNL     1       1.621  -0.092   1.222  0.00  0.00    -0.082 HD
BRANCH   8  16
ATOM     15  C   UNL     1      -0.030   1.513   0.008  0.00  0.00    -0.017 C 
ATOM     16  C   UNL     1      -0.016  -0.017   0.006  0.00  0.00    -0.082 C 
ENDBRANCH   8  16
ENDBRANCH   1  11
BRANCH   6  17
ATOM     17  N   UNL     1       3.007  -2.397   5.520  0.00  0.00    -0.280 N 
ATOM     18  C   UNL     1       4.084  -2.941   6.121  0.00  0.00    +0.241 C 
ATOM     19  O   UNL     1       3.998  -4.032   6.654  0.00  0.00    -0.270 OA
ATOM     20  H   UNL     1       3.095  -1.567   5.027  0.00  0.00    +0.155 HD
BRANCH  18  21
ATOM     21  C   UNL     1       5.356  -2.219   6.134  0.00  0.00    +0.068 C 
ATOM     22  C   UNL     1       6.434  -2.763   6.736  0.00  0.00    +0.013 C 
BRANCH  22  23
ATOM     23  C   UNL     1       7.713  -2.037   6.749  0.00  0.00    -0.024 A 
ATOM     24  C   UNL     1       7.817  -0.779   6.144  0.00  0.00    +0.011 A 
ATOM     25  C   UNL     1       9.012  -0.102   6.161  0.00  0.00    +0.046 A 
ATOM     26  C   UNL     1      10.133  -0.659   6.779  0.00  0.00    +0.124 A 
ATOM     27  C   UNL     1      10.027  -1.913   7.374  0.00  0.00    -0.002 A 
ATOM     28  C   UNL     1       8.836  -2.596   7.372  0.00  0.00    +0.015 A 
ATOM     29  C   UNL     1      11.394  -2.257   7.932  0.00  0.00    +0.080 C 
ATOM     30  C   UNL     1      12.300  -1.228   7.215  0.00  0.00    +0.234 C 
ATOM     31  O   UNL     1      11.390  -0.156   6.917  0.00  0.00    -0.491 OA
ENDBRANCH  22  23
ENDBRANCH  18  21
ENDBRANCH   6  17
TORSDOF 5
