REMARK  Name = ZINC25320410
REMARK  7 active torsions:
REMARK  status: ('A' for Active; 'I' for Inactive)
REMARK    1  A    between atoms: C_1  and  C_2
REMARK    2  A    between atoms: C_2  and  C_3
REMARK    3  A    between atoms: C_3  and  N_4
REMARK    4  A    between atoms: N_4  and  C_5
REMARK    5  A    between atoms: C_5  and  C_6
REMARK    6  A    between atoms: C_19  and  C_21
REMARK    7  A    between atoms: C_22  and  C_26
REMARK                            x       y       z     vdW  Elec       q    Type
REMARK                         _______ _______ _______ _____ _____    ______ ____
ROOT
ATOM      1  C   UNL     1      -0.308  -2.882  -1.725  0.00  0.00    +0.182 C 
ENDROOT
BRANCH   1   2
ATOM      2  C   UNL     1      -0.025  -3.295  -3.146  0.00  0.00    +0.128 A 
ATOM      3  N   UNL     1      -0.902  -4.130  -3.761  0.00  0.00    -0.309 N 
ATOM      4  H   UNL     1      -1.685  -4.443  -3.282  0.00  0.00    +0.170 HD
ATOM      5  C   UNL     1      -0.693  -4.531  -5.037  0.00  0.00    +0.259 A 
ATOM      6  O   UNL     1      -1.471  -5.279  -5.600  0.00  0.00    -0.267 OA
ATOM      7  C   UNL     1       0.509  -4.027  -5.717  0.00  0.00    +0.065 A 
ATOM      8  C   UNL     1       0.816  -4.378  -7.030  0.00  0.00    +0.017 A 
ATOM      9  C   UNL     1       1.946  -3.881  -7.616  0.00  0.00    +0.021 A 
ATOM     10  C   UNL     1       2.793  -3.029  -6.916  0.00  0.00    +0.043 A 
ATOM     11  C   UNL     1       2.513  -2.667  -5.616  0.00  0.00    +0.048 A 
ATOM     12  C   UNL     1       1.363  -3.161  -4.997  0.00  0.00    +0.080 A 
ATOM     13  N   UNL     1       1.041  -2.829  -3.722  0.00  0.00    -0.232 NA
ATOM     14 CL   UNL     1       4.222  -2.415  -7.688  0.00  0.00    -0.083 Cl
ENDBRANCH   1   2
BRANCH   1  15
ATOM     15  N   UNL     1       0.749  -1.981  -1.258  0.00  0.00    -0.288 N 
ATOM     16  C   UNL     1       1.892  -2.488  -0.755  0.00  0.00    +0.283 C 
ATOM     17  O   UNL     1       2.727  -1.744  -0.274  0.00  0.00    -0.267 OA
BRANCH  16  18
ATOM     18  C   UNL     1       2.129  -3.935  -0.787  0.00  0.00    +0.192 A 
ATOM     19  C   UNL     1       3.273  -4.569  -0.395  0.00  0.00    -0.000 A 
ATOM     20  C   UNL     1       3.062  -5.942  -0.595  0.00  0.00    +0.045 A 
ATOM     21  C   UNL     1       1.814  -6.084  -1.093  0.00  0.00    +0.196 A 
ATOM     22  O   UNL     1       1.253  -4.873  -1.202  0.00  0.00    -0.458 OA
ATOM     23  C   UNL     1       4.521  -3.920   0.146  0.00  0.00    +0.048 C 
ENDBRANCH  16  18
BRANCH  15  24
ATOM     24  C   UNL     1       0.563  -0.530  -1.338  0.00  0.00    +0.108 C 
BRANCH  24  26
ATOM     25  C   UNL     1      -0.388   1.472  -0.184  0.00  0.00    +0.005 C 
ATOM     26  C   UNL     1      -0.194  -0.044  -0.101  0.00  0.00    +0.016 C 
ENDBRANCH  24  26
ENDBRANCH  15  24
ENDBRANCH   1  15
TORSDOF 5
