REMARK  Name = ZINC36835200
REMARK  10 active torsions:
REMARK  status: ('A' for Active; 'I' for Inactive)
REMARK    1  A    between atoms: C_1  and  C_2
REMARK    2  A    between atoms: C_2  and  C_3
REMARK    3  A    between atoms: C_7  and  C_29
REMARK    4  A    between atoms: C_8  and  N_9
REMARK    5  A    between atoms: C_10  and  C_12
REMARK    6  A    between atoms: C_12  and  N_13
REMARK    7  A    between atoms: C_18  and  C_25
REMARK    8  A    between atoms: C_21  and  C_23
REMARK    9  A    between atoms: C_21  and  C_24
REMARK   10  A    between atoms: C_29  and  C_30
REMARK                            x       y       z     vdW  Elec       q    Type
REMARK                         _______ _______ _______ _____ _____    ______ ____
ROOT
ATOM      1  C   UNL     1      -1.504  -0.641   5.334  0.00  0.00    +0.214 C 
ENDROOT
BRANCH   1   2
ATOM      2  N   UNL     1      -1.508  -1.269   6.656  0.00  0.00    -0.215 N 
ATOM      3  C   UNL     1      -2.094  -2.453   6.936  0.00  0.00    +0.247 C 
ATOM      4  O   UNL     1      -2.538  -3.243   6.131  0.00  0.00    -0.273 OA
ATOM      5  C   UNL     1      -2.065  -2.570   8.441  0.00  0.00    +0.113 C 
ATOM      6  C   UNL     1      -1.497  -3.914   8.871  0.00  0.00    +0.038 C 
ATOM      7  C   UNL     1      -2.514  -5.023   8.598  0.00  0.00    -0.011 C 
ATOM      8  C   UNL     1      -3.764  -4.753   9.433  0.00  0.00    +0.009 C 
ATOM      9  C   UNL     1      -4.406  -3.427   9.044  0.00  0.00    -0.032 C 
ATOM     10  C   UNL     1      -3.417  -2.274   9.059  0.00  0.00    +0.041 C 
ATOM     11  C   UNL     1      -5.514  -3.120  10.075  0.00  0.00    +0.011 C 
ATOM     12  C   UNL     1      -5.077  -3.548   7.673  0.00  0.00    +0.011 C 
ATOM     13  C   UNL     1      -1.913  -6.372   9.007  0.00  0.00    +0.007 C 
ATOM     14  N   UNL     1      -1.119  -1.502   8.837  0.00  0.00    -0.285 N 
ATOM     15  C   UNL     1      -0.910  -0.757   7.738  0.00  0.00    +0.310 C 
ATOM     16  O   UNL     1      -0.253   0.266   7.727  0.00  0.00    -0.252 OA
ATOM     17  H   UNL     1      -0.737  -1.379   9.717  0.00  0.00    +0.151 HD
ENDBRANCH   1   2
BRANCH   1  19
ATOM     18  N   UNL     1      -0.100  -0.678   3.298  0.00  0.00    -0.284 N 
ATOM     19  C   UNL     1      -0.310  -1.125   4.552  0.00  0.00    +0.235 C 
ATOM     20  O   UNL     1       0.462  -1.916   5.051  0.00  0.00    -0.274 OA
ATOM     21  H   UNL     1      -0.660   0.025   2.933  0.00  0.00    +0.155 HD
BRANCH  18  27
ATOM     22  C   UNL     1       2.140  -0.567   2.402  0.00  0.00    -0.026 A 
ATOM     23  C   UNL     1       3.153  -1.116   1.640  0.00  0.00    +0.007 A 
ATOM     24  C   UNL     1       2.957  -2.321   0.991  0.00  0.00    +0.020 A 
ATOM     25  C   UNL     1       1.745  -2.981   1.103  0.00  0.00    +0.046 A 
ATOM     26  C   UNL     1       0.729  -2.437   1.865  0.00  0.00    -0.008 A 
ATOM     27  C   UNL     1       0.925  -1.229   2.521  0.00  0.00    +0.041 A 
ATOM     28 CL   UNL     1       1.503  -4.494   0.287  0.00  0.00    -0.083 Cl
BRANCH  22  30
ATOM     29  C   UNL     1       2.807   0.484   4.547  0.00  0.00    +0.009 C 
ATOM     30  C   UNL     1       2.355   0.747   3.109  0.00  0.00    +0.033 C 
ENDBRANCH  22  30
BRANCH  26  31
ATOM     31  C   UNL     1      -0.591  -3.156   1.986  0.00  0.00    +0.035 C 
ATOM     32  C   UNL     1      -0.596  -4.000   3.262  0.00  0.00    +0.009 C 
ENDBRANCH  26  31
ENDBRANCH  18  27
ENDBRANCH   1  19
TORSDOF 5
