REMARK  Name = ZINC64707646
REMARK  6 active torsions:
REMARK  status: ('A' for Active; 'I' for Inactive)
REMARK    1  A    between atoms: C_7  and  C_10
REMARK    2  A    between atoms: C_10  and  C_12
REMARK    3  A    between atoms: C_10  and  C_27
REMARK    4  A    between atoms: C_12  and  N_13
REMARK    5  A    between atoms: N_13  and  S_14
REMARK    6  A    between atoms: S_14  and  C_17
REMARK                            x       y       z     vdW  Elec       q    Type
REMARK                         _______ _______ _______ _____ _____    ______ ____
ROOT
ATOM      1  C   UNL     1       0.923  -4.026  -1.281  0.00  0.00    +0.119 C 
ENDROOT
BRANCH   1   2
ATOM      2  N   UNL     1      -0.070  -5.102  -1.340  0.00  0.00    -0.189 NA
ATOM      3  H   UNL     1      -0.590  -5.325  -0.552  0.00  0.00    +0.148 HD
BRANCH   2   4
ATOM      4  S   UNL     1      -0.304  -5.936  -2.751  0.00  0.00    +0.058 S 
ATOM      5  O   UNL     1      -1.297  -6.917  -2.483  0.00  0.00    -0.153 OA
ATOM      6  O   UNL     1      -0.450  -4.965  -3.777  0.00  0.00    -0.153 OA
BRANCH   4   7
ATOM      7  C   UNL     1       1.187  -6.810  -3.093  0.00  0.00    +0.106 A 
ATOM      8  C   UNL     1       2.183  -6.213  -3.845  0.00  0.00    +0.030 A 
ATOM      9  C   UNL     1       3.353  -6.892  -4.117  0.00  0.00    +0.025 A 
ATOM     10  C   UNL     1       3.540  -8.186  -3.634  0.00  0.00    +0.037 A 
ATOM     11  C   UNL     1       2.532  -8.774  -2.880  0.00  0.00    -0.016 A 
ATOM     12  C   UNL     1       1.368  -8.092  -2.606  0.00  0.00    +0.034 A 
ATOM     13  C   UNL     1       3.027 -10.153  -2.510  0.00  0.00    +0.133 C 
ATOM     14  C   UNL     1       4.399 -10.234  -3.146  0.00  0.00    +0.222 C 
ATOM     15  O   UNL     1       5.160 -11.178  -3.099  0.00  0.00    -0.275 OA
ATOM     16  N   UNL     1       4.615  -9.065  -3.771  0.00  0.00    -0.285 N 
ATOM     17  H   UNL     1       5.426  -8.855  -4.261  0.00  0.00    +0.155 HD
ENDBRANCH   4   7
ENDBRANCH   2   4
ENDBRANCH   1   2
BRANCH   1  18
ATOM     18  C   UNL     1       0.691  -3.186  -0.024  0.00  0.00    +0.069 C 
BRANCH  18  25
ATOM     19  C   UNL     1      -0.016   1.348   0.009  0.00  0.00    +0.001 A 
ATOM     20  C   UNL     1       1.166   2.101   0.002  0.00  0.00    +0.002 A 
ATOM     21  C   UNL     1       2.391   1.535  -0.013  0.00  0.00    +0.026 A 
ATOM     22  C   UNL     1       2.529   0.120  -0.022  0.00  0.00    +0.043 A 
ATOM     23  N   UNL     1       3.587  -0.654  -0.037  0.00  0.00    -0.380 N 
ATOM     24  C   UNL     1       3.143  -2.053  -0.041  0.00  0.00    +0.145 C 
ATOM     25  C   UNL     1       1.631  -2.008  -0.025  0.00  0.00    -0.032 C 
ATOM     26  C   UNL     1       1.295  -0.698  -0.014  0.00  0.00    -0.000 A 
ATOM     27  C   UNL     1       0.002  -0.004   0.002  0.00  0.00    +0.010 A 
ATOM     28  H   UNL     1       4.509  -0.353  -0.045  0.00  0.00    +0.160 HD
ENDBRANCH  18  25
BRANCH  18  29
ATOM     29  C   UNL     1       0.944  -4.029   1.199  0.00  0.00    -0.002 A 
ATOM     30  C   UNL     1       0.093  -4.353   2.203  0.00  0.00    +0.012 A 
ATOM     31  C   UNL     1       0.548  -5.151   3.236  0.00  0.00    +0.008 A 
ATOM     32  C   UNL     1       1.832  -5.586   3.214  0.00  0.00    +0.045 A 
ATOM     33  S   UNL     1       2.439  -4.867   1.697  0.00  0.00    -0.101 S 
ENDBRANCH  18  29
ENDBRANCH   1  18
TORSDOF 6
