REMARK  Name = ZINC08839122
REMARK  6 active torsions:
REMARK  status: ('A' for Active; 'I' for Inactive)
REMARK    1  A    between atoms: C_4  and  C_7
REMARK    2  A    between atoms: C_7  and  C_8
REMARK    3  A    between atoms: C_8  and  N_9
REMARK    4  A    between atoms: N_12  and  C_13
REMARK    5  A    between atoms: C_13  and  C_14
REMARK    6  A    between atoms: N_17  and  C_21
REMARK                            x       y       z     vdW  Elec       q    Type
REMARK                         _______ _______ _______ _____ _____    ______ ____
ROOT
ATOM      1  N   UNL     1      -6.746   5.698  -2.043  0.00  0.00    -0.299 N 
ATOM      2  C   UNL     1      -5.426   5.437  -2.124  0.00  0.00    +0.300 C 
ATOM      3  O   UNL     1      -4.793   5.801  -3.097  0.00  0.00    -0.253 OA
ATOM      4  N   UNL     1      -4.808   4.774  -1.127  0.00  0.00    -0.296 N 
ATOM      5  H   UNL     1      -7.251   5.408  -1.268  0.00  0.00    +0.150 HD
ATOM      6  H   UNL     1      -5.313   4.484  -0.351  0.00  0.00    +0.150 HD
ENDROOT
BRANCH   1   7
ATOM      7  C   UNL     1      -7.418   6.419  -3.127  0.00  0.00    +0.110 C 
BRANCH   7   8
ATOM      8  C   UNL     1      -8.901   6.582  -2.788  0.00  0.00    +0.054 C 
BRANCH   8  12
ATOM      9  C   UNL     1     -10.862   8.685  -5.947  0.00  0.00    +0.000 A 
ATOM     10  C   UNL     1     -10.783   7.306  -5.980  0.00  0.00    +0.000 A 
ATOM     11  C   UNL     1     -10.148   6.625  -4.958  0.00  0.00    +0.004 A 
ATOM     12  C   UNL     1      -9.593   7.324  -3.903  0.00  0.00    -0.046 A 
ATOM     13  C   UNL     1      -9.676   8.703  -3.867  0.00  0.00    +0.004 A 
ATOM     14  C   UNL     1     -10.306   9.384  -4.892  0.00  0.00    +0.000 A 
ENDBRANCH   8  12
ENDBRANCH   7   8
ENDBRANCH   1   7
BRANCH   4  15
ATOM     15  C   UNL     1      -3.373   4.490  -1.215  0.00  0.00    +0.152 C 
BRANCH  15  16
ATOM     16  C   UNL     1      -2.925   3.733   0.036  0.00  0.00    +0.213 C 
ATOM     17  C   UNL     1      -1.398   3.531   0.028  0.00  0.00    +0.163 C 
ATOM     18  N   UNL     1      -1.237   2.069   0.019  0.00  0.00    -0.234 N 
ATOM     19  C   UNL     1      -2.450   1.500   0.016  0.00  0.00    +0.408 C 
ATOM     20  O   UNL     1      -2.618   0.296   0.004  0.00  0.00    -0.226 OA
ATOM     21  O   UNL     1      -3.460   2.377   0.031  0.00  0.00    -0.444 OA
BRANCH  18  22
ATOM     22  C   UNL     1      -0.017   1.384   0.010  0.00  0.00    +0.040 A 
ATOM     23  C   UNL     1       1.178   2.092   0.002  0.00  0.00    +0.023 A 
ATOM     24  C   UNL     1       2.381   1.413  -0.014  0.00  0.00    +0.002 A 
ATOM     25  C   UNL     1       2.396   0.031  -0.021  0.00  0.00    +0.000 A 
ATOM     26  C   UNL     1       1.208  -0.677  -0.013  0.00  0.00    +0.002 A 
ATOM     27  C   UNL     1       0.002  -0.004   0.002  0.00  0.00    +0.023 A 
ENDBRANCH  18  22
ENDBRANCH  15  16
ENDBRANCH   4  15
TORSDOF 6
