REMARK  Name = ZINC13583506
REMARK  9 active torsions:
REMARK  status: ('A' for Active; 'I' for Inactive)
REMARK    1  A    between atoms: C_1  and  C_2
REMARK    2  A    between atoms: C_4  and  C_28
REMARK    3  A    between atoms: N_8  and  C_9
REMARK    4  A    between atoms: C_9  and  C_10
REMARK    5  A    between atoms: C_9  and  C_14
REMARK    6  A    between atoms: C_9  and  N_18
REMARK    7  A    between atoms: C_10  and  O_12
REMARK    8  A    between atoms: O_12  and  C_13
REMARK    9  A    between atoms: C_19  and  C_21
REMARK                            x       y       z     vdW  Elec       q    Type
REMARK                         _______ _______ _______ _____ _____    ______ ____
ROOT
ATOM      1  C   UNL     1       3.610  -2.107   0.032  0.00  0.00    +0.322 C 
ENDROOT
BRANCH   1   9
ATOM      2  C   UNL     1       2.706  -4.352  -4.401  0.00  0.00    +0.044 C 
ATOM      3  C   UNL     1       1.930  -4.158  -3.124  0.00  0.00    -0.045 A 
ATOM      4  C   UNL     1       0.643  -4.706  -2.990  0.00  0.00    +0.024 A 
ATOM      5  C   UNL     1      -0.056  -4.535  -1.848  0.00  0.00    +0.015 A 
ATOM      6  N   UNL     1       0.470  -3.830  -0.807  0.00  0.00    -0.344 N 
ATOM      7  C   UNL     1       1.726  -3.281  -0.906  0.00  0.00    +0.130 A 
ATOM      8  C   UNL     1       2.473  -3.457  -2.095  0.00  0.00    +0.049 A 
ATOM      9  N   UNL     1       2.233  -2.600   0.101  0.00  0.00    -0.222 NA
ATOM     10  C   UNL     1      -1.435  -5.130  -1.723  0.00  0.00    +0.063 C 
ATOM     11  H   UNL     1      -0.044  -3.715   0.007  0.00  0.00    +0.167 HD
ENDBRANCH   1   9
BRANCH   1  12
ATOM     12  C   UNL     1       3.995  -1.479   1.373  0.00  0.00    +0.442 C 
ATOM     13  F   UNL     1       4.041  -2.472   2.357  0.00  0.00    -0.166 F 
ATOM     14  F   UNL     1       5.251  -0.874   1.261  0.00  0.00    -0.166 F 
ATOM     15  F   UNL     1       3.043  -0.516   1.727  0.00  0.00    -0.166 F 
ENDBRANCH   1  12
BRANCH   1  16
ATOM     16  N   UNL     1       4.514  -3.222  -0.262  0.00  0.00    -0.271 N 
ATOM     17  C   UNL     1       5.832  -2.995  -0.432  0.00  0.00    +0.246 C 
ATOM     18  O   UNL     1       6.285  -1.883  -0.247  0.00  0.00    -0.270 OA
ATOM     19  H   UNL     1       4.164  -4.124  -0.334  0.00  0.00    +0.152 HD
BRANCH  17  20
ATOM     20  C   UNL     1       6.724  -4.098  -0.845  0.00  0.00    +0.037 A 
ATOM     21  C   UNL     1       6.205  -5.375  -1.065  0.00  0.00    +0.014 A 
ATOM     22  C   UNL     1       7.043  -6.400  -1.450  0.00  0.00    +0.021 A 
ATOM     23  C   UNL     1       8.398  -6.165  -1.619  0.00  0.00    +0.041 A 
ATOM     24  C   UNL     1       8.919  -4.900  -1.403  0.00  0.00    +0.021 A 
ATOM     25  C   UNL     1       8.090  -3.865  -1.023  0.00  0.00    +0.014 A 
ATOM     26 CL   UNL     1       9.446  -7.460  -2.103  0.00  0.00    -0.084 Cl
ENDBRANCH  17  20
ENDBRANCH   1  16
BRANCH   1  27
ATOM     27  C   UNL     1       3.720  -1.072  -1.058  0.00  0.00    +0.363 C 
ATOM     28  O   UNL     1       2.720  -0.578  -1.524  0.00  0.00    -0.246 OA
BRANCH  27  29
ATOM     29  O   UNL     1       4.927  -0.698  -1.510  0.00  0.00    -0.465 OA
ATOM     30  C   UNL     1       4.955   0.288  -2.544  0.00  0.00    +0.280 C 
ENDBRANCH  27  29
ENDBRANCH   1  27
TORSDOF 6
