REMARK  Name = ZINC50841053
REMARK  5 active torsions:
REMARK  status: ('A' for Active; 'I' for Inactive)
REMARK    1  A    between atoms: C_1  and  C_2
REMARK    2  A    between atoms: C_5  and  S_9
REMARK    3  A    between atoms: C_6  and  C_8
REMARK    4  A    between atoms: S_9  and  C_10
REMARK    5  A    between atoms: C_10  and  C_11
REMARK                            x       y       z     vdW  Elec       q    Type
REMARK                         _______ _______ _______ _____ _____    ______ ____
ROOT
ATOM      1  C   UNL     1       0.060  -4.962  -1.785  0.00  0.00    +0.150 C 
ENDROOT
BRANCH   1   2
ATOM      2  C   UNL     1       0.079  -6.461  -1.937  0.00  0.00    +0.142 A 
ATOM      3  N   UNL     1       1.238  -7.089  -2.003  0.00  0.00    -0.224 NA
ATOM      4  C   UNL     1       1.276  -8.397  -2.135  0.00  0.00    +0.113 A 
ATOM      5  C   UNL     1       0.088  -9.165  -2.211  0.00  0.00    +0.044 A 
ATOM      6  C   UNL     1       0.297 -10.596  -2.357  0.00  0.00    +0.020 A 
ATOM      7  C   UNL     1       1.549 -11.073  -2.407  0.00  0.00    +0.048 A 
ATOM      8  S   UNL     1       2.561  -9.613  -2.260  0.00  0.00    -0.077 S 
ATOM      9  C   UNL     1      -1.117  -8.429  -2.135  0.00  0.00    +0.141 A 
ATOM     10  N   UNL     1      -1.065  -7.120  -1.997  0.00  0.00    -0.219 NA
ATOM     11 CL   UNL     1      -2.648  -9.243  -2.216  0.00  0.00    -0.061 Cl
ENDBRANCH   1   2
BRANCH   1  12
ATOM     12  S   UNL     1       0.063  -4.533  -0.023  0.00  0.00    -0.117 S 
BRANCH  12  17
ATOM     13  C   UNL     1      -0.018   1.503   0.010  0.00  0.00    +0.044 C 
ATOM     14  C   UNL     1       0.002  -0.004   0.002  0.00  0.00    -0.050 A 
ATOM     15  C   UNL     1       0.006  -0.687  -1.201  0.00  0.00    +0.004 A 
ATOM     16  C   UNL     1       0.024  -2.068  -1.212  0.00  0.00    +0.015 A 
ATOM     17  C   UNL     1       0.040  -2.771  -0.013  0.00  0.00    +0.011 A 
ATOM     18  C   UNL     1       0.036  -2.081   1.193  0.00  0.00    -0.037 A 
ATOM     19  C   UNL     1       0.023  -0.700   1.197  0.00  0.00    +0.007 A 
ATOM     20  C   UNL     1       0.052  -2.839   2.495  0.00  0.00    +0.045 C 
ENDBRANCH  12  17
ENDBRANCH   1  12
TORSDOF 3
