REMARK  Name = ZINC39883207
REMARK  4 active torsions:
REMARK  status: ('A' for Active; 'I' for Inactive)
REMARK    1  A    between atoms: C_3  and  N_11
REMARK    2  A    between atoms: C_6  and  N_7
REMARK    3  A    between atoms: C_12  and  C_14
REMARK    4  A    between atoms: C_14  and  C_15
REMARK                            x       y       z     vdW  Elec       q    Type
REMARK                         _______ _______ _______ _____ _____    ______ ____
ROOT
ATOM      1  N   UNL     1       3.584   2.125  -0.021  0.00  0.00    -0.284 N 
ATOM      2  C   UNL     1       3.568   3.470  -0.116  0.00  0.00    +0.222 C 
ATOM      3  O   UNL     1       2.512   4.066  -0.103  0.00  0.00    -0.275 OA
ATOM      4  H   UNL     1       4.429   1.654   0.049  0.00  0.00    +0.155 HD
ENDROOT
BRANCH   1   7
ATOM      5  C   UNL     1       0.065   1.242  -0.620  0.00  0.00    +0.034 A 
ATOM      6  C   UNL     1       1.250   1.952  -0.618  0.00  0.00    +0.026 A 
ATOM      7  C   UNL     1       2.381   1.409  -0.024  0.00  0.00    +0.048 A 
ATOM      8  C   UNL     1       2.317   0.153   0.567  0.00  0.00    +0.041 A 
ATOM      9  C   UNL     1       1.128  -0.551   0.562  0.00  0.00    +0.049 A 
ATOM     10  C   UNL     1       0.004  -0.007  -0.031  0.00  0.00    +0.127 A 
ATOM     11 BR   UNL     1       3.855  -0.591   1.378  0.00  0.00    -0.048 Br
BRANCH  10  12
ATOM     12  N   UNL     1      -1.268  -0.764  -0.034  0.00  0.00    +0.056 N 
ATOM     13  O   UNL     1      -2.253  -0.289  -0.552  0.00  0.00    -0.126 OA
ATOM     14  O   UNL     1      -1.323  -1.856   0.480  0.00  0.00    -0.126 OA
ENDBRANCH  10  12
ENDBRANCH   1   7
BRANCH   2  15
ATOM     15  C   UNL     1       4.862   4.232  -0.238  0.00  0.00    +0.135 C 
BRANCH  15  16
ATOM     16  C   UNL     1       4.570   5.707  -0.328  0.00  0.00    +0.007 A 
ATOM     17  C   UNL     1       4.444   6.436  -1.445  0.00  0.00    +0.200 A 
ATOM     18  O   UNL     1       4.183   7.718  -1.135  0.00  0.00    -0.463 OA
ATOM     19  C   UNL     1       4.126   7.888   0.201  0.00  0.00    +0.135 A 
ATOM     20  C   UNL     1       4.360   6.634   0.791  0.00  0.00    +0.025 A 
ATOM     21  C   UNL     1       4.356   6.500   2.178  0.00  0.00    +0.032 A 
ATOM     22  C   UNL     1       4.117   7.605   2.968  0.00  0.00    +0.042 A 
ATOM     23  C   UNL     1       3.883   8.844   2.385  0.00  0.00    +0.023 A 
ATOM     24  C   UNL     1       3.892   8.989   1.015  0.00  0.00    +0.048 A 
ATOM     25 CL   UNL     1       4.110   7.448   4.697  0.00  0.00    -0.084 Cl
ENDBRANCH  15  16
ENDBRANCH   2  15
TORSDOF 4
