REMARK  Name = ZINC16325425
REMARK  7 active torsions:
REMARK  status: ('A' for Active; 'I' for Inactive)
REMARK    1  A    between atoms: C_1  and  C_2
REMARK    2  A    between atoms: C_5  and  N_9
REMARK    3  A    between atoms: C_13  and  S_15
REMARK    4  A    between atoms: S_15  and  C_16
REMARK    5  A    between atoms: C_16  and  C_18
REMARK    6  A    between atoms: C_16  and  C_19
REMARK    7  A    between atoms: N_24  and  C_25
REMARK                            x       y       z     vdW  Elec       q    Type
REMARK                         _______ _______ _______ _____ _____    ______ ____
ROOT
ATOM      1  N   UNL     1       0.057  -4.169  -0.022  0.00  0.00    -0.292 N 
ATOM      2  C   UNL     1       0.177  -4.870   1.173  0.00  0.00    +0.187 A 
ATOM      3  N   UNL     1       0.191  -4.415   2.410  0.00  0.00    -0.125 NA
ATOM      4  N   UNL     1       0.321  -5.294   3.461  0.00  0.00    -0.133 NA
ATOM      5  C   UNL     1       0.432  -6.587   3.225  0.00  0.00    +0.161 A 
ATOM      6  S   UNL     1       0.347  -6.628   1.441  0.00  0.00    -0.024 S 
ATOM      7  H   UNL     1      -0.021  -4.649  -0.861  0.00  0.00    +0.154 HD
ENDROOT
BRANCH   1  12
ATOM      8  C   UNL     1       0.030   1.503   0.010  0.00  0.00    +0.045 C 
ATOM      9  C   UNL     1       0.037  -0.004   0.001  0.00  0.00    -0.032 A 
ATOM     10  C   UNL     1       0.648  -0.697   1.030  0.00  0.00    +0.006 A 
ATOM     11  C   UNL     1       0.656  -2.078   1.026  0.00  0.00    +0.023 A 
ATOM     12  C   UNL     1       0.050  -2.772  -0.014  0.00  0.00    +0.034 A 
ATOM     13  C   UNL     1      -0.563  -2.073  -1.047  0.00  0.00    +0.043 A 
ATOM     14  C   UNL     1      -0.573  -0.691  -1.033  0.00  0.00    +0.046 A 
ATOM     15 CL   UNL     1      -1.345   0.183  -2.319  0.00  0.00    -0.083 Cl
ENDBRANCH   1  12
BRANCH   5  16
ATOM     16  S   UNL     1       0.610  -7.919   4.365  0.00  0.00    -0.084 S 
BRANCH  16  17
ATOM     17  C   UNL     1       0.607  -7.110   5.989  0.00  0.00    +0.136 C 
ATOM     18  C   UNL     1       1.843  -6.218   6.115  0.00  0.00    +0.029 C 
BRANCH  17  19
ATOM     19  C   UNL     1       0.631  -8.158   7.072  0.00  0.00    +0.233 C 
ATOM     20  O   UNL     1       1.091  -9.256   6.843  0.00  0.00    -0.274 OA
ATOM     21  N   UNL     1       0.141  -7.874   8.295  0.00  0.00    -0.239 N 
ATOM     22  C   UNL     1       0.163  -8.811   9.263  0.00  0.00    +0.306 C 
ATOM     23  O   UNL     1       0.624  -9.912   9.034  0.00  0.00    -0.252 OA
ATOM     24  N   UNL     1      -0.327  -8.527  10.486  0.00  0.00    -0.302 N 
ATOM     25  C   UNL     1      -0.304  -9.546  11.539  0.00  0.00    +0.129 C 
ATOM     26  H   UNL     1      -0.227  -6.995   8.478  0.00  0.00    +0.159 HD
ATOM     27  H   UNL     1      -0.695  -7.649  10.670  0.00  0.00    +0.150 HD
ENDBRANCH  17  19
ENDBRANCH  16  17
ENDBRANCH   5  16
TORSDOF 4
