REMARK  Name = ZINC09307403
REMARK  6 active torsions:
REMARK  status: ('A' for Active; 'I' for Inactive)
REMARK    1  A    between atoms: C_1  and  C_2
REMARK    2  A    between atoms: C_17  and  S_21
REMARK    3  A    between atoms: S_21  and  C_22
REMARK    4  A    between atoms: C_22  and  C_23
REMARK    5  A    between atoms: N_25  and  C_26
REMARK    6  A    between atoms: C_26  and  C_27
REMARK                            x       y       z     vdW  Elec       q    Type
REMARK                         _______ _______ _______ _____ _____    ______ ____
ROOT
ATOM      1  C   UNL     1      -1.567   3.679  -2.359  0.00  0.00    +0.008 C 
ATOM      2  C   UNL     1      -1.050   3.094  -1.043  0.00  0.00    -0.009 C 
ATOM      3  C   UNL     1      -0.766   1.600  -1.227  0.00  0.00    +0.009 C 
ATOM      4  C   UNL     1      -0.013   1.086   0.008  0.00  0.00    +0.043 C 
ATOM      5  C   UNL     1      -0.724   1.574   1.232  0.00  0.00    -0.004 A 
ATOM      6  C   UNL     1      -1.659   2.548   1.302  0.00  0.00    -0.024 A 
ATOM      7  C   UNL     1      -2.211   2.843   2.624  0.00  0.00    +0.054 A 
ATOM      8  C   UNL     1      -3.239   3.853   2.982  0.00  0.00    +0.169 A 
ATOM      9  N   UNL     1      -3.912   4.727   2.258  0.00  0.00    -0.214 NA
ATOM     10  C   UNL     1      -4.731   5.420   3.046  0.00  0.00    +0.246 A 
ATOM     11  N   UNL     1      -4.600   5.008   4.282  0.00  0.00    -0.150 NA
ATOM     12  N   UNL     1      -3.636   3.988   4.274  0.00  0.00    -0.178 N 
ATOM     13  C   UNL     1      -3.097   3.197   5.273  0.00  0.00    +0.260 A 
ATOM     14  N   UNL     1      -3.306   3.130   6.565  0.00  0.00    -0.107 NA
ATOM     15  N   UNL     1      -2.558   2.224   7.087  0.00  0.00    -0.120 NA
ATOM     16  C   UNL     1      -1.825   1.656   6.159  0.00  0.00    +0.198 A 
ATOM     17  N   UNL     1      -2.142   2.254   4.971  0.00  0.00    -0.248 N 
ATOM     18  C   UNL     1      -1.712   2.084   3.679  0.00  0.00    +0.101 A 
ATOM     19  S   UNL     1      -0.534   1.008   2.901  0.00  0.00    -0.075 S 
ATOM     20  C   UNL     1      -2.103   3.293   0.047  0.00  0.00    +0.040 C 
ENDROOT
BRANCH  16  21
ATOM     21  S   UNL     1      -0.652   0.364   6.398  0.00  0.00    -0.076 S 
BRANCH  21  22
ATOM     22  C   UNL     1      -0.715   0.037   8.181  0.00  0.00    +0.173 C 
BRANCH  22  23
ATOM     23  C   UNL     1       0.255  -1.064   8.525  0.00  0.00    +0.223 C 
ATOM     24  O   UNL     1       0.923  -1.577   7.653  0.00  0.00    -0.275 OA
ATOM     25  N   UNL     1       0.379  -1.477   9.801  0.00  0.00    -0.312 N 
ATOM     26  H   UNL     1      -0.155  -1.067  10.499  0.00  0.00    +0.149 HD
BRANCH  25  27
ATOM     27  C   UNL     1       1.323  -2.547  10.136  0.00  0.00    +0.135 C 
BRANCH  27  28
ATOM     28  C   UNL     1       1.269  -2.823  11.640  0.00  0.00    +0.135 C 
ATOM     29  C   UNL     1       2.258  -3.948  12.002  0.00  0.00    +0.035 C 
ATOM     30  C   UNL     1       3.210  -3.298  13.036  0.00  0.00    +0.031 C 
ATOM     31  C   UNL     1       2.365  -2.103  13.548  0.00  0.00    +0.160 C 
ATOM     32  O   UNL     1       1.671  -1.650  12.366  0.00  0.00    -0.375 OA
ENDBRANCH  27  28
ENDBRANCH  25  27
ENDBRANCH  22  23
ENDBRANCH  21  22
ENDBRANCH  16  21
TORSDOF 5
