REMARK  Name = ZINC39703158
REMARK  8 active torsions:
REMARK  status: ('A' for Active; 'I' for Inactive)
REMARK    1  A    between atoms: C_1  and  C_2
REMARK    2  A    between atoms: N_14  and  C_17
REMARK    3  A    between atoms: C_17  and  C_18
REMARK    4  A    between atoms: C_18  and  N_19
REMARK    5  A    between atoms: C_20  and  C_22
REMARK    6  A    between atoms: C_22  and  C_23
REMARK    7  A    between atoms: C_23  and  S_24
REMARK    8  A    between atoms: S_24  and  C_25
REMARK                            x       y       z     vdW  Elec       q    Type
REMARK                         _______ _______ _______ _____ _____    ______ ____
ROOT
ATOM      1  C   UNL     1      -0.018   1.503   0.010  0.00  0.00    +0.047 C 
ATOM      2  C   UNL     1       0.002  -0.004   0.002  0.00  0.00    -0.006 A 
ATOM      3  C   UNL     1       0.006  -0.676  -1.194  0.00  0.00    +0.046 A 
ATOM      4  C   UNL     1       0.024  -2.063  -1.246  0.00  0.00    +0.021 A 
ATOM      5  C   UNL     1       0.040  -2.784  -0.066  0.00  0.00    +0.019 A 
ATOM      6  C   UNL     1       0.037  -2.120   1.135  0.00  0.00    +0.041 A 
ATOM      7  C   UNL     1       0.023  -0.710   1.227  0.00  0.00    +0.085 A 
ATOM      8  N   UNL     1       0.028  -0.205   2.480  0.00  0.00    -0.224 NA
ATOM      9  C   UNL     1       0.048  -0.969   3.548  0.00  0.00    +0.162 A 
ATOM     10  S   UNL     1       0.052  -2.611   2.842  0.00  0.00    -0.052 S 
ATOM     11  N   UNL     1       0.054  -0.599   4.878  0.00  0.00    -0.313 N 
ATOM     12  C   UNL     1       0.032   0.820   5.268  0.00  0.00    +0.088 C 
ATOM     13  C   UNL     1      -1.082   1.022   6.300  0.00  0.00    -0.059 C 
ATOM     14  N   UNL     1      -0.887   0.089   7.418  0.00  0.00    +0.383 N 
ATOM     15  C   UNL     1      -1.032  -1.294   6.945  0.00  0.00    -0.059 C 
ATOM     16  C   UNL     1       0.078  -1.611   5.945  0.00  0.00    +0.088 C 
ATOM     17 CL   UNL     1      -0.014   0.228  -2.676  0.00  0.00    -0.083 Cl
ATOM     18  H   UNL     1       0.036   0.216   7.803  0.00  0.00    -0.082 HD
ENDROOT
BRANCH  14  19
ATOM     19  C   UNL     1      -1.890   0.357   8.457  0.00  0.00    -0.060 C 
BRANCH  19  20
ATOM     20  C   UNL     1      -1.612  -0.528   9.674  0.00  0.00    +0.085 C 
BRANCH  20  21
ATOM     21  N   UNL     1      -2.612  -0.261  10.711  0.00  0.00    -0.317 N 
ATOM     22  C   UNL     1      -2.566  -0.929  11.880  0.00  0.00    +0.214 C 
ATOM     23  O   UNL     1      -1.696  -1.753  12.074  0.00  0.00    -0.276 OA
ATOM     24  H   UNL     1      -3.307   0.398  10.556  0.00  0.00    +0.149 HD
BRANCH  22  25
ATOM     25  C   UNL     1      -3.594  -0.654  12.947  0.00  0.00    +0.107 C 
BRANCH  25  26
ATOM     26  C   UNL     1      -3.316  -1.540  14.163  0.00  0.00    +0.083 C 
BRANCH  26  27
ATOM     27  S   UNL     1      -4.554  -1.208  15.447  0.00  0.00    -0.125 S 
BRANCH  27  28
ATOM     28  C   UNL     1      -4.104  -2.290  16.763  0.00  0.00    +0.008 A 
ATOM     29  C   UNL     1      -3.000  -3.124  16.631  0.00  0.00    +0.017 A 
ATOM     30  C   UNL     1      -2.649  -3.971  17.664  0.00  0.00    +0.039 A 
ATOM     31  C   UNL     1      -3.395  -3.990  18.830  0.00  0.00    +0.123 A 
ATOM     32  C   UNL     1      -4.496  -3.159  18.964  0.00  0.00    +0.039 A 
ATOM     33  C   UNL     1      -4.848  -2.307  17.936  0.00  0.00    +0.017 A 
ATOM     34  F   UNL     1      -3.050  -4.819  19.839  0.00  0.00    -0.205 F 
ENDBRANCH  27  28
ENDBRANCH  26  27
ENDBRANCH  25  26
ENDBRANCH  22  25
ENDBRANCH  20  21
ENDBRANCH  19  20
ENDBRANCH  14  19
TORSDOF 7
