REMARK  Name = ZINC28055450
REMARK  3 active torsions:
REMARK  status: ('A' for Active; 'I' for Inactive)
REMARK    1  A    between atoms: C_1  and  C_2
REMARK    2  A    between atoms: C_10  and  C_18
REMARK    3  A    between atoms: C_25  and  C_28
REMARK                            x       y       z     vdW  Elec       q    Type
REMARK                         _______ _______ _______ _____ _____    ______ ____
ROOT
ATOM      1  C   UNL     1       2.904   7.100   0.935  0.00  0.00    +0.044 C 
ATOM      2  C   UNL     1       1.875   6.109   0.457  0.00  0.00    -0.050 A 
ATOM      3  C   UNL     1       1.756   5.837  -0.895  0.00  0.00    +0.007 A 
ATOM      4  C   UNL     1       0.817   4.928  -1.349  0.00  0.00    +0.046 A 
ATOM      5  C   UNL     1      -0.010   4.286  -0.447  0.00  0.00    +0.131 A 
ATOM      6  C   UNL     1       0.108   4.562   0.922  0.00  0.00    +0.038 A 
ATOM      7  C   UNL     1       1.054   5.475   1.370  0.00  0.00    +0.016 A 
ATOM      8  C   UNL     1      -0.798   3.859   1.862  0.00  0.00    +0.050 C 
ATOM      9  C   UNL     1      -1.439   2.770   1.432  0.00  0.00    +0.026 C 
ATOM     10  C   UNL     1      -2.394   1.997   2.307  0.00  0.00    +0.174 C 
ATOM     11  N   UNL     1      -2.711   2.764   3.504  0.00  0.00    -0.201 N 
ATOM     12  C   UNL     1      -2.026   3.869   3.898  0.00  0.00    +0.240 A 
ATOM     13  N   UNL     1      -2.570   4.288   5.005  0.00  0.00    -0.092 NA
ATOM     14  N   UNL     1      -3.557   3.526   5.334  0.00  0.00    -0.021 NA
ATOM     15  N   UNL     1      -3.703   2.578   4.466  0.00  0.00    -0.042 NA
ATOM     16  N   UNL     1      -0.964   4.361   3.159  0.00  0.00    -0.282 N 
ATOM     17  C   UNL     1      -1.200   2.284   0.020  0.00  0.00    +0.241 C 
ATOM     18  O   UNL     1      -0.940   3.385  -0.850  0.00  0.00    -0.479 OA
ATOM     19  H   UNL     1      -0.265   5.115   3.550  0.00  0.00    +0.155 HD
ENDROOT
BRANCH  10  20
ATOM     20  C   UNL     1      -1.760   0.690   2.708  0.00  0.00    -0.019 A 
ATOM     21  C   UNL     1      -0.572   0.688   3.415  0.00  0.00    +0.009 A 
ATOM     22  C   UNL     1       0.008  -0.510   3.788  0.00  0.00    +0.039 A 
ATOM     23  C   UNL     1      -0.594  -1.708   3.442  0.00  0.00    +0.123 A 
ATOM     24  C   UNL     1      -1.781  -1.704   2.729  0.00  0.00    +0.039 A 
ATOM     25  C   UNL     1      -2.362  -0.505   2.362  0.00  0.00    +0.009 A 
ATOM     26  F   UNL     1      -0.025  -2.879   3.800  0.00  0.00    -0.205 F 
ENDBRANCH  10  20
BRANCH  17  27
ATOM     27  C   UNL     1      -0.016   1.351   0.009  0.00  0.00    +0.034 A 
ATOM     28  C   UNL     1       0.002  -0.004   0.002  0.00  0.00    +0.015 A 
ATOM     29  C   UNL     1       1.220  -0.658  -0.013  0.00  0.00    +0.008 A 
ATOM     30  C   UNL     1       2.360   0.076  -0.020  0.00  0.00    +0.045 A 
ATOM     31  S   UNL     1       1.725   1.744  -0.005  0.00  0.00    -0.098 S 
ENDBRANCH  17  27
TORSDOF 2
