REMARK  Name = ZINC12500158
REMARK  6 active torsions:
REMARK  status: ('A' for Active; 'I' for Inactive)
REMARK    1  A    between atoms: C_3  and  N_9
REMARK    2  A    between atoms: C_6  and  C_7
REMARK    3  A    between atoms: N_9  and  C_10
REMARK    4  A    between atoms: C_10  and  N_12
REMARK    5  A    between atoms: C_13  and  C_15
REMARK    6  A    between atoms: C_19  and  N_21
REMARK                            x       y       z     vdW  Elec       q    Type
REMARK                         _______ _______ _______ _____ _____    ______ ____
ROOT
ATOM      1  N   UNL     1       2.406  -4.084  -0.243  0.00  0.00    -0.264 N 
ATOM      2  C   UNL     1       3.575  -4.744  -0.359  0.00  0.00    +0.250 C 
ATOM      3  O   UNL     1       4.623  -4.129  -0.367  0.00  0.00    -0.270 OA
ATOM      4  H   UNL     1       1.570  -4.575  -0.238  0.00  0.00    +0.157 HD
ENDROOT
BRANCH   2   5
ATOM      5  C   UNL     1       3.583  -6.217  -0.478  0.00  0.00    +0.039 A 
ATOM      6  C   UNL     1       2.381  -6.927  -0.464  0.00  0.00    +0.014 A 
ATOM      7  C   UNL     1       2.394  -8.301  -0.579  0.00  0.00    +0.023 A 
ATOM      8  C   UNL     1       3.597  -8.977  -0.699  0.00  0.00    +0.071 A 
ATOM      9  C   UNL     1       4.793  -8.279  -0.708  0.00  0.00    +0.145 A 
ATOM     10  C   UNL     1       4.792  -6.904  -0.598  0.00  0.00    +0.047 A 
ATOM     11 CL   UNL     1       3.606 -10.708  -0.838  0.00  0.00    -0.081 Cl
BRANCH   9  12
ATOM     12  N   UNL     1       6.074  -9.009  -0.836  0.00  0.00    +0.058 N 
ATOM     13  O   UNL     1       7.126  -8.396  -0.844  0.00  0.00    -0.126 OA
ATOM     14  O   UNL     1       6.076 -10.223  -0.933  0.00  0.00    -0.126 OA
ENDBRANCH   9  12
ENDBRANCH   2   5
BRANCH   1  15
ATOM     15  C   UNL     1       2.399  -2.740  -0.136  0.00  0.00    +0.141 C 
ATOM     16  S   UNL     1       3.875  -1.873  -0.146  0.00  0.00    -0.018 S 
BRANCH  15  17
ATOM     17  N   UNL     1       1.230  -2.079  -0.019  0.00  0.00    -0.297 N 
ATOM     18  H   UNL     1       0.400  -2.574   0.067  0.00  0.00    +0.154 HD
BRANCH  17  21
ATOM     19  C   UNL     1       2.000   1.392  -0.929  0.00  0.00    +0.020 A 
ATOM     20  C   UNL     1       2.014   0.015  -0.922  0.00  0.00    +0.024 A 
ATOM     21  C   UNL     1       1.214  -0.685  -0.024  0.00  0.00    +0.033 A 
ATOM     22  C   UNL     1       0.398   0.003   0.869  0.00  0.00    +0.024 A 
ATOM     23  C   UNL     1       0.379   1.379   0.866  0.00  0.00    +0.020 A 
ATOM     24  C   UNL     1       1.181   2.086  -0.034  0.00  0.00    +0.052 A 
BRANCH  24  25
ATOM     25  C   UNL     1       1.164   3.518  -0.039  0.00  0.00    +0.099 C 
ATOM     26  N   UNL     1       1.151   4.654  -0.043  0.00  0.00    -0.191 NA
ENDBRANCH  24  25
ENDBRANCH  17  21
ENDBRANCH  15  17
ENDBRANCH   1  15
TORSDOF 6
