REMARK  Name = ZINC22876374
REMARK  7 active torsions:
REMARK  status: ('A' for Active; 'I' for Inactive)
REMARK    1  A    between atoms: C_1  and  C_2
REMARK    2  A    between atoms: C_4  and  C_7
REMARK    3  A    between atoms: C_7  and  S_8
REMARK    4  A    between atoms: S_8  and  C_9
REMARK    5  A    between atoms: C_14  and  C_15
REMARK    6  A    between atoms: N_24  and  C_27
REMARK    7  A    between atoms: C_27  and  C_28
REMARK                            x       y       z     vdW  Elec       q    Type
REMARK                         _______ _______ _______ _____ _____    ______ ____
ROOT
ATOM      1  C   UNL     1       4.087  -5.336  -3.182  0.00  0.00    +0.251 C 
ATOM      2  O   UNL     1       4.202  -4.362  -2.463  0.00  0.00    -0.270 OA
ATOM      3  N   UNL     1       5.186  -5.956  -3.656  0.00  0.00    -0.261 N 
ATOM      4  C   UNL     1       6.449  -5.483  -3.325  0.00  0.00    +0.165 A 
ATOM      5  N   UNL     1       6.763  -4.456  -2.564  0.00  0.00    -0.229 NA
ATOM      6  C   UNL     1       8.025  -4.117  -2.333  0.00  0.00    +0.050 A 
ATOM      7  C   UNL     1       8.952  -4.906  -2.941  0.00  0.00    -0.002 A 
ATOM      8  S   UNL     1       7.951  -6.088  -3.794  0.00  0.00    -0.059 S 
ATOM      9  C   UNL     1      10.433  -4.763  -2.868  0.00  0.00    -0.033 C 
ATOM     10  N   UNL     1      10.743  -3.421  -2.339  0.00  0.00    +0.386 N 
ATOM     11  C   UNL     1       9.962  -3.181  -1.119  0.00  0.00    -0.072 C 
ATOM     12  C   UNL     1       8.486  -2.954  -1.464  0.00  0.00    +0.038 C 
ATOM     13  H   UNL     1       5.094  -6.734  -4.229  0.00  0.00    +0.157 HD
ATOM     14  H   UNL     1      10.508  -2.725  -3.031  0.00  0.00    -0.081 HD
ENDROOT
BRANCH   1  20
ATOM     15  C   UNL     1       1.600  -5.195  -3.041  0.00  0.00    +0.020 A 
ATOM     16  C   UNL     1       0.342  -5.676  -3.385  0.00  0.00    +0.015 A 
ATOM     17  C   UNL     1       0.224  -6.782  -4.200  0.00  0.00    +0.001 A 
ATOM     18  C   UNL     1       1.355  -7.422  -4.684  0.00  0.00    +0.001 A 
ATOM     19  C   UNL     1       2.611  -6.961  -4.354  0.00  0.00    +0.014 A 
ATOM     20  C   UNL     1       2.748  -5.838  -3.533  0.00  0.00    +0.050 A 
BRANCH  15  21
ATOM     21  S   UNL     1       1.754  -3.783  -1.999  0.00  0.00    -0.117 S 
BRANCH  21  22
ATOM     22  C   UNL     1       0.039  -3.320  -1.631  0.00  0.00    +0.151 C 
BRANCH  22  26
ATOM     23  C   UNL     1      -0.018   1.503   0.010  0.00  0.00    +0.069 C 
ATOM     24  C   UNL     1       0.002  -0.004   0.002  0.00  0.00    +0.081 A 
ATOM     25  C   UNL     1       0.008  -0.824  -1.141  0.00  0.00    +0.071 A 
ATOM     26  C   UNL     1       0.027  -2.108  -0.735  0.00  0.00    +0.148 A 
ATOM     27  O   UNL     1       0.034  -2.119   0.606  0.00  0.00    -0.359 OA
ATOM     28  N   UNL     1       0.023  -0.775   1.052  0.00  0.00    -0.083 NA
ENDBRANCH  22  26
ENDBRANCH  21  22
ENDBRANCH  15  21
ENDBRANCH   1  20
BRANCH  10  29
ATOM     29  C   UNL     1      12.176  -3.336  -2.028  0.00  0.00    -0.043 C 
BRANCH  29  30
ATOM     30  C   UNL     1      12.975  -3.457  -3.300  0.00  0.00    -0.064 A 
ATOM     31  C   UNL     1      13.376  -4.702  -3.748  0.00  0.00    +0.002 A 
ATOM     32  C   UNL     1      14.109  -4.813  -4.915  0.00  0.00    +0.000 A 
ATOM     33  C   UNL     1      14.440  -3.680  -5.634  0.00  0.00    +0.000 A 
ATOM     34  C   UNL     1      14.037  -2.435  -5.186  0.00  0.00    +0.000 A 
ATOM     35  C   UNL     1      13.301  -2.324  -4.022  0.00  0.00    +0.002 A 
ENDBRANCH  29  30
ENDBRANCH  10  29
TORSDOF 6
