REMARK  Name = ZINC06984715
REMARK  6 active torsions:
REMARK  status: ('A' for Active; 'I' for Inactive)
REMARK    1  A    between atoms: C_1  and  C_2
REMARK    2  A    between atoms: C_2  and  C_4
REMARK    3  A    between atoms: C_2  and  O_20
REMARK    4  A    between atoms: N_6  and  N_7
REMARK    5  A    between atoms: C_8  and  C_10
REMARK    6  A    between atoms: O_20  and  C_21
REMARK                            x       y       z     vdW  Elec       q    Type
REMARK                         _______ _______ _______ _____ _____    ______ ____
ROOT
ATOM      1  C   UNL     1       2.364   0.858   0.151  0.00  0.00    +0.270 C 
ATOM      2  O   UNL     1       2.458  -0.335  -0.047  0.00  0.00    -0.270 OA
ATOM      3  N   UNL     1       1.152   1.417   0.339  0.00  0.00    -0.231 N 
ATOM      4  H   UNL     1       1.077   2.370   0.498  0.00  0.00    +0.173 HD
ENDROOT
BRANCH   3   5
ATOM      5  N   UNL     1       0.001   0.619   0.306  0.00  0.00    -0.229 N 
ATOM      6  C   UNL     1      -1.212   1.178   0.488  0.00  0.00    +0.278 C 
ATOM      7  O   UNL     1      -1.306   2.373   0.687  0.00  0.00    -0.267 OA
ATOM      8  H   UNL     1       0.076  -0.335   0.147  0.00  0.00    +0.173 HD
BRANCH   6   9
ATOM      9  C   UNL     1      -2.431   0.335   0.447  0.00  0.00    +0.127 A 
ATOM     10  C   UNL     1      -3.685   0.933   0.639  0.00  0.00    +0.034 A 
ATOM     11  C   UNL     1      -4.815   0.168   0.604  0.00  0.00    +0.012 A 
ATOM     12  C   UNL     1      -4.677  -1.214   0.372  0.00  0.00    +0.000 A 
ATOM     13  C   UNL     1      -5.796  -2.060   0.322  0.00  0.00    +0.010 A 
ATOM     14  C   UNL     1      -5.624  -3.391   0.095  0.00  0.00    +0.001 A 
ATOM     15  C   UNL     1      -4.351  -3.928  -0.089  0.00  0.00    +0.002 A 
ATOM     16  C   UNL     1      -3.243  -3.139  -0.047  0.00  0.00    +0.028 A 
ATOM     17  C   UNL     1      -3.379  -1.757   0.185  0.00  0.00    +0.072 A 
ATOM     18  N   UNL     1      -2.312  -0.960   0.225  0.00  0.00    -0.242 NA
ENDBRANCH   6   9
ENDBRANCH   3   5
BRANCH   1  20
ATOM     19  C   UNL     1       3.572   2.704  -0.981  0.00  0.00    +0.062 C 
ATOM     20  C   UNL     1       3.603   1.716   0.187  0.00  0.00    +0.257 C 
BRANCH  20  21
ATOM     21  O   UNL     1       4.761   0.886   0.079  0.00  0.00    -0.477 OA
BRANCH  21  22
ATOM     22  C   UNL     1       5.919   1.372   0.599  0.00  0.00    +0.157 A 
ATOM     23  C   UNL     1       5.968   2.664   1.098  0.00  0.00    +0.048 A 
ATOM     24  C   UNL     1       7.146   3.156   1.627  0.00  0.00    +0.004 A 
ATOM     25  C   UNL     1       8.276   2.360   1.660  0.00  0.00    +0.003 A 
ATOM     26  C   UNL     1       8.232   1.071   1.164  0.00  0.00    +0.042 A 
ATOM     27  C   UNL     1       7.054   0.572   0.637  0.00  0.00    +0.165 A 
ATOM     28  F   UNL     1       7.009  -0.690   0.157  0.00  0.00    -0.202 F 
ENDBRANCH  21  22
ENDBRANCH  20  21
ENDBRANCH   1  20
TORSDOF 5
