REMARK  Name = ZINC66256555
REMARK  7 active torsions:
REMARK  status: ('A' for Active; 'I' for Inactive)
REMARK    1  A    between atoms: C_1  and  C_2
REMARK    2  A    between atoms: N_10  and  C_23
REMARK    3  A    between atoms: C_11  and  S_13
REMARK    4  A    between atoms: S_13  and  C_14
REMARK    5  A    between atoms: C_14  and  C_15
REMARK    6  A    between atoms: C_15  and  C_16
REMARK    7  A    between atoms: C_16  and  C_17
REMARK                            x       y       z     vdW  Elec       q    Type
REMARK                         _______ _______ _______ _____ _____    ______ ____
ROOT
ATOM      1  C   UNL     1      -0.018   1.503   0.010  0.00  0.00    +0.044 C 
ATOM      2  C   UNL     1       0.002  -0.004   0.002  0.00  0.00    -0.050 A 
ATOM      3  C   UNL     1       0.006  -0.684  -1.209  0.00  0.00    +0.005 A 
ATOM      4  C   UNL     1       0.024  -2.050  -1.248  0.00  0.00    +0.029 A 
ATOM      5  C   UNL     1       0.039  -2.776  -0.054  0.00  0.00    +0.079 A 
ATOM      6  C   UNL     1       0.036  -2.081   1.176  0.00  0.00    +0.065 A 
ATOM      7  C   UNL     1       0.023  -0.687   1.187  0.00  0.00    +0.018 A 
ATOM      8  C   UNL     1       0.053  -2.866   2.418  0.00  0.00    +0.262 A 
ATOM      9  O   UNL     1       0.051  -2.325   3.508  0.00  0.00    -0.267 OA
ATOM     10  N   UNL     1       0.071  -4.215   2.304  0.00  0.00    -0.290 N 
ATOM     11  C   UNL     1       0.072  -4.805   1.072  0.00  0.00    +0.172 A 
ATOM     12  N   UNL     1       0.057  -4.125  -0.047  0.00  0.00    -0.223 NA
ATOM     13  C   UNL     1       0.089  -5.046   3.510  0.00  0.00    +0.154 C 
ENDROOT
BRANCH  11  14
ATOM     14  S   UNL     1       0.097  -6.565   0.985  0.00  0.00    -0.088 S 
BRANCH  14  15
ATOM     15  C   UNL     1       0.092  -6.916  -0.795  0.00  0.00    +0.078 C 
BRANCH  15  16
ATOM     16  C   UNL     1       0.112  -8.430  -1.016  0.00  0.00    +0.020 C 
BRANCH  16  17
ATOM     17  C   UNL     1       0.108  -8.726  -2.517  0.00  0.00    +0.097 C 
BRANCH  17  18
ATOM     18  C   UNL     1       0.128 -10.217  -2.735  0.00  0.00    +0.220 C 
ATOM     19  O   UNL     1       0.143 -10.968  -1.784  0.00  0.00    -0.275 OA
ATOM     20  N   UNL     1       0.128 -10.715  -3.988  0.00  0.00    -0.240 N 
ATOM     21  C   UNL     1       0.145 -12.048  -4.183  0.00  0.00    +0.303 C 
ATOM     22  O   UNL     1       0.161 -12.802  -3.229  0.00  0.00    -0.253 OA
ATOM     23  N   UNL     1       0.146 -12.546  -5.435  0.00  0.00    -0.313 N 
ATOM     24  H   UNL     1       0.116 -10.113  -4.749  0.00  0.00    +0.159 HD
ATOM     25  H   UNL     1       0.133 -11.945  -6.196  0.00  0.00    +0.146 HD
ATOM     26  H   UNL     1       0.158 -13.506  -5.575  0.00  0.00    +0.146 HD
ENDBRANCH  17  18
ENDBRANCH  16  17
ENDBRANCH  15  16
ENDBRANCH  14  15
ENDBRANCH  11  14
TORSDOF 5
