REMARK  Name = ZINC29232792
REMARK  5 active torsions:
REMARK  status: ('A' for Active; 'I' for Inactive)
REMARK    1  A    between atoms: C_1  and  C_2
REMARK    2  A    between atoms: C_4  and  C_23
REMARK    3  A    between atoms: C_6  and  O_8
REMARK    4  A    between atoms: O_8  and  S_9
REMARK    5  A    between atoms: S_9  and  C_12
REMARK                            x       y       z     vdW  Elec       q    Type
REMARK                         _______ _______ _______ _____ _____    ______ ____
ROOT
ATOM      1  S   UNL     1       5.008  -0.494  -3.858  0.00  0.00    +0.151 S 
ATOM      2  O   UNL     1       4.325  -1.613  -4.406  0.00  0.00    -0.131 OA
ATOM      3  O   UNL     1       5.521   0.556  -4.667  0.00  0.00    -0.131 OA
ENDROOT
BRANCH   1   4
ATOM      4  C   UNL     1       3.905   0.252  -2.704  0.00  0.00    +0.130 A 
ATOM      5  C   UNL     1       4.049   1.588  -2.378  0.00  0.00    +0.034 A 
ATOM      6  C   UNL     1       3.188   2.181  -1.472  0.00  0.00    +0.049 A 
ATOM      7  C   UNL     1       2.179   1.435  -0.891  0.00  0.00    +0.142 A 
ATOM      8  C   UNL     1       2.034   0.088  -1.219  0.00  0.00    +0.078 A 
ATOM      9  C   UNL     1       2.899  -0.500  -2.126  0.00  0.00    +0.057 A 
ATOM     10  N   UNL     1       1.007  -0.657  -0.621  0.00  0.00    -0.280 N 
ATOM     11  C   UNL     1       0.002  -0.004   0.002  0.00  0.00    +0.255 C 
ATOM     12  O   UNL     1      -0.881  -0.628   0.552  0.00  0.00    -0.272 OA
ATOM     13  C   UNL     1      -0.018   1.503   0.010  0.00  0.00    +0.325 C 
ATOM     14  O   UNL     1       1.322   2.002   0.000  0.00  0.00    -0.481 OA
ATOM     15  H   UNL     1       1.028  -1.756  -0.664  0.00  0.00    +0.155 HD
ENDBRANCH   1   4
BRANCH   1  16
ATOM     16  O   UNL     1       6.184  -1.046  -3.065  0.00  0.00    -0.342 OA
BRANCH  16  22
ATOM     17  C   UNL     1       4.618  -3.195   1.028  0.00  0.00    +0.044 C 
ATOM     18  C   UNL     1       5.137  -3.272  -0.384  0.00  0.00    -0.047 A 
ATOM     19  C   UNL     1       5.327  -4.504  -0.984  0.00  0.00    +0.007 A 
ATOM     20  C   UNL     1       5.803  -4.578  -2.280  0.00  0.00    -0.047 A 
ATOM     21  C   UNL     1       6.090  -3.422  -2.979  0.00  0.00    +0.052 A 
ATOM     22  C   UNL     1       5.901  -2.185  -2.380  0.00  0.00    +0.157 A 
ATOM     23  C   UNL     1       5.429  -2.113  -1.077  0.00  0.00    +0.052 A 
ATOM     24  C   UNL     1       6.007  -5.922  -2.930  0.00  0.00    +0.044 C 
ENDBRANCH  16  22
ENDBRANCH   1  16
TORSDOF 3
