REMARK  Name = ZINC02966934
REMARK  5 active torsions:
REMARK  status: ('A' for Active; 'I' for Inactive)
REMARK    1  A    between atoms: C_1  and  C_2
REMARK    2  A    between atoms: C_5  and  C_8
REMARK    3  A    between atoms: C_8  and  N_9
REMARK    4  A    between atoms: C_10  and  C_12
REMARK    5  A    between atoms: C_12  and  C_13
REMARK                            x       y       z     vdW  Elec       q    Type
REMARK                         _______ _______ _______ _____ _____    ______ ____
ROOT
ATOM      1  C   UNL     1       3.157  -8.081  -0.059  0.00  0.00    +0.202 C 
ATOM      2  C   UNL     1       4.580  -8.594   0.006  0.00  0.00    +0.252 C 
ATOM      3  O   UNL     1       5.385  -8.413   0.894  0.00  0.00    -0.272 OA
ATOM      4  N   UNL     1       4.763  -9.297  -1.136  0.00  0.00    -0.203 N 
ATOM      5  C   UNL     1       3.608  -9.277  -1.903  0.00  0.00    +0.138 C 
ATOM      6  N   UNL     1       2.648  -8.596  -1.338  0.00  0.00    -0.255 NA
ATOM      7  C   UNL     1       3.622 -10.000  -3.197  0.00  0.00    +0.036 A 
ATOM      8  C   UNL     1       2.505 -10.027  -4.025  0.00  0.00    +0.013 A 
ATOM      9  C   UNL     1       2.562 -10.712  -5.222  0.00  0.00    +0.001 A 
ATOM     10  C   UNL     1       3.723 -11.369  -5.598  0.00  0.00    +0.002 A 
ATOM     11  C   UNL     1       4.838 -11.348  -4.783  0.00  0.00    +0.024 A 
ATOM     12  C   UNL     1       4.798 -10.664  -3.578  0.00  0.00    +0.043 A 
ATOM     13  N   UNL     1       5.899 -10.621  -2.733  0.00  0.00    -0.296 N 
ATOM     14  C   UNL     1       5.856  -9.959  -1.568  0.00  0.00    +0.149 C 
ATOM     15  S   UNL     1       7.255  -9.951  -0.582  0.00  0.00    -0.018 S 
ATOM     16  H   UNL     1       6.715 -11.079  -2.990  0.00  0.00    +0.154 HD
ENDROOT
BRANCH   1  17
ATOM     17  C   UNL     1       3.137  -6.551  -0.051  0.00  0.00    +0.132 C 
BRANCH  17  19
ATOM     18  N   UNL     1       1.447  -4.746  -0.032  0.00  0.00    -0.311 N 
ATOM     19  C   UNL     1       1.710  -6.067  -0.040  0.00  0.00    +0.216 C 
ATOM     20  O   UNL     1       0.799  -6.867  -0.040  0.00  0.00    -0.276 OA
ATOM     21  H   UNL     1       2.176  -4.106  -0.032  0.00  0.00    +0.149 HD
BRANCH  18  22
ATOM     22  C   UNL     1       0.059  -4.275  -0.021  0.00  0.00    +0.139 C 
BRANCH  22  27
ATOM     23  C   UNL     1      -0.018   1.503   0.010  0.00  0.00    +0.044 C 
ATOM     24  C   UNL     1       0.002  -0.004   0.002  0.00  0.00    -0.050 A 
ATOM     25  C   UNL     1       0.006  -0.689  -1.199  0.00  0.00    +0.003 A 
ATOM     26  C   UNL     1       0.025  -2.071  -1.206  0.00  0.00    +0.005 A 
ATOM     27  C   UNL     1       0.040  -2.768  -0.013  0.00  0.00    -0.030 A 
ATOM     28  C   UNL     1       0.037  -2.084   1.188  0.00  0.00    +0.005 A 
ATOM     29  C   UNL     1       0.023  -0.702   1.195  0.00  0.00    +0.003 A 
ENDBRANCH  22  27
ENDBRANCH  18  22
ENDBRANCH  17  19
ENDBRANCH   1  17
TORSDOF 4
