REMARK  Name = ZINC04659792
REMARK  8 active torsions:
REMARK  status: ('A' for Active; 'I' for Inactive)
REMARK    1  A    between atoms: C_1  and  C_2
REMARK    2  A    between atoms: C_5  and  C_8
REMARK    3  A    between atoms: C_15  and  N_30
REMARK    4  A    between atoms: C_16  and  C_28
REMARK    5  A    between atoms: C_17  and  C_19
REMARK    6  A    between atoms: C_22  and  O_26
REMARK    7  A    between atoms: C_23  and  O_25
REMARK    8  A    between atoms: O_26  and  C_27
REMARK                            x       y       z     vdW  Elec       q    Type
REMARK                         _______ _______ _______ _____ _____    ______ ____
ROOT
ATOM      1  C   UNL     1      -0.078  -4.640   0.056  0.00  0.00    +0.100 A 
ATOM      2  C   UNL     1       0.800  -5.282   0.935  0.00  0.00    +0.054 A 
ATOM      3  C   UNL     1       0.697  -6.627   0.727  0.00  0.00    +0.223 A 
ATOM      4  N   UNL     1      -0.216  -6.823  -0.247  0.00  0.00    -0.246 N 
ATOM      5  H   UNL     1      -0.496  -7.681  -0.602  0.00  0.00    +0.192 HD
ATOM      6  N   UNL     1      -0.694  -5.567  -0.652  0.00  0.00    -0.171 NA
ATOM      7  O   UNL     1       1.426  -7.533   1.425  0.00  0.00    -0.423 OA
ATOM      8  C   UNL     1       2.467  -7.074   2.148  0.00  0.00    +0.200 C 
ATOM      9  C   UNL     1       2.668  -5.767   2.431  0.00  0.00    +0.098 C 
ATOM     10  C   UNL     1       1.730  -4.685   1.959  0.00  0.00    +0.102 C 
ENDROOT
BRANCH   1  15
ATOM     11  C   UNL     1      -0.883   1.047  -0.378  0.00  0.00    +0.044 C 
ATOM     12  C   UNL     1      -0.672  -0.441  -0.264  0.00  0.00    -0.050 A 
ATOM     13  C   UNL     1       0.607  -0.947  -0.123  0.00  0.00    +0.004 A 
ATOM     14  C   UNL     1       0.806  -2.309  -0.018  0.00  0.00    +0.010 A 
ATOM     15  C   UNL     1      -0.286  -3.174  -0.055  0.00  0.00    +0.003 A 
ATOM     16  C   UNL     1      -1.572  -2.659  -0.198  0.00  0.00    +0.010 A 
ATOM     17  C   UNL     1      -1.760  -1.295  -0.297  0.00  0.00    +0.004 A 
ENDBRANCH   1  15
BRANCH  10  18
ATOM     18  C   UNL     1       0.932  -4.160   3.125  0.00  0.00    -0.031 A 
ATOM     19  C   UNL     1       0.074  -5.001   3.809  0.00  0.00    +0.008 A 
ATOM     20  C   UNL     1      -0.660  -4.524   4.879  0.00  0.00    +0.050 A 
ATOM     21  C   UNL     1      -0.536  -3.200   5.268  0.00  0.00    +0.161 A 
ATOM     22  C   UNL     1       0.327  -2.353   4.580  0.00  0.00    +0.159 A 
ATOM     23  C   UNL     1       1.063  -2.839   3.511  0.00  0.00    +0.053 A 
BRANCH  22  24
ATOM     24  O   UNL     1       0.451  -1.053   4.959  0.00  0.00    -0.503 OA
ATOM     25  H   UNL     1       1.143  -0.899   5.617  0.00  0.00    +0.292 HD
ENDBRANCH  22  24
BRANCH  21  26
ATOM     26  O   UNL     1      -1.258  -2.729   6.321  0.00  0.00    -0.491 OA
ATOM     27  C   UNL     1      -2.124  -3.655   6.979  0.00  0.00    +0.277 C 
ENDBRANCH  21  26
ENDBRANCH  10  18
BRANCH   8  28
ATOM     28  N   UNL     1       3.375  -7.986   2.626  0.00  0.00    -0.328 N 
ATOM     29  H   UNL     1       3.257  -8.930   2.440  0.00  0.00    +0.145 HD
ATOM     30  H   UNL     1       4.134  -7.686   3.150  0.00  0.00    +0.145 HD
ENDBRANCH   8  28
BRANCH   9  31
ATOM     31  C   UNL     1       3.814  -5.398   3.206  0.00  0.00    +0.101 C 
ATOM     32  N   UNL     1       4.723  -5.104   3.821  0.00  0.00    -0.191 NA
ENDBRANCH   9  31
TORSDOF 6
