REMARK  Name = ZINC08887055
REMARK  6 active torsions:
REMARK  status: ('A' for Active; 'I' for Inactive)
REMARK    1  A    between atoms: C_1  and  C_2
REMARK    2  A    between atoms: C_2  and  C_21
REMARK    3  A    between atoms: N_5  and  C_9
REMARK    4  A    between atoms: C_9  and  C_10
REMARK    5  A    between atoms: N_12  and  C_13
REMARK    6  A    between atoms: C_18  and  C_19
REMARK                            x       y       z     vdW  Elec       q    Type
REMARK                         _______ _______ _______ _____ _____    ______ ____
ROOT
ATOM      1  C   UNL     1      -0.017   1.534   0.003  0.00  0.00    +0.047 C 
ATOM      2  C   UNL     1      -0.003   0.004  -0.014  0.00  0.00    +0.135 C 
ATOM      3  C   UNL     1       0.813  -0.508  -1.184  0.00  0.00    +0.251 C 
ATOM      4  O   UNL     1       0.599  -0.323  -2.363  0.00  0.00    -0.272 OA
ATOM      5  N   UNL     1       1.825  -1.213  -0.641  0.00  0.00    -0.215 N 
ATOM      6  C   UNL     1       1.764  -1.216   0.695  0.00  0.00    +0.310 C 
ATOM      7  O   UNL     1       2.567  -1.786   1.407  0.00  0.00    -0.252 OA
ATOM      8  N   UNL     1       0.712  -0.520   1.163  0.00  0.00    -0.281 N 
ATOM      9  H   UNL     1       0.472  -0.388   2.093  0.00  0.00    +0.152 HD
ENDROOT
BRANCH   2  10
ATOM     10  C   UNL     1      -1.408  -0.537  -0.065  0.00  0.00    -0.015 A 
ATOM     11  C   UNL     1      -2.002  -0.789  -1.300  0.00  0.00    +0.007 A 
ATOM     12  C   UNL     1      -3.270  -1.278  -1.382  0.00  0.00    +0.009 A 
ATOM     13  C   UNL     1      -3.993  -1.533  -0.204  0.00  0.00    -0.018 A 
ATOM     14  C   UNL     1      -5.304  -2.038  -0.248  0.00  0.00    +0.008 A 
ATOM     15  C   UNL     1      -5.974  -2.274   0.912  0.00  0.00    +0.001 A 
ATOM     16  C   UNL     1      -5.380  -2.022   2.148  0.00  0.00    +0.001 A 
ATOM     17  C   UNL     1      -4.113  -1.533   2.229  0.00  0.00    +0.008 A 
ATOM     18  C   UNL     1      -3.389  -1.277   1.052  0.00  0.00    -0.018 A 
ATOM     19  C   UNL     1      -2.077  -0.777   1.096  0.00  0.00    +0.014 A 
ENDBRANCH   2  10
BRANCH   5  20
ATOM     20  C   UNL     1       2.865  -1.892  -1.419  0.00  0.00    +0.214 C 
BRANCH  20  21
ATOM     21  C   UNL     1       4.018  -0.949  -1.646  0.00  0.00    +0.235 C 
ATOM     22  O   UNL     1       3.976   0.179  -1.203  0.00  0.00    -0.274 OA
ATOM     23  N   UNL     1       5.097  -1.360  -2.343  0.00  0.00    -0.283 N 
ATOM     24  H   UNL     1       5.167  -2.284  -2.629  0.00  0.00    +0.155 HD
BRANCH  23  25
ATOM     25  C   UNL     1       6.112  -0.456  -2.652  0.00  0.00    +0.051 A 
ATOM     26  C   UNL     1       5.837   0.902  -2.728  0.00  0.00    +0.024 A 
ATOM     27  C   UNL     1       6.844   1.796  -3.035  0.00  0.00    +0.002 A 
ATOM     28  C   UNL     1       8.133   1.347  -3.269  0.00  0.00    +0.001 A 
ATOM     29  C   UNL     1       8.425   0.001  -3.199  0.00  0.00    +0.021 A 
ATOM     30  C   UNL     1       7.418  -0.914  -2.883  0.00  0.00    +0.073 A 
BRANCH  30  31
ATOM     31  C   UNL     1       7.715  -2.312  -2.802  0.00  0.00    +0.101 C 
ATOM     32  N   UNL     1       7.951  -3.422  -2.737  0.00  0.00    -0.191 NA
ENDBRANCH  30  31
ENDBRANCH  23  25
ENDBRANCH  20  21
ENDBRANCH   5  20
TORSDOF 5
