REMARK  Name = ZINC38624932
REMARK  7 active torsions:
REMARK  status: ('A' for Active; 'I' for Inactive)
REMARK    1  A    between atoms: C_1  and  N_2
REMARK    2  A    between atoms: N_5  and  C_8
REMARK    3  A    between atoms: C_8  and  C_10
REMARK    4  A    between atoms: C_8  and  C_22
REMARK    5  A    between atoms: C_10  and  N_11
REMARK    6  A    between atoms: N_14  and  C_15
REMARK    7  A    between atoms: C_15  and  C_16
REMARK                            x       y       z     vdW  Elec       q    Type
REMARK                         _______ _______ _______ _____ _____    ______ ____
ROOT
ATOM      1  C   UNL     1       1.463  -3.965  -0.037  0.00  0.00    +0.104 C 
ENDROOT
BRANCH   1   2
ATOM      2  C   UNL     1       2.214  -4.375   1.204  0.00  0.00    -0.025 A 
ATOM      3  C   UNL     1       1.968  -3.734   2.403  0.00  0.00    +0.009 A 
ATOM      4  C   UNL     1       2.653  -4.107   3.544  0.00  0.00    +0.050 A 
ATOM      5  C   UNL     1       3.590  -5.127   3.487  0.00  0.00    +0.166 A 
ATOM      6  C   UNL     1       3.839  -5.773   2.279  0.00  0.00    +0.167 A 
ATOM      7  C   UNL     1       3.143  -5.397   1.141  0.00  0.00    +0.054 A 
ATOM      8  O   UNL     1       4.793  -6.728   2.483  0.00  0.00    -0.453 OA
ATOM      9  C   UNL     1       5.418  -6.385   3.734  0.00  0.00    +0.466 C 
ATOM     10  O   UNL     1       4.388  -5.676   4.449  0.00  0.00    -0.453 OA
ENDBRANCH   1   2
BRANCH   1  15
ATOM     11  C   UNL     1       4.289   0.804  -1.051  0.00  0.00    -0.096 C 
ATOM     12  N   UNL     1       3.816  -0.488  -0.536  0.00  0.00    +0.379 N 
ATOM     13  C   UNL     1       2.460  -0.332   0.007  0.00  0.00    -0.064 C 
ATOM     14  C   UNL     1       1.975  -1.674   0.561  0.00  0.00    +0.066 C 
ATOM     15  N   UNL     1       1.978  -2.675  -0.516  0.00  0.00    -0.297 NA
ATOM     16  C   UNL     1       3.324  -2.824  -1.086  0.00  0.00    +0.066 C 
ATOM     17  C   UNL     1       3.799  -1.473  -1.626  0.00  0.00    -0.064 C 
ATOM     18  H   UNL     1       4.436  -0.806   0.194  0.00  0.00    -0.082 HD
ENDBRANCH   1  15
BRANCH   1  19
ATOM     19  C   UNL     1      -0.025  -3.831   0.289  0.00  0.00    +0.129 C 
BRANCH  19  20
ATOM     20  N   UNL     1      -0.743  -3.348  -0.894  0.00  0.00    -0.298 N 
ATOM     21  C   UNL     1      -2.086  -3.243  -0.871  0.00  0.00    +0.300 C 
ATOM     22  O   UNL     1      -2.703  -3.548   0.132  0.00  0.00    -0.253 OA
ATOM     23  N   UNL     1      -2.746  -2.799  -1.959  0.00  0.00    -0.295 N 
ATOM     24  H   UNL     1      -0.251  -3.105  -1.693  0.00  0.00    +0.150 HD
ATOM     25  H   UNL     1      -2.254  -2.555  -2.759  0.00  0.00    +0.151 HD
BRANCH  23  26
ATOM     26  C   UNL     1      -4.206  -2.684  -1.934  0.00  0.00    +0.141 C 
BRANCH  26  27
ATOM     27  C   UNL     1      -4.692  -2.169  -3.264  0.00  0.00    -0.030 A 
ATOM     28  C   UNL     1      -4.815  -0.808  -3.475  0.00  0.00    +0.005 A 
ATOM     29  C   UNL     1      -5.261  -0.336  -4.695  0.00  0.00    +0.000 A 
ATOM     30  C   UNL     1      -5.584  -1.223  -5.704  0.00  0.00    +0.000 A 
ATOM     31  C   UNL     1      -5.460  -2.584  -5.494  0.00  0.00    +0.000 A 
ATOM     32  C   UNL     1      -5.010  -3.057  -4.275  0.00  0.00    +0.005 A 
ENDBRANCH  26  27
ENDBRANCH  23  26
ENDBRANCH  19  20
ENDBRANCH   1  19
TORSDOF 6
