REMARK  Name = ZINC02781710
REMARK  7 active torsions:
REMARK  status: ('A' for Active; 'I' for Inactive)
REMARK    1  A    between atoms: C_1  and  C_2
REMARK    2  A    between atoms: C_3  and  N_9
REMARK    3  A    between atoms: C_4  and  C_8
REMARK    4  A    between atoms: N_5  and  C_7
REMARK    5  A    between atoms: C_10  and  C_12
REMARK    6  A    between atoms: C_14  and  C_18
REMARK    7  A    between atoms: N_16  and  C_17
REMARK                            x       y       z     vdW  Elec       q    Type
REMARK                         _______ _______ _______ _____ _____    ______ ____
ROOT
ATOM      1  N   UNL     1      -0.606  -0.983   0.951  0.00  0.00    -0.277 N 
ATOM      2  C   UNL     1      -1.924  -0.759   0.778  0.00  0.00    +0.268 C 
ATOM      3  O   UNL     1      -2.343   0.381   0.707  0.00  0.00    -0.268 OA
ATOM      4  H   UNL     1      -0.265  -1.891   0.953  0.00  0.00    +0.155 HD
ENDROOT
BRANCH   1   7
ATOM      5  C   UNL     1      -0.298   1.386  -1.048  0.00  0.00    +0.069 C 
ATOM      6  C   UNL     1       0.438   1.184   0.252  0.00  0.00    +0.081 A 
ATOM      7  C   UNL     1       0.275   0.100   1.127  0.00  0.00    +0.077 A 
ATOM      8  C   UNL     1       1.117   0.283   2.176  0.00  0.00    +0.057 A 
ATOM      9  N   UNL     1       1.789   1.444   1.965  0.00  0.00    -0.270 N 
ATOM     10  N   UNL     1       1.342   1.985   0.753  0.00  0.00    -0.175 NA
ATOM     11  C   UNL     1       2.801   2.028   2.849  0.00  0.00    +0.172 C 
ATOM     12  C   UNL     1       1.278  -0.636   3.360  0.00  0.00    +0.067 C 
ENDBRANCH   1   7
BRANCH   2  13
ATOM     13  C   UNL     1      -2.855  -1.892   0.676  0.00  0.00    +0.142 A 
ATOM     14  C   UNL     1      -4.239  -1.832   0.647  0.00  0.00    +0.103 A 
ATOM     15  C   UNL     1      -4.664  -3.159   0.541  0.00  0.00    +0.184 A 
ATOM     16  N   UNL     1      -3.601  -3.921   0.520  0.00  0.00    -0.165 NA
ATOM     17  N   UNL     1      -2.529  -3.218   0.597  0.00  0.00    -0.260 N 
ATOM     18  C   UNL     1      -1.166  -3.754   0.600  0.00  0.00    +0.173 C 
ATOM     19 CL   UNL     1      -5.233  -0.410   0.722  0.00  0.00    -0.079 Cl
BRANCH  15  20
ATOM     20  C   UNL     1      -6.094  -3.630   0.470  0.00  0.00    +0.437 C 
ATOM     21  F   UNL     1      -6.127  -5.028   0.492  0.00  0.00    -0.164 F 
ATOM     22  F   UNL     1      -6.805  -3.129   1.566  0.00  0.00    -0.164 F 
ATOM     23  F   UNL     1      -6.678  -3.168  -0.714  0.00  0.00    -0.164 F 
ENDBRANCH  15  20
ENDBRANCH   2  13
TORSDOF 3
