REMARK  Name = ZINC00643952
REMARK  7 active torsions:
REMARK  status: ('A' for Active; 'I' for Inactive)
REMARK    1  A    between atoms: C_1  and  C_2
REMARK    2  A    between atoms: C_7  and  C_8
REMARK    3  A    between atoms: C_9  and  C_23
REMARK    4  A    between atoms: C_13  and  C_14
REMARK    5  A    between atoms: C_17  and  O_22
REMARK    6  A    between atoms: C_18  and  C_21
REMARK    7  A    between atoms: C_19  and  O_20
REMARK                            x       y       z     vdW  Elec       q    Type
REMARK                         _______ _______ _______ _____ _____    ______ ____
ROOT
ATOM      1  C   UNL     1       1.240  -2.167  -0.022  0.00  0.00    +0.031 A 
ATOM      2  C   UNL     1       1.237  -2.966  -1.126  0.00  0.00    +0.041 A 
ATOM      3  N   UNL     1       1.265  -4.249  -0.708  0.00  0.00    -0.281 N 
ATOM      4  H   UNL     1       1.274  -5.067  -1.443  0.00  0.00    +0.189 HD
ATOM      5  N   UNL     1       1.278  -4.258   0.692  0.00  0.00    -0.173 NA
ATOM      6  C   UNL     1       1.263  -3.013   1.115  0.00  0.00    +0.104 A 
ATOM      7  C   UNL     1       1.210  -2.500  -2.559  0.00  0.00    +0.065 C 
ENDROOT
BRANCH   1  14
ATOM      8  C   UNL     1      -1.292  -0.775   0.010  0.00  0.00    +0.044 C 
ATOM      9  C   UNL     1       0.002  -0.004   0.002  0.00  0.00    -0.039 A 
ATOM     10  C   UNL     1      -0.017   1.376   0.010  0.00  0.00    +0.053 A 
ATOM     11  C   UNL     1       1.173   2.091   0.002  0.00  0.00    +0.162 A 
ATOM     12  C   UNL     1       2.390   1.417  -0.010  0.00  0.00    +0.163 A 
ATOM     13  C   UNL     1       2.413   0.033  -0.019  0.00  0.00    +0.058 A 
ATOM     14  C   UNL     1       1.218  -0.684  -0.013  0.00  0.00    -0.007 A 
ATOM     15  O   UNL     1       3.566   2.103  -0.012  0.00  0.00    -0.485 OA
ATOM     16  C   UNL     1       3.504   3.485  -0.380  0.00  0.00    +0.270 C 
ATOM     17  C   UNL     1       2.335   4.132   0.374  0.00  0.00    +0.270 C 
ATOM     18  O   UNL     1       1.131   3.452   0.003  0.00  0.00    -0.485 OA
ENDBRANCH   1  14
BRANCH   6  19
ATOM     19  C   UNL     1       1.270  -2.572   2.531  0.00  0.00    +0.045 A 
ATOM     20  C   UNL     1       1.258  -1.213   2.840  0.00  0.00    +0.017 A 
ATOM     21  C   UNL     1       1.258  -0.805   4.157  0.00  0.00    +0.046 A 
ATOM     22  C   UNL     1       1.281  -1.746   5.179  0.00  0.00    +0.123 A 
ATOM     23  C   UNL     1       1.299  -3.100   4.880  0.00  0.00    +0.033 A 
ATOM     24  C   UNL     1       1.293  -3.518   3.560  0.00  0.00    +0.132 A 
ATOM     25  C   UNL     1       1.325  -4.117   5.992  0.00  0.00    +0.051 C 
BRANCH  24  26
ATOM     26  O   UNL     1       1.310  -4.845   3.266  0.00  0.00    -0.506 OA
ATOM     27  H   UNL     1       1.328  -5.588   4.077  0.00  0.00    +0.292 HD
ENDBRANCH  24  26
BRANCH  22  28
ATOM     28  O   UNL     1       1.287  -1.338   6.475  0.00  0.00    -0.506 OA
ATOM     29  H   UNL     1       1.305  -2.082   7.285  0.00  0.00    +0.292 HD
ENDBRANCH  22  28
ENDBRANCH   6  19
TORSDOF 4
