REMARK  Name = ZINC19599662
REMARK  6 active torsions:
REMARK  status: ('A' for Active; 'I' for Inactive)
REMARK    1  A    between atoms: C_1  and  C_2
REMARK    2  A    between atoms: C_2  and  C_4
REMARK    3  A    between atoms: C_2  and  O_20
REMARK    4  A    between atoms: N_6  and  N_7
REMARK    5  A    between atoms: C_8  and  C_10
REMARK    6  A    between atoms: O_20  and  C_21
REMARK                            x       y       z     vdW  Elec       q    Type
REMARK                         _______ _______ _______ _____ _____    ______ ____
ROOT
ATOM      1  C   UNL     1      -1.469  -0.319   0.136  0.00  0.00    +0.270 C 
ATOM      2  O   UNL     1      -1.896  -0.799   1.165  0.00  0.00    -0.270 OA
ATOM      3  N   UNL     1      -2.308  -0.061  -0.887  0.00  0.00    -0.231 N 
ATOM      4  H   UNL     1      -1.967   0.323  -1.710  0.00  0.00    +0.173 HD
ENDROOT
BRANCH   3   5
ATOM      5  N   UNL     1      -3.674  -0.346  -0.761  0.00  0.00    -0.230 N 
ATOM      6  C   UNL     1      -4.514  -0.088  -1.783  0.00  0.00    +0.260 C 
ATOM      7  O   UNL     1      -4.086   0.393  -2.814  0.00  0.00    -0.269 OA
ATOM      8  H   UNL     1      -4.016  -0.730   0.062  0.00  0.00    +0.173 HD
BRANCH   6   9
ATOM      9  C   UNL     1      -5.953  -0.389  -1.650  0.00  0.00    +0.043 A 
ATOM     10  C   UNL     1      -6.824  -0.128  -2.711  0.00  0.00    +0.062 A 
ATOM     11  C   UNL     1      -8.170  -0.411  -2.583  0.00  0.00    +0.168 A 
ATOM     12  C   UNL     1      -8.658  -0.958  -1.396  0.00  0.00    +0.184 A 
ATOM     13  C   UNL     1      -7.792  -1.218  -0.342  0.00  0.00    +0.087 A 
ATOM     14  C   UNL     1      -6.446  -0.942  -0.466  0.00  0.00    +0.037 A 
ATOM     15 CL   UNL     1      -8.403  -1.898   1.133  0.00  0.00    -0.080 Cl
ATOM     16  O   UNL     1     -10.003  -1.142  -1.524  0.00  0.00    -0.451 OA
ATOM     17  C   UNL     1     -10.400  -0.327  -2.642  0.00  0.00    +0.466 C 
ATOM     18  O   UNL     1      -9.212  -0.254  -3.451  0.00  0.00    -0.453 OA
ENDBRANCH   6   9
ENDBRANCH   3   5
BRANCH   1  20
ATOM     19  C   UNL     1       0.195   1.500  -0.138  0.00  0.00    +0.062 C 
ATOM     20  C   UNL     1       0.000  -0.012   0.000  0.00  0.00    +0.257 C 
BRANCH  20  21
ATOM     21  O   UNL     1       0.693  -0.477   1.160  0.00  0.00    -0.480 OA
BRANCH  21  22
ATOM     22  C   UNL     1       2.014  -0.764   1.016  0.00  0.00    +0.122 A 
ATOM     23  C   UNL     1       2.720  -1.330   2.067  0.00  0.00    +0.048 A 
ATOM     24  C   UNL     1       4.063  -1.621   1.919  0.00  0.00    +0.042 A 
ATOM     25  C   UNL     1       4.704  -1.347   0.723  0.00  0.00    +0.124 A 
ATOM     26  C   UNL     1       4.000  -0.781  -0.327  0.00  0.00    +0.042 A 
ATOM     27  C   UNL     1       2.656  -0.496  -0.184  0.00  0.00    +0.048 A 
ATOM     28  F   UNL     1       6.017  -1.631   0.580  0.00  0.00    -0.205 F 
ENDBRANCH  21  22
ENDBRANCH  20  21
ENDBRANCH   1  20
TORSDOF 5
