REMARK  Name = ZINC07535982
REMARK  3 active torsions:
REMARK  status: ('A' for Active; 'I' for Inactive)
REMARK    1  A    between atoms: C_12  and  C_14
REMARK    2  A    between atoms: C_14  and  S_15
REMARK    3  A    between atoms: S_15  and  C_16
REMARK                            x       y       z     vdW  Elec       q    Type
REMARK                         _______ _______ _______ _____ _____    ______ ____
ROOT
ATOM      1  C   UNL     1      -1.932   2.416   8.184  0.00  0.00    +0.040 A 
ATOM      2  C   UNL     1      -1.089   1.835   7.272  0.00  0.00    +0.032 A 
ATOM      3  C   UNL     1      -1.311   1.986   5.884  0.00  0.00    +0.080 A 
ATOM      4  C   UNL     1      -2.435   2.758   5.511  0.00  0.00    +0.043 A 
ATOM      5  C   UNL     1      -3.275   3.337   6.429  0.00  0.00    +0.055 A 
ATOM      6  C   UNL     1      -3.028   3.169   7.782  0.00  0.00    +0.125 A 
ATOM      7  F   UNL     1      -3.844   3.732   8.700  0.00  0.00    -0.205 F 
ATOM      8  S   UNL     1      -2.355   2.709   3.737  0.00  0.00    -0.052 S 
ATOM      9  C   UNL     1      -0.890   1.693   3.606  0.00  0.00    +0.165 A 
ATOM     10  N   UNL     1      -0.582   1.483   4.864  0.00  0.00    -0.225 NA
ATOM     11  N   UNL     1      -0.242   1.246   2.466  0.00  0.00    -0.264 N 
ATOM     12  C   UNL     1      -0.718   1.572   1.248  0.00  0.00    +0.229 C 
ATOM     13  O   UNL     1      -1.714   2.256   1.150  0.00  0.00    -0.275 OA
ATOM     14  H   UNL     1       0.555   0.699   2.544  0.00  0.00    +0.157 HD
ENDROOT
BRANCH  12  15
ATOM     15  C   UNL     1      -0.013   1.086   0.008  0.00  0.00    +0.172 C 
BRANCH  15  16
ATOM     16  S   UNL     1      -0.890   1.687  -1.462  0.00  0.00    -0.088 S 
BRANCH  16  17
ATOM     17  C   UNL     1       0.045   1.043  -2.809  0.00  0.00    +0.160 A 
ATOM     18  N   UNL     1       1.132   0.296  -2.791  0.00  0.00    -0.133 NA
ATOM     19  N   UNL     1       1.708  -0.102  -3.975  0.00  0.00    -0.125 NA
ATOM     20  C   UNL     1       1.172   0.265  -5.122  0.00  0.00    +0.180 A 
ATOM     21  S   UNL     1      -0.230   1.221  -4.565  0.00  0.00    -0.025 S 
ATOM     22  N   UNL     1       1.584  -0.021  -6.419  0.00  0.00    -0.336 N 
ATOM     23  H   UNL     1       2.374  -0.564  -6.568  0.00  0.00    +0.144 HD
ATOM     24  H   UNL     1       1.082   0.323  -7.174  0.00  0.00    +0.144 HD
ENDBRANCH  16  17
ENDBRANCH  15  16
ENDBRANCH  12  15
TORSDOF 3
