REMARK  Name = ZINC67010541
REMARK  10 active torsions:
REMARK  status: ('A' for Active; 'I' for Inactive)
REMARK    1  A    between atoms: C_1  and  C_2
REMARK    2  A    between atoms: C_2  and  C_4
REMARK    3  A    between atoms: C_2  and  N_15
REMARK    4  A    between atoms: C_8  and  S_10
REMARK    5  A    between atoms: S_10  and  N_13
REMARK    6  A    between atoms: N_13  and  C_14
REMARK    7  A    between atoms: N_15  and  C_16
REMARK    8  A    between atoms: C_16  and  C_17
REMARK    9  A    between atoms: C_21  and  O_23
REMARK   10  A    between atoms: O_23  and  C_24
REMARK                            x       y       z     vdW  Elec       q    Type
REMARK                         _______ _______ _______ _____ _____    ______ ____
ROOT
ATOM      1  N   UNL     1      -1.376  -0.512   0.012  0.00  0.00    +0.386 N 
ATOM      2  H   UNL     1      -1.363  -1.518   0.090  0.00  0.00    -0.085 HD
ATOM      3  H   UNL     1      -1.873  -0.121   0.799  0.00  0.00    -0.085 HD
ENDROOT
BRANCH   1   5
ATOM      4  C   UNL     1      -0.019   1.526   0.010  0.00  0.00    -0.009 C 
ATOM      5  C   UNL     1       0.002  -0.004   0.002  0.00  0.00    -0.044 C 
BRANCH   5   6
ATOM      6  C   UNL     1       0.731  -0.503   1.223  0.00  0.00    -0.060 A 
ATOM      7  C   UNL     1       0.081  -0.558   2.442  0.00  0.00    +0.002 A 
ATOM      8  C   UNL     1       0.749  -1.016   3.562  0.00  0.00    +0.002 A 
ATOM      9  C   UNL     1       2.068  -1.420   3.463  0.00  0.00    +0.028 A 
ATOM     10  C   UNL     1       2.718  -1.365   2.244  0.00  0.00    +0.105 A 
ATOM     11  C   UNL     1       2.048  -0.911   1.123  0.00  0.00    +0.030 A 
BRANCH  10  12
ATOM     12  S   UNL     1       4.399  -1.879   2.118  0.00  0.00    +0.058 S 
ATOM     13  O   UNL     1       4.941  -1.217   0.984  0.00  0.00    -0.153 OA
ATOM     14  O   UNL     1       4.961  -1.749   3.417  0.00  0.00    -0.153 OA
BRANCH  12  15
ATOM     15  N   UNL     1       4.391  -3.496   1.764  0.00  0.00    -0.193 NA
ATOM     16  C   UNL     1       3.843  -3.965   0.489  0.00  0.00    +0.127 C 
ATOM     17  H   UNL     1       4.750  -4.134   2.401  0.00  0.00    +0.148 HD
ENDBRANCH  12  15
ENDBRANCH  10  12
ENDBRANCH   5   6
ENDBRANCH   1   5
BRANCH   1  18
ATOM     18  C   UNL     1      -2.050  -0.126  -1.234  0.00  0.00    -0.046 C 
BRANCH  18  19
ATOM     19  C   UNL     1      -3.464  -0.648  -1.224  0.00  0.00    -0.057 A 
ATOM     20  C   UNL     1      -3.739  -1.905  -1.729  0.00  0.00    +0.051 A 
ATOM     21  C   UNL     1      -5.038  -2.389  -1.721  0.00  0.00    +0.170 A 
ATOM     22  C   UNL     1      -6.065  -1.607  -1.204  0.00  0.00    +0.208 A 
ATOM     23  C   UNL     1      -5.784  -0.345  -0.697  0.00  0.00    +0.166 A 
ATOM     24  C   UNL     1      -4.481   0.130  -0.703  0.00  0.00    +0.051 A 
ATOM     25  O   UNL     1      -7.238  -2.301  -1.310  0.00  0.00    -0.449 OA
ATOM     26  C   UNL     1      -6.981  -3.345  -2.267  0.00  0.00    +0.467 C 
ATOM     27  O   UNL     1      -5.564  -3.573  -2.152  0.00  0.00    -0.452 OA
BRANCH  23  28
ATOM     28  O   UNL     1      -6.786   0.423  -0.189  0.00  0.00    -0.491 OA
ATOM     29  C   UNL     1      -6.424   1.710   0.315  0.00  0.00    +0.277 C 
ENDBRANCH  23  28
ENDBRANCH  18  19
ENDBRANCH   1  18
TORSDOF 7
