REMARK  Name = ZINC15859883
REMARK  11 active torsions:
REMARK  status: ('A' for Active; 'I' for Inactive)
REMARK    1  A    between atoms: C_1  and  C_2
REMARK    2  A    between atoms: C_2  and  C_3
REMARK    3  A    between atoms: C_2  and  C_4
REMARK    4  A    between atoms: C_2  and  C_5
REMARK    5  A    between atoms: C_8  and  C_11
REMARK    6  A    between atoms: C_11  and  C_13
REMARK    7  A    between atoms: C_11  and  N_57
REMARK    8  A    between atoms: C_13  and  N_14
REMARK    9  A    between atoms: C_15  and  C_17
REMARK   10  A    between atoms: C_28  and  N_57
REMARK   11  A    between atoms: C_29  and  N_57
REMARK                            x       y       z     vdW  Elec       q    Type
REMARK                         _______ _______ _______ _____ _____    ______ ____
ROOT
ATOM      1  C   UNL     1      -3.316   0.191   0.408  0.00  0.00    +0.094 C 
ENDROOT
BRANCH   1   2
ATOM      2  N   UNL     1      -2.779   1.516   0.727  0.00  0.00    -0.312 N 
ATOM      3  C   UNL     1      -1.452   1.681   0.901  0.00  0.00    +0.251 C 
ATOM      4  O   UNL     1      -0.702   0.729   0.794  0.00  0.00    -0.270 OA
ATOM      5  H   UNL     1      -3.377   2.274   0.812  0.00  0.00    +0.149 HD
BRANCH   3   6
ATOM      6  C   UNL     1      -0.912   3.012   1.221  0.00  0.00    +0.122 A 
ATOM      7  C   UNL     1      -1.754   4.103   1.346  0.00  0.00    +0.031 A 
ATOM      8  C   UNL     1      -1.191   5.367   1.656  0.00  0.00    +0.018 A 
ATOM      9  C   UNL     1      -2.016   6.494   1.789  0.00  0.00    +0.011 A 
ATOM     10  C   UNL     1      -1.466   7.708   2.087  0.00  0.00    +0.001 A 
ATOM     11  C   UNL     1      -0.095   7.836   2.259  0.00  0.00    +0.004 A 
ATOM     12  C   UNL     1       0.734   6.742   2.132  0.00  0.00    +0.047 A 
ATOM     13  C   UNL     1       0.199   5.495   1.829  0.00  0.00    +0.139 A 
ATOM     14  O   UNL     1       1.014   4.426   1.706  0.00  0.00    -0.422 OA
ATOM     15  C   UNL     1       0.530   3.207   1.414  0.00  0.00    +0.350 A 
ATOM     16  O   UNL     1       1.289   2.262   1.309  0.00  0.00    -0.244 OA
ENDBRANCH   3   6
ENDBRANCH   1   2
BRANCH   1  17
ATOM     17  C   UNL     1      -4.845   0.254   0.380  0.00  0.00    -0.021 C 
BRANCH  17  21
ATOM     18  C   UNL     1      -6.405  -3.538  -0.817  0.00  0.00    -0.042 A 
ATOM     19  C   UNL     1      -6.931  -2.892   0.286  0.00  0.00    +0.004 A 
ATOM     20  C   UNL     1      -6.425  -1.665   0.674  0.00  0.00    +0.002 A 
ATOM     21  C   UNL     1      -5.395  -1.084  -0.042  0.00  0.00    -0.059 A 
ATOM     22  C   UNL     1      -4.874  -1.728  -1.149  0.00  0.00    +0.002 A 
ATOM     23  C   UNL     1      -5.376  -2.957  -1.533  0.00  0.00    +0.004 A 
BRANCH  18  25
ATOM     24  C   UNL     1      -8.444  -4.735  -1.567  0.00  0.00    +0.015 C 
ATOM     25  C   UNL     1      -6.956  -4.876  -1.239  0.00  0.00    -0.013 C 
ATOM     26  C   UNL     1      -6.205  -5.368  -2.478  0.00  0.00    +0.015 C 
ATOM     27  C   UNL     1      -6.777  -5.883  -0.101  0.00  0.00    +0.015 C 
ENDBRANCH  18  25
ENDBRANCH  17  21
BRANCH  17  30
ATOM     28  C   UNL     1      -4.950   0.891  -1.954  0.00  0.00    -0.096 C 
ATOM     29  C   UNL     1      -6.708   1.569  -0.433  0.00  0.00    -0.096 C 
ATOM     30  N   UNL     1      -5.260   1.308  -0.570  0.00  0.00    +0.382 N 
ATOM     31  H   UNL     1      -4.744   2.170  -0.358  0.00  0.00    -0.082 HD
ENDBRANCH  17  30
ENDBRANCH   1  17
TORSDOF 6
