REMARK  Name = ZINC06510920
REMARK  5 active torsions:
REMARK  status: ('A' for Active; 'I' for Inactive)
REMARK    1  A    between atoms: C_2  and  C_3
REMARK    2  A    between atoms: C_3  and  S_4
REMARK    3  A    between atoms: S_4  and  C_5
REMARK    4  A    between atoms: C_18  and  C_21
REMARK    5  A    between atoms: C_25  and  O_28
REMARK                            x       y       z     vdW  Elec       q    Type
REMARK                         _______ _______ _______ _____ _____    ______ ____
ROOT
ATOM      1  C   UNL     1      -0.635  -3.928   2.015  0.00  0.00    +0.213 A 
ATOM      2  N   UNL     1      -0.945  -2.660   1.758  0.00  0.00    -0.184 NA
ATOM      3  C   UNL     1       0.026  -1.782   1.574  0.00  0.00    +0.248 A 
ATOM      4  C   UNL     1       1.366  -2.224   1.652  0.00  0.00    +0.156 A 
ATOM      5  N   UNL     1       1.607  -3.500   1.913  0.00  0.00    -0.141 NA
ATOM      6  N   UNL     1       0.630  -4.322   2.088  0.00  0.00    -0.122 NA
ATOM      7  C   UNL     1       2.466  -1.260   1.441  0.00  0.00    +0.028 A 
ATOM      8  C   UNL     1       3.557  -1.202   2.299  0.00  0.00    +0.012 A 
ATOM      9  C   UNL     1       4.580  -0.309   2.049  0.00  0.00    +0.001 A 
ATOM     10  C   UNL     1       4.526   0.529   0.948  0.00  0.00    +0.002 A 
ATOM     11  C   UNL     1       3.443   0.486   0.089  0.00  0.00    +0.024 A 
ATOM     12  C   UNL     1       2.408  -0.399   0.329  0.00  0.00    +0.039 A 
ATOM     13  N   UNL     1       1.291  -0.459  -0.510  0.00  0.00    -0.305 N 
ATOM     14  C   UNL     1       0.002  -0.004   0.002  0.00  0.00    +0.295 C 
ATOM     15  O   UNL     1      -0.238  -0.478   1.322  0.00  0.00    -0.449 OA
ATOM     16  H   UNL     1       1.371  -0.798  -1.415  0.00  0.00    +0.150 HD
ENDROOT
BRANCH  14  17
ATOM     17  C   UNL     1      -0.018   1.503   0.010  0.00  0.00    +0.033 A 
ATOM     18  C   UNL     1       0.319   2.192   1.161  0.00  0.00    +0.010 A 
ATOM     19  C   UNL     1       0.302   3.574   1.171  0.00  0.00    +0.004 A 
ATOM     20  C   UNL     1      -0.053   4.271   0.032  0.00  0.00    +0.047 A 
ATOM     21  C   UNL     1      -0.392   3.583  -1.123  0.00  0.00    +0.136 A 
ATOM     22  C   UNL     1      -0.369   2.195  -1.133  0.00  0.00    +0.091 A 
ATOM     23 CL   UNL     1      -0.785   1.330  -2.580  0.00  0.00    -0.079 Cl
BRANCH  21  24
ATOM     24  O   UNL     1      -0.741   4.267  -2.245  0.00  0.00    -0.505 OA
ATOM     25  H   UNL     1       0.004   4.477  -2.825  0.00  0.00    +0.292 HD
ENDBRANCH  21  24
ENDBRANCH  14  17
BRANCH   1  26
ATOM     26  S   UNL     1      -1.924  -5.103   2.261  0.00  0.00    -0.080 S 
BRANCH  26  27
ATOM     27  C   UNL     1      -0.940  -6.592   2.560  0.00  0.00    +0.104 C 
BRANCH  27  29
ATOM     28  C   UNL     1      -1.883  -8.762   1.958  0.00  0.00    +0.005 C 
ATOM     29  C   UNL     1      -1.859  -7.761   2.803  0.00  0.00    -0.023 C 
ENDBRANCH  27  29
ENDBRANCH  26  27
ENDBRANCH   1  26
TORSDOF 5
