REMARK  Name = ZINC13069911
REMARK  7 active torsions:
REMARK  status: ('A' for Active; 'I' for Inactive)
REMARK    1  A    between atoms: C_1  and  C_2
REMARK    2  A    between atoms: N_16  and  C_17
REMARK    3  A    between atoms: C_17  and  C_18
REMARK    4  A    between atoms: C_18  and  C_20
REMARK    5  A    between atoms: C_18  and  N_63
REMARK    6  A    between atoms: C_24  and  O_26
REMARK    7  A    between atoms: O_26  and  C_27
REMARK                            x       y       z     vdW  Elec       q    Type
REMARK                         _______ _______ _______ _____ _____    ______ ____
ROOT
ATOM      1  C   UNL     1      -1.347   7.617   5.986  0.00  0.00    +0.088 C 
ATOM      2  C   UNL     1      -1.055   8.332   4.692  0.00  0.00    +0.129 A 
ATOM      3  N   UNL     1      -0.873   7.625   3.591  0.00  0.00    -0.217 NA
ATOM      4  C   UNL     1      -0.613   8.193   2.424  0.00  0.00    +0.131 A 
ATOM      5  C   UNL     1      -0.521   9.611   2.350  0.00  0.00    +0.051 A 
ATOM      6  C   UNL     1      -0.256  10.449   1.176  0.00  0.00    -0.025 A 
ATOM      7  C   UNL     1      -0.220  11.781   1.378  0.00  0.00    -0.004 A 
ATOM      8  S   UNL     1      -0.548  11.999   3.109  0.00  0.00    -0.073 S 
ATOM      9  C   UNL     1      -0.729  10.295   3.563  0.00  0.00    +0.114 A 
ATOM     10  N   UNL     1      -0.985   9.649   4.684  0.00  0.00    -0.225 NA
ATOM     11  C   UNL     1       0.052  12.855   0.371  0.00  0.00    +0.043 C 
ATOM     12  C   UNL     1      -0.820  12.621  -0.869  0.00  0.00    +0.005 C 
ATOM     13  C   UNL     1      -0.049  11.728  -1.836  0.00  0.00    +0.001 C 
ATOM     14  C   UNL     1       0.828  10.750  -1.057  0.00  0.00    +0.005 C 
ATOM     15  C   UNL     1      -0.033   9.829  -0.201  0.00  0.00    +0.037 C 
ATOM     16  N   UNL     1      -0.429   7.418   1.293  0.00  0.00    -0.330 N 
ATOM     17  H   UNL     1      -0.325   7.842   0.426  0.00  0.00    +0.147 HD
ENDROOT
BRANCH  16  18
ATOM     18  C   UNL     1      -0.389   5.958   1.403  0.00  0.00    +0.092 C 
BRANCH  18  19
ATOM     19  C   UNL     1      -0.044   5.353   0.041  0.00  0.00    -0.020 C 
BRANCH  19  20
ATOM     20  C   UNL     1       1.359   5.746  -0.343  0.00  0.00    -0.056 A 
ATOM     21  C   UNL     1       2.438   5.067   0.193  0.00  0.00    +0.002 A 
ATOM     22  C   UNL     1       3.726   5.421  -0.161  0.00  0.00    +0.004 A 
ATOM     23  C   UNL     1       3.939   6.463  -1.044  0.00  0.00    +0.045 A 
ATOM     24  C   UNL     1       2.859   7.146  -1.583  0.00  0.00    +0.120 A 
ATOM     25  C   UNL     1       1.567   6.784  -1.230  0.00  0.00    +0.047 A 
BRANCH  24  26
ATOM     26  O   UNL     1       3.066   8.166  -2.456  0.00  0.00    -0.495 OA
ATOM     27  C   UNL     1       4.423   8.483  -2.775  0.00  0.00    +0.277 C 
ENDBRANCH  24  26
ENDBRANCH  19  20
BRANCH  19  32
ATOM     28  C   UNL     1      -1.505   3.464   0.515  0.00  0.00    -0.078 C 
ATOM     29  C   UNL     1      -1.571   1.991   0.041  0.00  0.00    -0.020 C 
ATOM     30  C   UNL     1      -0.788   2.022  -1.292  0.00  0.00    -0.020 C 
ATOM     31  C   UNL     1       0.106   3.272  -1.204  0.00  0.00    -0.078 C 
ATOM     32  N   UNL     1      -0.149   3.864   0.110  0.00  0.00    +0.385 N 
ATOM     33  H   UNL     1       0.535   3.510   0.788  0.00  0.00    -0.081 HD
ENDBRANCH  19  32
ENDBRANCH  18  19
ENDBRANCH  16  18
TORSDOF 5
