REMARK  Name = ZINC38898276
REMARK  5 active torsions:
REMARK  status: ('A' for Active; 'I' for Inactive)
REMARK    1  A    between atoms: C_1  and  S_2
REMARK    2  A    between atoms: S_2  and  C_3
REMARK    3  A    between atoms: C_6  and  C_9
REMARK    4  A    between atoms: N_10  and  N_11
REMARK    5  A    between atoms: C_12  and  C_18
REMARK                            x       y       z     vdW  Elec       q    Type
REMARK                         _______ _______ _______ _____ _____    ______ ____
ROOT
ATOM      1  N   UNL     1       3.972  -3.028   6.424  0.00  0.00    -0.172 N 
ATOM      2  C   UNL     1       4.399  -4.372   6.855  0.00  0.00    +0.264 C 
ATOM      3  N   UNL     1       5.193  -4.117   8.067  0.00  0.00    -0.189 NA
ATOM      4  N   UNL     1       5.206  -2.900   8.268  0.00  0.00    -0.219 N 
ATOM      5  C   UNL     1       4.511  -2.192   7.338  0.00  0.00    +0.174 C 
ATOM      6  S   UNL     1       4.343  -0.488   7.329  0.00  0.00    -0.015 S 
ATOM      7  H   UNL     1       5.669  -2.489   9.015  0.00  0.00    +0.176 HD
ENDROOT
BRANCH   2   8
ATOM      8  C   UNL     1       5.246  -5.024   5.792  0.00  0.00    -0.002 A 
ATOM      9  C   UNL     1       5.043  -4.713   4.460  0.00  0.00    +0.007 A 
ATOM     10  C   UNL     1       5.820  -5.311   3.485  0.00  0.00    +0.000 A 
ATOM     11  C   UNL     1       6.799  -6.219   3.841  0.00  0.00    +0.000 A 
ATOM     12  C   UNL     1       7.002  -6.529   5.173  0.00  0.00    +0.000 A 
ATOM     13  C   UNL     1       6.229  -5.928   6.149  0.00  0.00    +0.007 A 
ENDBRANCH   2   8
BRANCH   1  15
ATOM     14  C   UNL     1       2.809  -1.463   5.132  0.00  0.00    +0.138 C 
ATOM     15  N   UNL     1       3.187  -2.692   5.313  0.00  0.00    -0.183 NA
BRANCH  14  19
ATOM     16  C   UNL     1       0.695  -0.388   1.611  0.00  0.00    +0.008 A 
ATOM     17  C   UNL     1       0.982   0.578   2.571  0.00  0.00    +0.015 A 
ATOM     18  C   UNL     1       1.667   0.233   3.714  0.00  0.00    +0.010 A 
ATOM     19  C   UNL     1       2.075  -1.090   3.910  0.00  0.00    -0.005 A 
ATOM     20  C   UNL     1       1.785  -2.058   2.944  0.00  0.00    +0.010 A 
ATOM     21  C   UNL     1       1.095  -1.707   1.806  0.00  0.00    +0.015 A 
BRANCH  16  23
ATOM     22  C   UNL     1      -0.480   1.837   0.342  0.00  0.00    +0.090 C 
ATOM     23  S   UNL     1      -0.183   0.058   0.150  0.00  0.00    -0.129 S 
ENDBRANCH  16  23
ENDBRANCH  14  19
ENDBRANCH   1  15
TORSDOF 4
