REMARK  Name = ZINC23222925
REMARK  6 active torsions:
REMARK  status: ('A' for Active; 'I' for Inactive)
REMARK    1  A    between atoms: C_1  and  C_2
REMARK    2  A    between atoms: C_2  and  C_28
REMARK    3  A    between atoms: N_5  and  C_9
REMARK    4  A    between atoms: C_9  and  C_10
REMARK    5  A    between atoms: C_13  and  C_23
REMARK    6  A    between atoms: C_16  and  C_18
REMARK                            x       y       z     vdW  Elec       q    Type
REMARK                         _______ _______ _______ _____ _____    ______ ____
ROOT
ATOM      1  C   UNL     1       0.711  -0.722   6.885  0.00  0.00    +0.047 C 
ATOM      2  C   UNL     1      -0.229   0.484   6.814  0.00  0.00    +0.135 C 
ATOM      3  C   UNL     1      -1.052   0.454   5.542  0.00  0.00    +0.251 C 
ATOM      4  O   UNL     1      -1.845  -0.398   5.203  0.00  0.00    -0.272 OA
ATOM      5  N   UNL     1      -0.718   1.571   4.866  0.00  0.00    -0.215 N 
ATOM      6  C   UNL     1       0.188   2.298   5.530  0.00  0.00    +0.310 C 
ATOM      7  O   UNL     1       0.640   3.350   5.123  0.00  0.00    -0.252 OA
ATOM      8  N   UNL     1       0.541   1.735   6.700  0.00  0.00    -0.281 N 
ATOM      9  H   UNL     1       1.238   2.027   7.499  0.00  0.00    +0.152 HD
ENDROOT
BRANCH   2  10
ATOM     10  C   UNL     1      -1.129   0.524   8.023  0.00  0.00    -0.015 A 
ATOM     11  C   UNL     1      -2.341  -0.141   8.005  0.00  0.00    +0.006 A 
ATOM     12  C   UNL     1      -3.161  -0.108   9.115  0.00  0.00    +0.004 A 
ATOM     13  C   UNL     1      -2.779   0.599  10.243  0.00  0.00    -0.044 A 
ATOM     14  C   UNL     1      -1.570   1.268  10.259  0.00  0.00    -0.044 A 
ATOM     15  C   UNL     1      -0.746   1.230   9.146  0.00  0.00    +0.010 A 
ATOM     16  C   UNL     1      -1.385   1.959  11.593  0.00  0.00    +0.036 C 
ATOM     17  C   UNL     1      -2.398   1.284  12.542  0.00  0.00    +0.009 C 
ATOM     18  C   UNL     1      -3.489   0.794  11.566  0.00  0.00    +0.036 C 
ENDBRANCH   2  10
BRANCH   5  19
ATOM     19  C   UNL     1      -1.280   1.945   3.566  0.00  0.00    +0.215 C 
BRANCH  19  20
ATOM     20  C   UNL     1      -0.427   1.370   2.465  0.00  0.00    +0.253 C 
ATOM     21  O   UNL     1       0.554   0.712   2.739  0.00  0.00    -0.272 OA
ATOM     22  N   UNL     1      -0.755   1.587   1.175  0.00  0.00    -0.181 N 
ATOM     23  C   UNL     1      -0.013   1.086   0.008  0.00  0.00    +0.173 C 
ATOM     24  C   UNL     1      -0.814   1.624  -1.194  0.00  0.00    +0.093 C 
ATOM     25  C   UNL     1      -1.955   2.389  -0.555  0.00  0.00    +0.104 C 
ATOM     26  N   UNL     1      -1.852   2.323   0.731  0.00  0.00    -0.178 NA
BRANCH  25  27
ATOM     27  C   UNL     1      -3.011   3.098  -1.284  0.00  0.00    +0.150 A 
ATOM     28  C   UNL     1      -4.044   3.792  -0.724  0.00  0.00    +0.051 A 
ATOM     29  C   UNL     1      -4.809   4.306  -1.787  0.00  0.00    +0.042 A 
ATOM     30  C   UNL     1      -4.217   3.906  -2.931  0.00  0.00    +0.196 A 
ATOM     31  O   UNL     1      -3.129   3.182  -2.624  0.00  0.00    -0.462 OA
ENDBRANCH  25  27
BRANCH  23  32
ATOM     32  C   UNL     1       1.391   1.633  -0.003  0.00  0.00    +0.128 A 
ATOM     33  C   UNL     1       2.491   0.971  -0.402  0.00  0.00    +0.046 A 
ATOM     34  C   UNL     1       3.583   1.856  -0.246  0.00  0.00    +0.041 A 
ATOM     35  C   UNL     1       3.084   3.007   0.240  0.00  0.00    +0.195 A 
ATOM     36  O   UNL     1       1.756   2.868   0.380  0.00  0.00    -0.466 OA
ENDBRANCH  23  32
ENDBRANCH  19  20
ENDBRANCH   5  19
TORSDOF 5
