REMARK  Name = ZINC20611461
REMARK  3 active torsions:
REMARK  status: ('A' for Active; 'I' for Inactive)
REMARK    1  A    between atoms: C_4  and  C_7
REMARK    2  A    between atoms: C_7  and  C_8
REMARK    3  A    between atoms: N_16  and  C_19
REMARK                            x       y       z     vdW  Elec       q    Type
REMARK                         _______ _______ _______ _____ _____    ______ ____
ROOT
ATOM      1  C   UNL     1       4.171  -0.963   1.399  0.00  0.00    +0.072 C 
ATOM      2  C   UNL     1       5.499  -1.750   1.405  0.00  0.00    +0.107 C 
ATOM      3  C   UNL     1       5.081  -3.238   1.562  0.00  0.00    +0.122 C 
ATOM      4  C   UNL     1       5.655  -3.620   2.908  0.00  0.00    +0.228 C 
ATOM      5  O   UNL     1       5.566  -4.714   3.422  0.00  0.00    -0.275 OA
ATOM      6  N   UNL     1       6.276  -2.563   3.443  0.00  0.00    -0.238 N 
ATOM      7  C   UNL     1       6.254  -1.447   2.679  0.00  0.00    +0.227 C 
ATOM      8  O   UNL     1       6.751  -0.378   2.962  0.00  0.00    -0.275 OA
ATOM      9  C   UNL     1       3.550  -3.204   1.630  0.00  0.00    +0.136 C 
ATOM     10  N   UNL     1       3.201  -1.842   2.104  0.00  0.00    -0.295 NA
ATOM     11  C   UNL     1       3.013  -4.251   2.564  0.00  0.00    +0.003 A 
ATOM     12  C   UNL     1       3.195  -4.509   3.904  0.00  0.00    +0.008 A 
ATOM     13  C   UNL     1       2.544  -5.576   4.498  0.00  0.00    +0.000 A 
ATOM     14  C   UNL     1       1.712  -6.381   3.743  0.00  0.00    +0.002 A 
ATOM     15  C   UNL     1       1.526  -6.127   2.400  0.00  0.00    +0.023 A 
ATOM     16  C   UNL     1       2.178  -5.055   1.793  0.00  0.00    +0.039 A 
ATOM     17  N   UNL     1       2.154  -4.602   0.473  0.00  0.00    -0.283 N 
ATOM     18  C   UNL     1       2.933  -3.518   0.294  0.00  0.00    +0.243 C 
ATOM     19  O   UNL     1       3.105  -2.912  -0.743  0.00  0.00    -0.273 OA
ATOM     20  H   UNL     1       3.300  -1.760   3.105  0.00  0.00    +0.124 HD
ATOM     21  H   UNL     1       1.636  -5.018  -0.234  0.00  0.00    +0.155 HD
ENDROOT
BRANCH   6  22
ATOM     22  C   UNL     1       6.934  -2.609   4.751  0.00  0.00    +0.084 C 
ATOM     23  C   UNL     1       6.225  -1.624   5.702  0.00  0.00    +0.023 C 
ATOM     24  C   UNL     1       6.534  -2.023   7.120  0.00  0.00    +0.002 C 
ATOM     25  C   UNL     1       7.743  -1.262   7.696  0.00  0.00    +0.000 C 
ATOM     26  C   UNL     1       8.898  -1.124   6.686  0.00  0.00    +0.000 C 
ATOM     27  C   UNL     1       9.132  -2.387   5.903  0.00  0.00    +0.002 C 
ATOM     28  C   UNL     1       8.345  -2.296   4.580  0.00  0.00    +0.023 C 
ENDBRANCH   6  22
BRANCH   1  29
ATOM     29  C   UNL     1       3.711  -0.707  -0.038  0.00  0.00    +0.054 C 
BRANCH  29  33
ATOM     30  C   UNL     1       5.194   3.075  -1.357  0.00  0.00    +0.000 A 
ATOM     31  C   UNL     1       5.945   1.931  -1.555  0.00  0.00    +0.000 A 
ATOM     32  C   UNL     1       5.465   0.708  -1.128  0.00  0.00    +0.004 A 
ATOM     33  C   UNL     1       4.235   0.627  -0.502  0.00  0.00    -0.046 A 
ATOM     34  C   UNL     1       3.485   1.771  -0.304  0.00  0.00    +0.004 A 
ATOM     35  C   UNL     1       3.964   2.995  -0.732  0.00  0.00    +0.000 A 
ENDBRANCH  29  33
ENDBRANCH   1  29
TORSDOF 3
