REMARK  Name = ZINC12357384
REMARK  5 active torsions:
REMARK  status: ('A' for Active; 'I' for Inactive)
REMARK    1  A    between atoms: C_1  and  C_2
REMARK    2  A    between atoms: C_4  and  C_12
REMARK    3  A    between atoms: N_5  and  C_7
REMARK    4  A    between atoms: C_7  and  C_8
REMARK    5  A    between atoms: N_9  and  O_10
REMARK                            x       y       z     vdW  Elec       q    Type
REMARK                         _______ _______ _______ _____ _____    ______ ____
ROOT
ATOM      1  C   UNL     1      -0.018   1.503   0.010  0.00  0.00    +0.068 C 
ATOM      2  C   UNL     1       0.002  -0.004   0.002  0.00  0.00    +0.074 A 
ATOM      3  C   UNL     1       0.008  -0.818  -1.136  0.00  0.00    +0.061 A 
ATOM      4  C   UNL     1       0.027  -2.108  -0.725  0.00  0.00    +0.051 A 
ATOM      5  N   UNL     1       0.034  -2.109   0.625  0.00  0.00    -0.260 N 
ATOM      6  N   UNL     1       0.023  -0.777   1.058  0.00  0.00    -0.175 NA
ATOM      7  C   UNL     1       0.039  -3.324  -1.615  0.00  0.00    +0.066 C 
ATOM      8 BR   UNL     1      -0.009  -0.222  -2.930  0.00  0.00    -0.047 Br
ENDROOT
BRANCH   5   9
ATOM      9  C   UNL     1       0.053  -3.295   1.486  0.00  0.00    +0.218 C 
BRANCH   9  10
ATOM     10  C   UNL     1       1.481  -3.682   1.774  0.00  0.00    +0.153 C 
ATOM     11  N   UNL     1       2.451  -2.989   1.277  0.00  0.00    -0.075 NA
ATOM     12  N   UNL     1       1.751  -4.774   2.568  0.00  0.00    -0.342 N 
ATOM     13  H   UNL     1       1.023  -5.294   2.942  0.00  0.00    +0.144 HD
ATOM     14  H   UNL     1       2.670  -5.023   2.754  0.00  0.00    +0.144 HD
BRANCH  11  15
ATOM     15  O   UNL     1       3.793  -3.353   1.548  0.00  0.00    -0.408 OA
ATOM     16  H   UNL     1       4.448  -2.776   1.133  0.00  0.00    +0.328 HD
ENDBRANCH  11  15
ENDBRANCH   9  10
ENDBRANCH   5   9
TORSDOF 3
