REMARK  Name = ZINC67549053
REMARK  5 active torsions:
REMARK  status: ('A' for Active; 'I' for Inactive)
REMARK    1  A    between atoms: C_6  and  C_7
REMARK    2  A    between atoms: C_7  and  C_13
REMARK    3  A    between atoms: C_13  and  N_14
REMARK    4  A    between atoms: N_17  and  C_18
REMARK    5  A    between atoms: C_18  and  C_19
REMARK                            x       y       z     vdW  Elec       q    Type
REMARK                         _______ _______ _______ _____ _____    ______ ____
ROOT
ATOM      1  C   UNL     1      -1.341  -0.826   0.044  0.00  0.00    +0.016 C 
ATOM      2  C   UNL     1      -1.592  -1.816   1.186  0.00  0.00    +0.041 C 
ATOM      3  C   UNL     1      -3.015  -2.368   1.069  0.00  0.00    +0.160 C 
ATOM      4  O   UNL     1      -3.948  -1.286   1.096  0.00  0.00    -0.380 OA
ATOM      5  C   UNL     1      -3.792  -0.354   0.025  0.00  0.00    +0.160 C 
ATOM      6  C   UNL     1      -2.401   0.280   0.100  0.00  0.00    +0.041 C 
ENDROOT
BRANCH   1  12
ATOM      7  C   UNL     1       0.879  -0.672   1.186  0.00  0.00    +0.008 A 
ATOM      8  C   UNL     1       2.138  -0.118   1.329  0.00  0.00    +0.050 A 
ATOM      9  C   UNL     1       2.550   0.895   0.478  0.00  0.00    +0.166 A 
ATOM     10  C   UNL     1       1.694   1.352  -0.521  0.00  0.00    +0.167 A 
ATOM     11  C   UNL     1       0.434   0.792  -0.658  0.00  0.00    +0.053 A 
ATOM     12  C   UNL     1       0.029  -0.218   0.195  0.00  0.00    -0.036 A 
ATOM     13  O   UNL     1       2.325   2.341  -1.217  0.00  0.00    -0.453 OA
ATOM     14  C   UNL     1       3.416   2.766  -0.379  0.00  0.00    +0.466 C 
ATOM     15  O   UNL     1       3.718   1.598   0.407  0.00  0.00    -0.453 OA
ENDBRANCH   1  12
BRANCH   1  16
ATOM     16  C   UNL     1      -1.433  -1.555  -1.298  0.00  0.00    +0.117 C 
BRANCH  16  17
ATOM     17  N   UNL     1      -0.380  -2.571  -1.374  0.00  0.00    -0.299 N 
ATOM     18  C   UNL     1      -0.242  -3.317  -2.488  0.00  0.00    +0.300 C 
ATOM     19  O   UNL     1      -0.992  -3.146  -3.430  0.00  0.00    -0.253 OA
ATOM     20  N   UNL     1       0.726  -4.252  -2.558  0.00  0.00    -0.297 N 
ATOM     21  H   UNL     1       0.218  -2.707  -0.622  0.00  0.00    +0.150 HD
ATOM     22  H   UNL     1       1.324  -4.388  -1.806  0.00  0.00    +0.150 HD
BRANCH  20  23
ATOM     23  C   UNL     1       0.876  -5.062  -3.769  0.00  0.00    +0.137 C 
BRANCH  23  24
ATOM     24  C   UNL     1       2.040  -6.038  -3.589  0.00  0.00    +0.135 C 
ATOM     25  C   UNL     1       2.282  -6.812  -4.902  0.00  0.00    +0.035 C 
ATOM     26  C   UNL     1       2.606  -8.242  -4.388  0.00  0.00    +0.031 C 
ATOM     27  C   UNL     1       1.693  -8.318  -3.139  0.00  0.00    +0.160 C 
ATOM     28  O   UNL     1       1.718  -6.996  -2.573  0.00  0.00    -0.375 OA
ENDBRANCH  23  24
ENDBRANCH  20  23
ENDBRANCH  16  17
ENDBRANCH   1  16
TORSDOF 5
