REMARK  Name = ZINC02956641
REMARK  8 active torsions:
REMARK  status: ('A' for Active; 'I' for Inactive)
REMARK    1  A    between atoms: C_1  and  C_2
REMARK    2  A    between atoms: C_5  and  C_8
REMARK    3  A    between atoms: C_8  and  N_9
REMARK    4  A    between atoms: C_12  and  C_20
REMARK    5  A    between atoms: C_13  and  C_15
REMARK    6  A    between atoms: N_17  and  C_18
REMARK    7  A    between atoms: N_17  and  C_19
REMARK    8  A    between atoms: N_23  and  C_26
REMARK                            x       y       z     vdW  Elec       q    Type
REMARK                         _______ _______ _______ _____ _____    ______ ____
ROOT
ATOM      1  N   UNL     1       0.084   0.648  -2.778  0.00  0.00    -0.283 N 
ATOM      2  C   UNL     1      -1.168   0.195  -2.484  0.00  0.00    +0.098 A 
ATOM      3  C   UNL     1      -2.254   1.076  -2.356  0.00  0.00    +0.074 A 
ATOM      4  C   UNL     1      -3.484   0.486  -2.046  0.00  0.00    -0.017 A 
ATOM      5  C   UNL     1      -3.536  -0.868  -1.890  0.00  0.00    +0.080 A 
ATOM      6  S   UNL     1      -1.846  -1.360  -2.176  0.00  0.00    -0.065 S 
ATOM      7  C   UNL     1      -4.724   1.328  -1.888  0.00  0.00    +0.046 C 
ATOM      8  C   UNL     1      -1.939   2.509  -2.573  0.00  0.00    +0.270 A 
ATOM      9  O   UNL     1      -2.813   3.352  -2.488  0.00  0.00    -0.266 OA
ATOM     10  N   UNL     1      -0.676   2.866  -2.865  0.00  0.00    -0.228 N 
ATOM     11  C   UNL     1       0.312   1.962  -2.966  0.00  0.00    +0.338 A 
ATOM     12  O   UNL     1       1.437   2.338  -3.232  0.00  0.00    -0.246 OA
ENDROOT
BRANCH  10  13
ATOM     13  C   UNL     1      -0.382   4.221  -3.070  0.00  0.00    +0.056 A 
ATOM     14  C   UNL     1      -0.106   5.045  -1.986  0.00  0.00    +0.028 A 
ATOM     15  C   UNL     1       0.187   6.378  -2.190  0.00  0.00    +0.023 A 
ATOM     16  C   UNL     1       0.198   6.898  -3.473  0.00  0.00    +0.059 A 
ATOM     17  C   UNL     1      -0.080   6.080  -4.555  0.00  0.00    +0.061 A 
ATOM     18  C   UNL     1      -0.370   4.743  -4.356  0.00  0.00    +0.048 A 
ATOM     19 CL   UNL     1      -0.066   6.734  -6.163  0.00  0.00    -0.082 Cl
ATOM     20 CL   UNL     1       0.562   8.576  -3.726  0.00  0.00    -0.082 Cl
ENDBRANCH  10  13
BRANCH   5  21
ATOM     21  C   UNL     1      -4.692  -1.709  -1.569  0.00  0.00    +0.253 C 
ATOM     22  O   UNL     1      -5.767  -1.493  -2.097  0.00  0.00    -0.269 OA
ATOM     23  N   UNL     1      -4.564  -2.722  -0.689  0.00  0.00    -0.303 N 
ATOM     24  C   UNL     1      -5.687  -3.632  -0.452  0.00  0.00    +0.132 C 
ATOM     25  C   UNL     1      -3.303  -2.912   0.031  0.00  0.00    +0.132 C 
ENDBRANCH   5  21
BRANCH   1  26
ATOM     26  C   UNL     1       1.190  -0.304  -2.898  0.00  0.00    +0.162 C 
BRANCH  26  31
ATOM     27  C   UNL     1       3.711  -0.984   2.258  0.00  0.00    +0.044 C 
ATOM     28  C   UNL     1       3.054  -0.807   0.913  0.00  0.00    -0.050 A 
ATOM     29  C   UNL     1       2.003  -1.627   0.544  0.00  0.00    +0.004 A 
ATOM     30  C   UNL     1       1.400  -1.464  -0.690  0.00  0.00    +0.005 A 
ATOM     31  C   UNL     1       1.848  -0.482  -1.553  0.00  0.00    -0.028 A 
ATOM     32  C   UNL     1       2.901   0.334  -1.186  0.00  0.00    +0.005 A 
ATOM     33  C   UNL     1       3.502   0.174   0.049  0.00  0.00    +0.004 A 
ENDBRANCH  26  31
ENDBRANCH   1  26
TORSDOF 4
