REMARK  Name = ZINC65901745
REMARK  6 active torsions:
REMARK  status: ('A' for Active; 'I' for Inactive)
REMARK    1  A    between atoms: C_1  and  C_2
REMARK    2  A    between atoms: C_2  and  C_3
REMARK    3  A    between atoms: C_3  and  C_4
REMARK    4  A    between atoms: C_4  and  N_5
REMARK    5  A    between atoms: N_8  and  C_9
REMARK    6  A    between atoms: C_9  and  C_15
REMARK                            x       y       z     vdW  Elec       q    Type
REMARK                         _______ _______ _______ _____ _____    ______ ____
ROOT
ATOM      1  C   UNL     1       2.505  -5.646  -3.916  0.00  0.00    +0.112 C 
ATOM      2  C   UNL     1       1.095  -6.239  -3.934  0.00  0.00    +0.035 C 
ATOM      3  C   UNL     1       0.276  -5.574  -5.042  0.00  0.00    +0.003 C 
ATOM      4  C   UNL     1       0.951  -5.820  -6.393  0.00  0.00    +0.000 C 
ATOM      5  C   UNL     1       2.361  -5.227  -6.375  0.00  0.00    +0.003 C 
ATOM      6  C   UNL     1       3.180  -5.893  -5.266  0.00  0.00    +0.035 C 
ENDROOT
BRANCH   1   7
ATOM      7  C   UNL     1       3.311  -6.301  -2.824  0.00  0.00    +0.239 C 
ATOM      8  O   UNL     1       2.870  -7.269  -2.242  0.00  0.00    -0.273 OA
ATOM      9  N   UNL     1       4.523  -5.812  -2.495  0.00  0.00    -0.298 N 
ATOM     10  C   UNL     1       5.000  -4.606  -3.169  0.00  0.00    +0.117 C 
ATOM     11  C   UNL     1       6.255  -4.937  -3.986  0.00  0.00    +0.114 C 
ATOM     12  C   UNL     1       7.443  -4.972  -3.052  0.00  0.00    +0.215 C 
ATOM     13  O   UNL     1       8.273  -4.088  -3.100  0.00  0.00    -0.276 OA
ATOM     14  N   UNL     1       7.586  -5.970  -2.175  0.00  0.00    -0.314 N 
ATOM     15  C   UNL     1       6.597  -7.053  -2.106  0.00  0.00    +0.123 C 
ATOM     16  C   UNL     1       5.307  -6.504  -1.475  0.00  0.00    +0.126 C 
ATOM     17  H   UNL     1       8.351  -5.979  -1.578  0.00  0.00    +0.149 HD
ENDBRANCH   1   7
BRANCH   1  21
ATOM     18  N   UNL     1       1.762  -2.426  -2.307  0.00  0.00    -0.299 N 
ATOM     19  C   UNL     1       1.926  -3.750  -2.499  0.00  0.00    +0.300 C 
ATOM     20  O   UNL     1       1.624  -4.534  -1.620  0.00  0.00    -0.253 OA
ATOM     21  N   UNL     1       2.425  -4.205  -3.665  0.00  0.00    -0.285 N 
ATOM     22  H   UNL     1       1.934  -1.805  -3.032  0.00  0.00    +0.150 HD
ATOM     23  H   UNL     1       2.731  -3.578  -4.339  0.00  0.00    +0.151 HD
BRANCH  18  24
ATOM     24  C   UNL     1       1.324  -1.924  -1.002  0.00  0.00    +0.106 C 
BRANCH  24  25
ATOM     25  C   UNL     1       1.337  -0.394  -1.014  0.00  0.00    +0.018 C 
BRANCH  25  27
ATOM     26  C   UNL     1       0.892   1.660   0.337  0.00  0.00    +0.004 C 
ATOM     27  C   UNL     1       0.879   0.130   0.349  0.00  0.00    -0.002 C 
ENDBRANCH  25  27
ENDBRANCH  24  25
ENDBRANCH  18  24
ENDBRANCH   1  21
TORSDOF 5
