REMARK  Name = ZINC36557749
REMARK  8 active torsions:
REMARK  status: ('A' for Active; 'I' for Inactive)
REMARK    1  A    between atoms: C_4  and  C_7
REMARK    2  A    between atoms: C_7  and  O_8
REMARK    3  A    between atoms: O_8  and  C_9
REMARK    4  A    between atoms: C_14  and  C_15
REMARK    5  A    between atoms: C_26  and  S_31
REMARK    6  A    between atoms: S_31  and  N_34
REMARK    7  A    between atoms: N_34  and  C_35
REMARK    8  A    between atoms: C_35  and  C_36
REMARK                            x       y       z     vdW  Elec       q    Type
REMARK                         _______ _______ _______ _____ _____    ______ ____
ROOT
ATOM      1  C   UNL     1       5.008  -1.430   3.949  0.00  0.00    +0.108 C 
ATOM      2  C   UNL     1       3.986  -2.487   4.322  0.00  0.00    +0.029 C 
ATOM      3  C   UNL     1       3.011  -2.938   3.226  0.00  0.00    +0.033 C 
ATOM      4  C   UNL     1       2.718  -4.380   3.648  0.00  0.00    -0.030 C 
ATOM      5  C   UNL     1       3.733  -4.860   4.357  0.00  0.00    -0.023 C 
ATOM      6  C   UNL     1       4.793  -3.812   4.471  0.00  0.00    +0.049 C 
ATOM      7  C   UNL     1       5.669  -3.678   5.655  0.00  0.00    -0.018 A 
ATOM      8  C   UNL     1       5.961  -4.740   6.484  0.00  0.00    +0.034 A 
ATOM      9  C   UNL     1       6.797  -4.567   7.571  0.00  0.00    +0.106 A 
ATOM     10  C   UNL     1       7.344  -3.324   7.831  0.00  0.00    +0.030 A 
ATOM     11  C   UNL     1       7.053  -2.253   7.011  0.00  0.00    +0.025 A 
ATOM     12  C   UNL     1       6.209  -2.414   5.919  0.00  0.00    +0.031 A 
ATOM     13  N   UNL     1       5.900  -1.302   5.122  0.00  0.00    -0.336 N 
ATOM     14  H   UNL     1       6.276  -0.435   5.342  0.00  0.00    +0.147 HD
ENDROOT
BRANCH   1  20
ATOM     15  C   UNL     1       5.319  -1.605   1.466  0.00  0.00    +0.126 A 
ATOM     16  C   UNL     1       6.048  -2.007   0.357  0.00  0.00    +0.046 A 
ATOM     17  C   UNL     1       7.245  -2.676   0.525  0.00  0.00    +0.004 A 
ATOM     18  C   UNL     1       7.716  -2.945   1.797  0.00  0.00    +0.001 A 
ATOM     19  C   UNL     1       6.991  -2.545   2.904  0.00  0.00    +0.009 A 
ATOM     20  C   UNL     1       5.796  -1.871   2.742  0.00  0.00    +0.015 A 
BRANCH  15  21
ATOM     21  O   UNL     1       4.141  -0.946   1.304  0.00  0.00    -0.487 OA
BRANCH  21  22
ATOM     22  C   UNL     1       3.711  -0.707  -0.038  0.00  0.00    +0.264 C 
BRANCH  22  26
ATOM     23  C   UNL     1      -0.017   1.378   0.010  0.00  0.00    +0.000 A 
ATOM     24  C   UNL     1       1.171   2.086   0.002  0.00  0.00    +0.000 A 
ATOM     25  C   UNL     1       2.377   1.411  -0.013  0.00  0.00    +0.007 A 
ATOM     26  C   UNL     1       2.396   0.029  -0.020  0.00  0.00    -0.010 A 
ATOM     27  C   UNL     1       1.208  -0.679  -0.012  0.00  0.00    +0.007 A 
ATOM     28  C   UNL     1       0.002  -0.004   0.002  0.00  0.00    +0.000 A 
ENDBRANCH  22  26
ENDBRANCH  21  22
ENDBRANCH  15  21
ENDBRANCH   1  20
BRANCH   9  29
ATOM     29  S   UNL     1       7.164  -5.929   8.626  0.00  0.00    +0.058 S 
ATOM     30  O   UNL     1       7.534  -5.381   9.884  0.00  0.00    -0.153 OA
ATOM     31  O   UNL     1       6.095  -6.854   8.482  0.00  0.00    -0.153 OA
BRANCH  29  32
ATOM     32  N   UNL     1       8.515  -6.670   8.018  0.00  0.00    -0.187 NA
ATOM     33  H   UNL     1       8.458  -7.575   7.674  0.00  0.00    +0.148 HD
BRANCH  32  34
ATOM     34  C   UNL     1       9.795  -5.957   7.998  0.00  0.00    +0.137 C 
BRANCH  34  35
ATOM     35  C   UNL     1      10.929  -6.954   7.750  0.00  0.00    +0.134 C 
ATOM     36  C   UNL     1      12.291  -6.232   7.848  0.00  0.00    +0.035 C 
ATOM     37  C   UNL     1      13.100  -6.898   6.702  0.00  0.00    +0.031 C 
ATOM     38  C   UNL     1      11.982  -7.146   5.659  0.00  0.00    +0.160 C 
ATOM     39  O   UNL     1      10.819  -7.496   6.429  0.00  0.00    -0.375 OA
ENDBRANCH  34  35
ENDBRANCH  32  34
ENDBRANCH  29  32
ENDBRANCH   9  29
TORSDOF 8
