REMARK  Name = ZINC09288522
REMARK  6 active torsions:
REMARK  status: ('A' for Active; 'I' for Inactive)
REMARK    1  A    between atoms: C_1  and  O_2
REMARK    2  A    between atoms: O_2  and  C_3
REMARK    3  A    between atoms: C_11  and  C_21
REMARK    4  A    between atoms: C_12  and  S_13
REMARK    5  A    between atoms: S_13  and  C_14
REMARK    6  A    between atoms: N_26  and  C_29
REMARK                            x       y       z     vdW  Elec       q    Type
REMARK                         _______ _______ _______ _____ _____    ______ ____
ROOT
ATOM      1  C   UNL     1      -3.040  10.384  -5.718  0.00  0.00    +0.122 A 
ATOM      2  C   UNL     1      -2.037  11.242  -6.166  0.00  0.00    +0.046 A 
ATOM      3  C   UNL     1      -0.828  11.282  -5.535  0.00  0.00    +0.015 A 
ATOM      4  C   UNL     1      -0.591  10.457  -4.431  0.00  0.00    +0.014 A 
ATOM      5  C   UNL     1      -1.599   9.588  -3.972  0.00  0.00    +0.052 A 
ATOM      6  C   UNL     1      -2.825   9.561  -4.629  0.00  0.00    +0.071 A 
ATOM      7  N   UNL     1      -1.104   8.896  -2.891  0.00  0.00    -0.350 N 
ATOM      8  H   UNL     1      -1.592   8.226  -2.386  0.00  0.00    +0.166 HD
ATOM      9  C   UNL     1       0.200   9.301  -2.627  0.00  0.00    +0.117 A 
ATOM     10  C   UNL     1       0.565  10.260  -3.552  0.00  0.00    +0.050 A 
ENDROOT
BRANCH   9  11
ATOM     11  C   UNL     1       1.021   8.806  -1.585  0.00  0.00    +0.264 C 
ATOM     12  O   UNL     1       2.217   8.663  -1.768  0.00  0.00    -0.268 OA
ATOM     13  N   UNL     1       0.480   8.494  -0.391  0.00  0.00    -0.293 N 
ATOM     14  C   UNL     1      -0.936   8.772  -0.108  0.00  0.00    +0.127 C 
ATOM     15  C   UNL     1      -1.026   9.539   1.216  0.00  0.00    +0.125 C 
ATOM     16  N   UNL     1      -0.320   8.787   2.262  0.00  0.00    -0.314 N 
ATOM     17  C   UNL     1       1.112   8.668   1.957  0.00  0.00    +0.125 C 
ATOM     18  C   UNL     1       1.290   7.866   0.663  0.00  0.00    +0.127 C 
BRANCH  16  19
ATOM     19  C   UNL     1      -0.516   9.367   3.510  0.00  0.00    +0.099 A 
ATOM     20  C   UNL     1       0.074   8.798   4.635  0.00  0.00    +0.042 A 
ATOM     21  C   UNL     1      -0.126   9.388   5.870  0.00  0.00    +0.005 A 
ATOM     22  C   UNL     1      -0.921  10.524   5.941  0.00  0.00    +0.018 A 
ATOM     23  C   UNL     1      -1.476  11.034   4.785  0.00  0.00    +0.084 A 
ATOM     24  N   UNL     1      -1.297  10.485   3.554  0.00  0.00    -0.350 N 
ATOM     25  H   UNL     1      -1.722  10.886   2.710  0.00  0.00    +0.166 HD
ENDBRANCH  16  19
ENDBRANCH   9  11
BRANCH   1  27
ATOM     26  C   UNL     1      -4.397  11.232  -7.476  0.00  0.00    +0.277 C 
ATOM     27  O   UNL     1      -4.238  10.357  -6.357  0.00  0.00    -0.495 OA
ENDBRANCH   1  27
BRANCH  10  28
ATOM     28  S   UNL     1       2.118  11.086  -3.655  0.00  0.00    -0.087 S 
BRANCH  28  29
ATOM     29  C   UNL     1       2.979   9.986  -4.729  0.00  0.00    +0.013 A 
ATOM     30  C   UNL     1       2.348   8.844  -5.207  0.00  0.00    +0.016 A 
ATOM     31  C   UNL     1       3.023   7.987  -6.052  0.00  0.00    +0.021 A 
ATOM     32  C   UNL     1       4.331   8.258  -6.416  0.00  0.00    +0.041 A 
ATOM     33  C   UNL     1       4.964   9.392  -5.937  0.00  0.00    +0.021 A 
ATOM     34  C   UNL     1       4.292  10.256  -5.095  0.00  0.00    +0.016 A 
ATOM     35 CL   UNL     1       5.179   7.175  -7.474  0.00  0.00    -0.084 Cl
ENDBRANCH  28  29
ENDBRANCH  10  28
TORSDOF 5
