REMARK  Name = ZINC09762084
REMARK  5 active torsions:
REMARK  status: ('A' for Active; 'I' for Inactive)
REMARK    1  A    between atoms: C_1  and  C_2
REMARK    2  A    between atoms: C_7  and  N_12
REMARK    3  A    between atoms: C_9  and  C_11
REMARK    4  A    between atoms: C_13  and  O_23
REMARK    5  A    between atoms: O_23  and  C_24
REMARK                            x       y       z     vdW  Elec       q    Type
REMARK                         _______ _______ _______ _____ _____    ______ ____
ROOT
ATOM      1  N   UNL     1       1.064  -0.210   0.246  0.00  0.00    -0.265 N 
ATOM      2  C   UNL     1      -0.352   0.098  -0.002  0.00  0.00    +0.236 C 
ATOM      3  C   UNL     1      -0.465   1.596   0.092  0.00  0.00    -0.015 C 
ATOM      4  C   UNL     1       0.751   2.071   0.361  0.00  0.00    +0.018 C 
ATOM      5  C   UNL     1       1.699   0.959   0.458  0.00  0.00    +0.245 C 
ATOM      6  O   UNL     1       2.887   1.074   0.695  0.00  0.00    -0.270 OA
ATOM      7  C   UNL     1       1.061   3.541   0.532  0.00  0.00    +0.040 C 
ATOM      8  C   UNL     1      -0.097   4.354  -0.059  0.00  0.00    +0.005 C 
ATOM      9  C   UNL     1      -1.424   3.832   0.499  0.00  0.00    +0.005 C 
ATOM     10  C   UNL     1      -1.703   2.438  -0.074  0.00  0.00    +0.035 C 
ENDROOT
BRANCH   1  16
ATOM     11  C   UNL     1       2.355  -4.049  -1.095  0.00  0.00    +0.008 C 
ATOM     12  C   UNL     1       3.420  -2.999  -0.772  0.00  0.00    -0.009 C 
ATOM     13  C   UNL     1       4.007  -3.277   0.614  0.00  0.00    +0.003 C 
ATOM     14  C   UNL     1       2.893  -3.213   1.661  0.00  0.00    +0.002 C 
ATOM     15  C   UNL     1       2.258  -1.821   1.646  0.00  0.00    +0.023 C 
ATOM     16  C   UNL     1       1.672  -1.543   0.260  0.00  0.00    +0.082 C 
ATOM     17  C   UNL     1       2.785  -1.607  -0.787  0.00  0.00    +0.009 C 
ATOM     18  C   UNL     1       2.199  -1.329  -2.172  0.00  0.00    +0.009 C 
ENDBRANCH   1  16
BRANCH   2  19
ATOM     19  O   UNL     1      -0.735  -0.345  -1.305  0.00  0.00    -0.358 OA
ATOM     20  C   UNL     1      -1.028  -1.741  -1.382  0.00  0.00    +0.196 C 
ENDBRANCH   2  19
TORSDOF 2
