REMARK  Name = ZINC00829834
REMARK  12 active torsions:
REMARK  status: ('A' for Active; 'I' for Inactive)
REMARK    1  A    between atoms: C_1  and  C_2
REMARK    2  A    between atoms: C_2  and  C_4
REMARK    3  A    between atoms: C_2  and  O_32
REMARK    4  A    between atoms: C_4  and  S_5
REMARK    5  A    between atoms: S_5  and  C_6
REMARK    6  A    between atoms: N_10  and  C_11
REMARK    7  A    between atoms: C_11  and  C_12
REMARK    8  A    between atoms: C_12  and  C_14
REMARK    9  A    between atoms: C_12  and  O_23
REMARK   10  A    between atoms: C_14  and  O_15
REMARK   11  A    between atoms: O_15  and  C_16
REMARK   12  A    between atoms: N_30  and  C_31
REMARK                            x       y       z     vdW  Elec       q    Type
REMARK                         _______ _______ _______ _____ _____    ______ ____
ROOT
ATOM      1  C   UNL     1       1.760  -2.616   2.663  0.00  0.00    +0.172 A 
ATOM      2  N   UNL     1       2.139  -1.692   3.524  0.00  0.00    -0.204 NA
ATOM      3  C   UNL     1       2.765  -2.260   4.555  0.00  0.00    +0.169 A 
ATOM      4  C   UNL     1       2.791  -3.632   4.327  0.00  0.00    +0.152 A 
ATOM      5  N   UNL     1       2.145  -3.840   3.116  0.00  0.00    -0.311 N 
ATOM      6  C   UNL     1       3.406  -4.473   5.271  0.00  0.00    +0.280 A 
ATOM      7  O   UNL     1       3.440  -5.678   5.092  0.00  0.00    -0.265 OA
ATOM      8  N   UNL     1       3.957  -3.933   6.378  0.00  0.00    -0.273 N 
ATOM      9  H   UNL     1       4.394  -4.528   7.051  0.00  0.00    +0.173 HD
ATOM     10  C   UNL     1       3.926  -2.605   6.589  0.00  0.00    +0.331 A 
ATOM     11  O   UNL     1       4.433  -2.153   7.597  0.00  0.00    -0.246 OA
ATOM     12  N   UNL     1       3.348  -1.764   5.711  0.00  0.00    -0.280 N 
ATOM     13  C   UNL     1       3.335  -0.324   5.977  0.00  0.00    +0.155 C 
ENDROOT
BRANCH   1  14
ATOM     14  S   UNL     1       0.896  -2.312   1.158  0.00  0.00    -0.085 S 
BRANCH  14  15
ATOM     15  C   UNL     1       0.742  -0.511   1.242  0.00  0.00    +0.108 C 
BRANCH  15  17
ATOM     16  C   UNL     1      -0.019   1.526   0.010  0.00  0.00    +0.038 C 
ATOM     17  C   UNL     1       0.002  -0.004   0.002  0.00  0.00    +0.122 C 
BRANCH  17  18
ATOM     18  O   UNL     1      -1.339  -0.499   0.012  0.00  0.00    -0.391 OA
ATOM     19  H   UNL     1      -1.868  -0.216  -0.746  0.00  0.00    +0.210 HD
ENDBRANCH  17  18
ENDBRANCH  15  17
ENDBRANCH  14  15
ENDBRANCH   1  14
BRANCH   5  20
ATOM     20  C   UNL     1       1.922  -5.127   2.453  0.00  0.00    +0.159 C 
BRANCH  20  21
ATOM     21  C   UNL     1       3.102  -5.436   1.528  0.00  0.00    +0.171 C 
BRANCH  21  22
ATOM     22  O   UNL     1       3.146  -4.471   0.475  0.00  0.00    -0.387 OA
ATOM     23  H   UNL     1       2.350  -4.451  -0.074  0.00  0.00    +0.210 HD
ENDBRANCH  21  22
BRANCH  21  24
ATOM     24  C   UNL     1       2.930  -6.834   0.932  0.00  0.00    +0.262 C 
BRANCH  24  25
ATOM     25  O   UNL     1       4.086  -7.169   0.162  0.00  0.00    -0.489 OA
BRANCH  25  26
ATOM     26  C   UNL     1       4.095  -8.387  -0.441  0.00  0.00    +0.121 A 
ATOM     27  C   UNL     1       3.015  -9.245  -0.289  0.00  0.00    +0.047 A 
ATOM     28  C   UNL     1       3.023 -10.481  -0.906  0.00  0.00    +0.023 A 
ATOM     29  C   UNL     1       4.112 -10.867  -1.667  0.00  0.00    +0.041 A 
ATOM     30  C   UNL     1       5.192 -10.015  -1.815  0.00  0.00    +0.023 A 
ATOM     31  C   UNL     1       5.185  -8.777  -1.204  0.00  0.00    +0.047 A 
ATOM     32 CL   UNL     1       4.123 -12.424  -2.436  0.00  0.00    -0.084 Cl
ENDBRANCH  25  26
ENDBRANCH  24  25
ENDBRANCH  21  24
ENDBRANCH  20  21
ENDBRANCH   5  20
TORSDOF 10
