REMARK  Name = ZINC39358681
REMARK  7 active torsions:
REMARK  status: ('A' for Active; 'I' for Inactive)
REMARK    1  A    between atoms: C_1  and  C_2
REMARK    2  A    between atoms: C_2  and  N_3
REMARK    3  A    between atoms: N_3  and  C_4
REMARK    4  A    between atoms: N_3  and  C_6
REMARK    5  A    between atoms: C_4  and  C_5
REMARK    6  A    between atoms: C_9  and  C_12
REMARK    7  A    between atoms: C_15  and  O_28
REMARK                            x       y       z     vdW  Elec       q    Type
REMARK                         _______ _______ _______ _____ _____    ______ ____
ROOT
ATOM      1  C   UNL     1       6.311  -1.357   0.990  0.00  0.00    +0.089 C 
ATOM      2  C   UNL     1       6.996  -0.518   2.026  0.00  0.00    +0.048 C 
ATOM      3  C   UNL     1       6.669   0.559   2.705  0.00  0.00    +0.235 C 
ATOM      4  N   UNL     1       7.626   0.841   3.631  0.00  0.00    -0.114 NA
ATOM      5  N   UNL     1       8.598   0.074   3.611  0.00  0.00    -0.157 NA
ATOM      6  C   UNL     1       8.400  -0.882   2.521  0.00  0.00    +0.245 C 
ATOM      7  N   UNL     1       8.261  -2.262   2.993  0.00  0.00    -0.321 N 
ATOM      8  C   UNL     1       7.532  -3.159   2.253  0.00  0.00    +0.013 C 
ATOM      9  C   UNL     1       6.623  -2.811   1.316  0.00  0.00    +0.023 C 
ATOM     10  C   UNL     1       5.913  -3.780   0.587  0.00  0.00    +0.162 C 
ATOM     11  O   UNL     1       5.095  -3.421  -0.238  0.00  0.00    -0.292 OA
ATOM     12  C   UNL     1       6.141  -5.250   0.804  0.00  0.00    +0.080 C 
ATOM     13  C   UNL     1       7.583  -5.455   1.282  0.00  0.00    +0.014 C 
ATOM     14  C   UNL     1       7.792  -4.622   2.552  0.00  0.00    +0.051 C 
ATOM     15  H   UNL     1       8.681  -2.539   3.822  0.00  0.00    +0.148 HD
ENDROOT
BRANCH   1  19
ATOM     16  C   UNL     1       2.090  -0.703   1.140  0.00  0.00    +0.030 A 
ATOM     17  C   UNL     1       2.792  -0.451  -0.032  0.00  0.00    +0.023 A 
ATOM     18  C   UNL     1       4.156  -0.663  -0.076  0.00  0.00    +0.006 A 
ATOM     19  C   UNL     1       4.823  -1.126   1.043  0.00  0.00    -0.035 A 
ATOM     20  C   UNL     1       4.127  -1.379   2.211  0.00  0.00    +0.006 A 
ATOM     21  C   UNL     1       2.763  -1.163   2.264  0.00  0.00    +0.023 A 
BRANCH  16  22
ATOM     22  N   UNL     1       0.711  -0.489   1.189  0.00  0.00    -0.330 N 
BRANCH  22  24
ATOM     23  C   UNL     1      -0.019   1.526   0.010  0.00  0.00    +0.024 C 
ATOM     24  C   UNL     1       0.002  -0.004   0.002  0.00  0.00    +0.102 C 
ENDBRANCH  22  24
BRANCH  22  25
ATOM     25  C   UNL     1      -0.028  -0.750   2.427  0.00  0.00    +0.102 C 
ATOM     26  C   UNL     1      -0.511  -2.202   2.437  0.00  0.00    +0.024 C 
ENDBRANCH  22  25
ENDBRANCH  16  22
ENDBRANCH   1  19
BRANCH   3  27
ATOM     27  O   UNL     1       5.538   1.288   2.509  0.00  0.00    -0.491 OA
ATOM     28  H   UNL     1       5.456   2.051   3.097  0.00  0.00    +0.294 HD
ENDBRANCH   3  27
TORSDOF 5
