REMARK  Name = ZINC04630412
REMARK  7 active torsions:
REMARK  status: ('A' for Active; 'I' for Inactive)
REMARK    1  A    between atoms: C_1  and  C_2
REMARK    2  A    between atoms: C_2  and  C_3
REMARK    3  A    between atoms: C_3  and  C_4
REMARK    4  A    between atoms: C_4  and  N_51
REMARK    5  A    between atoms: C_5  and  C_6
REMARK    6  A    between atoms: C_5  and  N_51
REMARK    7  A    between atoms: C_20  and  C_22
REMARK                            x       y       z     vdW  Elec       q    Type
REMARK                         _______ _______ _______ _____ _____    ______ ____
ROOT
ATOM      1  C   UNL     1       0.002  -0.004   0.002  0.00  0.00    +0.204 C 
ATOM      2  O   UNL     1       1.056  -0.596  -0.103  0.00  0.00    -0.277 OA
ATOM      3  N   UNL     1      -0.016   1.343   0.010  0.00  0.00    -0.258 N 
ATOM      4  C   UNL     1       1.189   2.060   0.011  0.00  0.00    +0.061 A 
ATOM      5  C   UNL     1       2.328   1.520   0.588  0.00  0.00    +0.025 A 
ATOM      6  C   UNL     1       3.512   2.234   0.573  0.00  0.00    +0.002 A 
ATOM      7  C   UNL     1       3.569   3.484  -0.015  0.00  0.00    +0.002 A 
ATOM      8  C   UNL     1       2.437   4.034  -0.590  0.00  0.00    +0.028 A 
ATOM      9  C   UNL     1       1.250   3.329  -0.575  0.00  0.00    +0.068 A 
ATOM     10  N   UNL     1       0.070   3.853  -1.123  0.00  0.00    -0.316 N 
ATOM     11  C   UNL     1      -0.116   4.921  -1.936  0.00  0.00    +0.092 A 
ATOM     12  C   UNL     1      -1.438   5.023  -2.201  0.00  0.00    +0.020 A 
ATOM     13  C   UNL     1      -2.092   3.973  -1.519  0.00  0.00    +0.025 A 
ATOM     14  C   UNL     1      -1.155   3.275  -0.868  0.00  0.00    +0.049 A 
ATOM     15  C   UNL     1      -1.302   2.061   0.011  0.00  0.00    +0.158 C 
ENDROOT
BRANCH  15  16
ATOM     16  C   UNL     1      -1.645   2.491   1.414  0.00  0.00    -0.021 A 
ATOM     17  C   UNL     1      -0.655   2.966   2.253  0.00  0.00    +0.007 A 
ATOM     18  C   UNL     1      -0.971   3.366   3.538  0.00  0.00    +0.020 A 
ATOM     19  C   UNL     1      -2.276   3.279   3.988  0.00  0.00    +0.041 A 
ATOM     20  C   UNL     1      -3.266   2.798   3.150  0.00  0.00    +0.020 A 
ATOM     21  C   UNL     1      -2.950   2.404   1.863  0.00  0.00    +0.007 A 
ATOM     22 CL   UNL     1      -2.672   3.774   5.605  0.00  0.00    -0.084 Cl
ENDBRANCH  15  16
BRANCH   1  23
ATOM     23  C   UNL     1      -1.287  -0.776   0.124  0.00  0.00    +0.015 C 
BRANCH  23  24
ATOM     24  N   UNL     1      -0.981  -2.216   0.210  0.00  0.00    +0.385 N 
ATOM     25  H   UNL     1      -0.479  -2.507  -0.637  0.00  0.00    -0.085 HD
ATOM     26  H   UNL     1      -0.392  -2.389   1.034  0.00  0.00    -0.085 HD
BRANCH  24  27
ATOM     27  C   UNL     1      -2.226  -2.998   0.331  0.00  0.00    -0.082 C 
BRANCH  27  28
ATOM     28  C   UNL     1      -1.879  -4.485   0.418  0.00  0.00    -0.019 C 
BRANCH  28  30
ATOM     29  C   UNL     1      -2.817  -6.791   0.631  0.00  0.00    +0.004 C 
ATOM     30  C   UNL     1      -3.165  -5.303   0.543  0.00  0.00    -0.005 C 
ENDBRANCH  28  30
ENDBRANCH  27  28
ENDBRANCH  24  27
ENDBRANCH  23  24
ENDBRANCH   1  23
TORSDOF 6
