REMARK  Name = ZINC43979490
REMARK  8 active torsions:
REMARK  status: ('A' for Active; 'I' for Inactive)
REMARK    1  A    between atoms: C_1  and  C_2
REMARK    2  A    between atoms: N_7  and  C_9
REMARK    3  A    between atoms: C_9  and  C_11
REMARK    4  A    between atoms: C_9  and  C_12
REMARK    5  A    between atoms: C_12  and  N_13
REMARK    6  A    between atoms: N_16  and  C_17
REMARK    7  A    between atoms: C_21  and  N_23
REMARK    8  A    between atoms: C_24  and  C_26
REMARK                            x       y       z     vdW  Elec       q    Type
REMARK                         _______ _______ _______ _____ _____    ______ ____
ROOT
ATOM      1  N   UNL     1       3.025  -0.535   2.094  0.00  0.00    -0.301 N 
ATOM      2  C   UNL     1       4.216   0.063   1.898  0.00  0.00    +0.304 C 
ATOM      3  O   UNL     1       5.219  -0.610   1.760  0.00  0.00    -0.253 OA
ATOM      4  N   UNL     1       4.296   1.408   1.854  0.00  0.00    -0.269 N 
ATOM      5  H   UNL     1       2.224   0.002   2.204  0.00  0.00    +0.150 HD
ATOM      6  H   UNL     1       3.489   1.944   1.905  0.00  0.00    +0.156 HD
ENDROOT
BRANCH   4   7
ATOM      7  C   UNL     1       5.543   2.031   1.735  0.00  0.00    +0.037 A 
ATOM      8  C   UNL     1       5.784   3.235   2.386  0.00  0.00    +0.023 A 
ATOM      9  C   UNL     1       7.015   3.851   2.268  0.00  0.00    +0.004 A 
ATOM     10  C   UNL     1       8.010   3.273   1.504  0.00  0.00    +0.023 A 
ATOM     11  C   UNL     1       7.776   2.070   0.851  0.00  0.00    +0.035 A 
ATOM     12  C   UNL     1       6.542   1.446   0.971  0.00  0.00    +0.046 A 
BRANCH  11  13
ATOM     13  N   UNL     1       8.784   1.486   0.077  0.00  0.00    -0.281 N 
ATOM     14  C   UNL     1      10.074   1.614   0.444  0.00  0.00    +0.255 C 
ATOM     15  O   UNL     1      10.357   2.160   1.494  0.00  0.00    -0.269 OA
ATOM     16  H   UNL     1       8.554   0.988  -0.723  0.00  0.00    +0.155 HD
BRANCH  14  17
ATOM     17  C   UNL     1      11.137   1.097  -0.423  0.00  0.00    +0.074 A 
ATOM     18  C   UNL     1      12.510   1.121  -0.232  0.00  0.00    +0.021 A 
ATOM     19  C   UNL     1      13.262   0.551  -1.230  0.00  0.00    +0.008 A 
ATOM     20  C   UNL     1      12.633   0.017  -2.306  0.00  0.00    +0.046 A 
ATOM     21  S   UNL     1      11.001   0.264  -1.993  0.00  0.00    -0.092 S 
ENDBRANCH  14  17
ENDBRANCH  11  13
ENDBRANCH   4   7
BRANCH   1  22
ATOM     22  C   UNL     1       2.938  -1.997   2.142  0.00  0.00    +0.090 C 
BRANCH  22  23
ATOM     23  C   UNL     1       1.471  -2.418   2.247  0.00  0.00    -0.054 C 
ATOM     24  C   UNL     1       1.373  -3.944   2.196  0.00  0.00    -0.012 C 
BRANCH  23  30
ATOM     25  C   UNL     1      -2.986  -1.893   0.291  0.00  0.00    +0.005 C 
ATOM     26  C   UNL     1      -1.508  -1.524   0.146  0.00  0.00    -0.031 C 
ATOM     27  C   UNL     1      -0.990  -2.014  -1.209  0.00  0.00    -0.001 C 
ATOM     28  C   UNL     1       0.508  -1.711  -1.311  0.00  0.00    -0.018 C 
ATOM     29  C   UNL     1       1.237  -2.370  -0.139  0.00  0.00    -0.078 C 
ATOM     30  N   UNL     1       0.715  -1.841   1.127  0.00  0.00    +0.383 N 
ATOM     31  C   UNL     1      -0.704  -2.189   1.266  0.00  0.00    -0.075 C 
ATOM     32  H   UNL     1       0.816  -0.837   1.137  0.00  0.00    -0.081 HD
ENDBRANCH  23  30
ENDBRANCH  22  23
ENDBRANCH   1  22
TORSDOF 6
