REMARK  Name = ZINC42111198
REMARK  7 active torsions:
REMARK  status: ('A' for Active; 'I' for Inactive)
REMARK    1  A    between atoms: C_1  and  C_2
REMARK    2  A    between atoms: C_4  and  C_11
REMARK    3  A    between atoms: C_5  and  C_10
REMARK    4  A    between atoms: N_6  and  C_7
REMARK    5  A    between atoms: C_7  and  C_8
REMARK    6  A    between atoms: N_15  and  C_22
REMARK    7  A    between atoms: N_18  and  C_21
REMARK                            x       y       z     vdW  Elec       q    Type
REMARK                         _______ _______ _______ _____ _____    ______ ____
ROOT
ATOM      1  C   UNL     1       0.042  -3.339  -1.422  0.00  0.00    +0.028 C 
ATOM      2  C   UNL     1      -0.070  -3.241  -2.799  0.00  0.00    +0.100 C 
ATOM      3  C   UNL     1      -0.088  -1.933  -3.479  0.00  0.00    +0.259 C 
ATOM      4  O   UNL     1      -0.004  -0.898  -2.845  0.00  0.00    -0.269 OA
ATOM      5  N   UNL     1      -0.199  -1.915  -4.823  0.00  0.00    -0.225 N 
ATOM      6  C   UNL     1      -0.291  -3.047  -5.534  0.00  0.00    +0.317 C 
ATOM      7  O   UNL     1      -0.389  -2.962  -6.743  0.00  0.00    -0.252 OA
ATOM      8  N   UNL     1      -0.281  -4.269  -4.984  0.00  0.00    -0.225 N 
ATOM      9  C   UNL     1      -0.170  -4.441  -3.650  0.00  0.00    +0.259 C 
ATOM     10  O   UNL     1      -0.158  -5.556  -3.163  0.00  0.00    -0.269 OA
ATOM     11  C   UNL     1      -0.388  -5.446  -5.850  0.00  0.00    +0.143 C 
ATOM     12  C   UNL     1      -0.220  -0.627  -5.522  0.00  0.00    +0.143 C 
ENDROOT
BRANCH   1  16
ATOM     13  C   UNL     1      -1.492   1.078   0.485  0.00  0.00    +0.063 C 
ATOM     14  C   UNL     1      -0.745  -0.205   0.224  0.00  0.00    +0.018 A 
ATOM     15  C   UNL     1      -1.038  -1.092  -0.741  0.00  0.00    +0.030 A 
ATOM     16  C   UNL     1      -0.052  -2.176  -0.620  0.00  0.00    -0.003 A 
ATOM     17  C   UNL     1       0.768  -1.824   0.442  0.00  0.00    +0.024 A 
ATOM     18  N   UNL     1       0.341  -0.644   0.926  0.00  0.00    -0.334 N 
ATOM     19  C   UNL     1       1.937  -2.621   0.960  0.00  0.00    +0.064 C 
BRANCH  18  20
ATOM     20  C   UNL     1       0.952   0.067   2.051  0.00  0.00    +0.240 C 
BRANCH  20  21
ATOM     21  C   UNL     1       0.317  -0.364   3.307  0.00  0.00    +0.084 C 
ATOM     22  N   UNL     1      -0.173  -0.697   4.277  0.00  0.00    -0.195 NA
ENDBRANCH  20  21
ENDBRANCH  18  20
ENDBRANCH   1  16
TORSDOF 3
