REMARK  Name = ZINC39358754
REMARK  9 active torsions:
REMARK  status: ('A' for Active; 'I' for Inactive)
REMARK    1  A    between atoms: C_1  and  C_2
REMARK    2  A    between atoms: C_2  and  N_3
REMARK    3  A    between atoms: N_3  and  C_4
REMARK    4  A    between atoms: N_3  and  C_6
REMARK    5  A    between atoms: C_4  and  C_5
REMARK    6  A    between atoms: C_9  and  C_12
REMARK    7  A    between atoms: C_15  and  O_30
REMARK    8  A    between atoms: C_26  and  C_28
REMARK    9  A    between atoms: C_26  and  C_29
REMARK                            x       y       z     vdW  Elec       q    Type
REMARK                         _______ _______ _______ _____ _____    ______ ____
ROOT
ATOM      1  C   UNL     1       6.311  -1.357   0.990  0.00  0.00    +0.089 C 
ATOM      2  C   UNL     1       6.618  -2.789   1.311  0.00  0.00    +0.048 C 
ATOM      3  C   UNL     1       5.924  -3.906   1.300  0.00  0.00    +0.235 C 
ATOM      4  N   UNL     1       6.664  -4.925   1.817  0.00  0.00    -0.114 NA
ATOM      5  N   UNL     1       7.817  -4.608   2.137  0.00  0.00    -0.157 NA
ATOM      6  C   UNL     1       8.015  -3.200   1.788  0.00  0.00    +0.245 C 
ATOM      7  N   UNL     1       8.254  -2.351   2.957  0.00  0.00    -0.321 N 
ATOM      8  C   UNL     1       7.904  -1.024   2.909  0.00  0.00    +0.014 C 
ATOM      9  C   UNL     1       7.006  -0.506   2.042  0.00  0.00    +0.023 C 
ATOM     10  C   UNL     1       6.663   0.857   2.069  0.00  0.00    +0.162 C 
ATOM     11  O   UNL     1       5.853   1.280   1.269  0.00  0.00    -0.292 OA
ATOM     12  C   UNL     1       7.274   1.803   3.064  0.00  0.00    +0.086 C 
ATOM     13  C   UNL     1       7.665   1.015   4.319  0.00  0.00    -0.023 C 
ATOM     14  C   UNL     1       8.603  -0.122   3.905  0.00  0.00    +0.057 C 
ATOM     15  C   UNL     1       6.410   0.431   4.972  0.00  0.00    +0.011 C 
ATOM     16  C   UNL     1       8.378   1.940   5.307  0.00  0.00    +0.011 C 
ATOM     17  H   UNL     1       8.655  -2.722   3.758  0.00  0.00    +0.148 HD
ENDROOT
BRANCH   1  21
ATOM     18  C   UNL     1       2.090  -0.703   1.140  0.00  0.00    +0.030 A 
ATOM     19  C   UNL     1       2.792  -0.451  -0.032  0.00  0.00    +0.023 A 
ATOM     20  C   UNL     1       4.156  -0.663  -0.076  0.00  0.00    +0.006 A 
ATOM     21  C   UNL     1       4.823  -1.126   1.043  0.00  0.00    -0.035 A 
ATOM     22  C   UNL     1       4.127  -1.379   2.211  0.00  0.00    +0.006 A 
ATOM     23  C   UNL     1       2.763  -1.163   2.264  0.00  0.00    +0.023 A 
BRANCH  18  24
ATOM     24  N   UNL     1       0.711  -0.489   1.189  0.00  0.00    -0.330 N 
BRANCH  24  26
ATOM     25  C   UNL     1      -0.019   1.526   0.010  0.00  0.00    +0.024 C 
ATOM     26  C   UNL     1       0.002  -0.004   0.002  0.00  0.00    +0.102 C 
ENDBRANCH  24  26
BRANCH  24  27
ATOM     27  C   UNL     1      -0.028  -0.750   2.427  0.00  0.00    +0.102 C 
ATOM     28  C   UNL     1      -0.511  -2.202   2.437  0.00  0.00    +0.024 C 
ENDBRANCH  24  27
ENDBRANCH  18  24
ENDBRANCH   1  21
BRANCH   3  29
ATOM     29  O   UNL     1       4.651  -4.026   0.840  0.00  0.00    -0.491 OA
ATOM     30  H   UNL     1       4.291  -4.921   0.906  0.00  0.00    +0.294 HD
ENDBRANCH   3  29
TORSDOF 5
