REMARK  Name = ZINC38670975
REMARK  8 active torsions:
REMARK  status: ('A' for Active; 'I' for Inactive)
REMARK    1  A    between atoms: C_1  and  N_2
REMARK    2  A    between atoms: C_10  and  C_12
REMARK    3  A    between atoms: C_12  and  C_14
REMARK    4  A    between atoms: C_12  and  N_31
REMARK    5  A    between atoms: C_14  and  N_15
REMARK    6  A    between atoms: C_16  and  C_18
REMARK    7  A    between atoms: C_18  and  C_19
REMARK    8  A    between atoms: C_18  and  C_25
REMARK                            x       y       z     vdW  Elec       q    Type
REMARK                         _______ _______ _______ _____ _____    ______ ____
ROOT
ATOM      1  C   UNL     1       4.829  -4.136  -0.328  0.00  0.00    -0.020 C 
ENDROOT
BRANCH   1  11
ATOM      2  C   UNL     1       0.440   0.138   1.921  0.00  0.00    +0.129 C 
ATOM      3  N   UNL     1       0.271  -1.184   1.313  0.00  0.00    -0.333 N 
ATOM      4  C   UNL     1      -1.070  -1.751   1.118  0.00  0.00    +0.105 C 
ATOM      5  C   UNL     1      -1.030  -3.217   1.566  0.00  0.00    +0.024 C 
ATOM      6  C   UNL     1      -0.062  -3.983   0.664  0.00  0.00    +0.038 C 
ATOM      7  C   UNL     1       1.265  -3.273   0.592  0.00  0.00    -0.026 A 
ATOM      8  C   UNL     1       1.385  -1.926   0.904  0.00  0.00    +0.033 A 
ATOM      9  C   UNL     1       2.622  -1.298   0.818  0.00  0.00    +0.023 A 
ATOM     10  C   UNL     1       3.734  -2.013   0.419  0.00  0.00    +0.004 A 
ATOM     11  C   UNL     1       3.615  -3.354   0.106  0.00  0.00    -0.059 A 
ATOM     12  C   UNL     1       2.385  -3.985   0.200  0.00  0.00    +0.007 A 
ENDBRANCH   1  11
BRANCH   1  13
ATOM     13  N   UNL     1       5.986  -3.731   0.481  0.00  0.00    +0.385 N 
ATOM     14  C   UNL     1       7.145  -4.558   0.122  0.00  0.00    -0.078 C 
ATOM     15  C   UNL     1       8.373  -4.088   0.903  0.00  0.00    -0.019 C 
ATOM     16  C   UNL     1       8.097  -4.217   2.404  0.00  0.00    -0.004 C 
ATOM     17  C   UNL     1       6.843  -3.410   2.754  0.00  0.00    -0.019 C 
ATOM     18  C   UNL     1       5.671  -3.906   1.904  0.00  0.00    -0.078 C 
ATOM     19  H   UNL     1       6.199  -2.762   0.301  0.00  0.00    -0.081 HD
ENDBRANCH   1  13
BRANCH   1  20
ATOM     20  C   UNL     1       5.115  -3.854  -1.805  0.00  0.00    +0.093 C 
BRANCH  20  21
ATOM     21  N   UNL     1       4.017  -4.374  -2.623  0.00  0.00    -0.316 N 
ATOM     22  C   UNL     1       4.003  -4.152  -3.952  0.00  0.00    +0.225 C 
ATOM     23  O   UNL     1       4.900  -3.521  -4.471  0.00  0.00    -0.275 OA
ATOM     24  H   UNL     1       3.300  -4.878  -2.208  0.00  0.00    +0.149 HD
BRANCH  22  25
ATOM     25  C   UNL     1       2.873  -4.686  -4.794  0.00  0.00    +0.135 C 
BRANCH  25  26
ATOM     26  C   UNL     1       1.569  -4.103  -4.313  0.00  0.00    -0.031 A 
ATOM     27  C   UNL     1       1.435  -2.735  -4.169  0.00  0.00    +0.005 A 
ATOM     28  C   UNL     1       0.239  -2.200  -3.728  0.00  0.00    +0.000 A 
ATOM     29  C   UNL     1      -0.823  -3.033  -3.433  0.00  0.00    +0.000 A 
ATOM     30  C   UNL     1      -0.690  -4.401  -3.578  0.00  0.00    +0.000 A 
ATOM     31  C   UNL     1       0.505  -4.936  -4.022  0.00  0.00    +0.005 A 
ENDBRANCH  25  26
BRANCH  25  32
ATOM     32  C   UNL     1       3.095  -4.302  -6.234  0.00  0.00    -0.031 A 
ATOM     33  C   UNL     1       3.297  -2.978  -6.573  0.00  0.00    +0.005 A 
ATOM     34  C   UNL     1       3.501  -2.626  -7.894  0.00  0.00    +0.000 A 
ATOM     35  C   UNL     1       3.501  -3.598  -8.877  0.00  0.00    +0.000 A 
ATOM     36  C   UNL     1       3.299  -4.923  -8.538  0.00  0.00    +0.000 A 
ATOM     37  C   UNL     1       3.100  -5.276  -7.216  0.00  0.00    +0.005 A 
ENDBRANCH  25  32
ENDBRANCH  22  25
ENDBRANCH  20  21
ENDBRANCH   1  20
TORSDOF 7
