REMARK  Name = ZINC44175840
REMARK  9 active torsions:
REMARK  status: ('A' for Active; 'I' for Inactive)
REMARK    1  A    between atoms: C_1  and  C_2
REMARK    2  A    between atoms: C_2  and  C_3
REMARK    3  A    between atoms: C_3  and  C_5
REMARK    4  A    between atoms: C_3  and  N_21
REMARK    5  A    between atoms: C_5  and  N_6
REMARK    6  A    between atoms: N_9  and  C_10
REMARK    7  A    between atoms: C_14  and  C_17
REMARK    8  A    between atoms: C_15  and  C_16
REMARK    9  A    between atoms: N_19  and  C_20
REMARK                            x       y       z     vdW  Elec       q    Type
REMARK                         _______ _______ _______ _____ _____    ______ ____
ROOT
ATOM      1  N   UNL     1       1.180  -2.466  -2.534  0.00  0.00    -0.301 N 
ATOM      2  C   UNL     1       1.243  -3.780  -2.824  0.00  0.00    +0.304 C 
ATOM      3  O   UNL     1       0.508  -4.564  -2.254  0.00  0.00    -0.253 OA
ATOM      4  N   UNL     1       2.119  -4.226  -3.745  0.00  0.00    -0.269 N 
ATOM      5  H   UNL     1       1.766  -1.840  -2.988  0.00  0.00    +0.150 HD
ATOM      6  H   UNL     1       2.751  -3.612  -4.151  0.00  0.00    +0.156 HD
ENDROOT
BRANCH   4   7
ATOM      7  C   UNL     1       2.118  -5.575  -4.118  0.00  0.00    +0.038 A 
ATOM      8  C   UNL     1       1.678  -6.543  -3.222  0.00  0.00    +0.023 A 
ATOM      9  C   UNL     1       1.674  -7.876  -3.585  0.00  0.00    +0.003 A 
ATOM     10  C   UNL     1       2.107  -8.256  -4.840  0.00  0.00    +0.013 A 
ATOM     11  C   UNL     1       2.550  -7.292  -5.746  0.00  0.00    +0.041 A 
ATOM     12  C   UNL     1       2.549  -5.946  -5.382  0.00  0.00    -0.017 A 
ATOM     13  C   UNL     1       3.020  -4.898  -6.357  0.00  0.00    +0.046 C 
BRANCH  11  14
ATOM     14  C   UNL     1       3.014  -7.696  -7.091  0.00  0.00    +0.244 C 
ATOM     15  O   UNL     1       3.501  -6.872  -7.839  0.00  0.00    -0.270 OA
ATOM     16  N   UNL     1       2.896  -8.979  -7.487  0.00  0.00    -0.314 N 
ATOM     17  C   UNL     1       3.356  -9.379  -8.819  0.00  0.00    +0.128 C 
ATOM     18  H   UNL     1       2.507  -9.637  -6.890  0.00  0.00    +0.149 HD
ENDBRANCH  11  14
ENDBRANCH   4   7
BRANCH   1  19
ATOM     19  C   UNL     1       0.227  -1.981  -1.532  0.00  0.00    +0.090 C 
BRANCH  19  20
ATOM     20  C   UNL     1       0.488  -0.499  -1.254  0.00  0.00    -0.051 C 
BRANCH  20  21
ATOM     21  N   UNL     1       1.764  -0.352  -0.541  0.00  0.00    +0.385 N 
ATOM     22  C   UNL     1       2.855  -0.895  -1.366  0.00  0.00    -0.073 C 
ATOM     23  C   UNL     1       4.189  -0.462  -0.757  0.00  0.00    +0.017 C 
ATOM     24  C   UNL     1       4.211  -0.795   0.713  0.00  0.00    -0.048 A 
ATOM     25  C   UNL     1       5.429  -0.807   1.374  0.00  0.00    +0.004 A 
ATOM     26  C   UNL     1       5.488  -1.105   2.720  0.00  0.00    +0.000 A 
ATOM     27  C   UNL     1       4.326  -1.391   3.413  0.00  0.00    +0.000 A 
ATOM     28  C   UNL     1       3.113  -1.381   2.755  0.00  0.00    +0.002 A 
ATOM     29  C   UNL     1       3.052  -1.084   1.402  0.00  0.00    -0.061 A 
ATOM     30  C   UNL     1       1.708  -1.092   0.723  0.00  0.00    -0.042 C 
ATOM     31  H   UNL     1       1.935   0.625  -0.353  0.00  0.00    -0.081 HD
ENDBRANCH  20  21
BRANCH  20  33
ATOM     32  C   UNL     1      -0.420   1.564  -0.177  0.00  0.00    +0.002 C 
ATOM     33  C   UNL     1      -0.644   0.066  -0.395  0.00  0.00    -0.017 C 
ENDBRANCH  20  33
ENDBRANCH  19  20
ENDBRANCH   1  19
TORSDOF 6
