REMARK  Name = ZINC61916700
REMARK  3 active torsions:
REMARK  status: ('A' for Active; 'I' for Inactive)
REMARK    1  A    between atoms: C_1  and  C_2
REMARK    2  A    between atoms: N_5  and  C_10
REMARK    3  A    between atoms: C_13  and  N_17
REMARK                            x       y       z     vdW  Elec       q    Type
REMARK                         _______ _______ _______ _____ _____    ______ ____
ROOT
ATOM      1  C   UNL     1      -1.519  -2.482  -1.490  0.00  0.00    +0.101 A 
ATOM      2  C   UNL     1      -2.760  -2.748  -2.057  0.00  0.00    +0.149 A 
ATOM      3  C   UNL     1      -2.838  -3.245  -3.345  0.00  0.00    +0.063 A 
ATOM      4  C   UNL     1      -1.678  -3.479  -4.071  0.00  0.00    +0.030 A 
ATOM      5  C   UNL     1      -0.438  -3.215  -3.505  0.00  0.00    +0.063 A 
ATOM      6  C   UNL     1      -0.359  -2.711  -2.219  0.00  0.00    +0.149 A 
ATOM      7  F   UNL     1       0.847  -2.448  -1.670  0.00  0.00    -0.203 F 
ATOM      8  F   UNL     1      -3.888  -2.520  -1.350  0.00  0.00    -0.203 F 
ENDROOT
BRANCH   1  12
ATOM      9  C   UNL     1      -0.019   1.526   0.010  0.00  0.00    +0.039 C 
ATOM     10  C   UNL     1       0.002  -0.004   0.002  0.00  0.00    +0.132 C 
ATOM     11  C   UNL     1      -1.450  -0.540   0.013  0.00  0.00    +0.136 C 
ATOM     12  N   UNL     1      -1.439  -1.978  -0.182  0.00  0.00    -0.323 N 
ATOM     13  C   UNL     1      -1.346  -2.929   0.941  0.00  0.00    +0.107 C 
ATOM     14  C   UNL     1      -0.329  -2.450   1.987  0.00  0.00    +0.047 C 
ATOM     15  C   UNL     1       0.878  -1.857   1.287  0.00  0.00    +0.162 C 
ATOM     16  O   UNL     1       0.670  -0.461   1.120  0.00  0.00    -0.375 OA
ENDBRANCH   1  12
BRANCH   4  17
ATOM     17  N   UNL     1      -1.758  -3.983  -5.375  0.00  0.00    -0.358 N 
ATOM     18  H   UNL     1      -2.624  -4.169  -5.771  0.00  0.00    +0.142 HD
ATOM     19  H   UNL     1      -0.948  -4.147  -5.882  0.00  0.00    +0.142 HD
ENDBRANCH   4  17
TORSDOF 2
