REMARK  Name = ZINC48698923
REMARK  9 active torsions:
REMARK  status: ('A' for Active; 'I' for Inactive)
REMARK    1  A    between atoms: C_1  and  C_2
REMARK    2  A    between atoms: C_2  and  C_4
REMARK    3  A    between atoms: C_2  and  N_7
REMARK    4  A    between atoms: C_4  and  C_5
REMARK    5  A    between atoms: C_4  and  C_6
REMARK    6  A    between atoms: C_8  and  C_10
REMARK    7  A    between atoms: N_12  and  C_13
REMARK    8  A    between atoms: C_17  and  S_19
REMARK    9  A    between atoms: S_19  and  N_22
REMARK                            x       y       z     vdW  Elec       q    Type
REMARK                         _______ _______ _______ _____ _____    ______ ____
ROOT
ATOM      1  C   UNL     1       0.855  -1.653   5.854  0.00  0.00    +0.036 A 
ATOM      2  C   UNL     1       2.226  -1.854   5.748  0.00  0.00    +0.023 A 
ATOM      3  C   UNL     1       2.955  -2.229   6.858  0.00  0.00    +0.004 A 
ATOM      4  C   UNL     1       2.322  -2.406   8.076  0.00  0.00    +0.029 A 
ATOM      5  C   UNL     1       0.958  -2.207   8.185  0.00  0.00    +0.114 A 
ATOM      6  C   UNL     1       0.224  -1.825   7.079  0.00  0.00    +0.052 A 
ENDROOT
BRANCH   1   9
ATOM      7  C   UNL     1      -0.929  -0.430   4.867  0.00  0.00    +0.303 C 
ATOM      8  O   UNL     1      -1.277  -0.068   5.972  0.00  0.00    -0.265 OA
ATOM      9  N   UNL     1       0.114  -1.272   4.732  0.00  0.00    -0.278 N 
ATOM     10  H   UNL     1       0.351  -1.615   3.856  0.00  0.00    +0.155 HD
BRANCH   7  12
ATOM     11  N   UNL     1      -2.700   0.901   3.793  0.00  0.00    -0.305 N 
ATOM     12  C   UNL     1      -1.657   0.058   3.658  0.00  0.00    +0.300 C 
ATOM     13  O   UNL     1      -1.308  -0.304   2.553  0.00  0.00    -0.265 OA
ATOM     14  H   UNL     1      -2.978   1.190   4.676  0.00  0.00    +0.149 HD
BRANCH  11  16
ATOM     15  C   UNL     1      -4.480   0.358   2.206  0.00  0.00    +0.028 C 
ATOM     16  C   UNL     1      -3.414   1.379   2.607  0.00  0.00    +0.073 C 
BRANCH  16  17
ATOM     17  C   UNL     1      -4.083   2.719   2.920  0.00  0.00    +0.003 C 
ATOM     18  C   UNL     1      -4.829   3.219   1.681  0.00  0.00    +0.009 C 
ATOM     19  C   UNL     1      -5.074   2.537   4.072  0.00  0.00    +0.009 C 
ENDBRANCH  16  17
ENDBRANCH  11  16
ENDBRANCH   7  12
ENDBRANCH   1   9
BRANCH   5  20
ATOM     20  S   UNL     1       0.157  -2.435   9.738  0.00  0.00    +0.100 S 
ATOM     21  O   UNL     1      -1.206  -2.718   9.454  0.00  0.00    -0.146 OA
ATOM     22  O   UNL     1       0.977  -3.316  10.492  0.00  0.00    -0.146 OA
BRANCH  20  23
ATOM     23  N   UNL     1       0.184  -0.976  10.521  0.00  0.00    -0.118 NA
ATOM     24  C   UNL     1      -0.344  -0.863  11.696  0.00  0.00    +0.117 C 
ATOM     25  N   UNL     1      -0.946  -1.877  12.393  0.00  0.00    -0.331 N 
ATOM     26  C   UNL     1      -0.980  -1.529  13.822  0.00  0.00    +0.103 C 
ATOM     27  C   UNL     1      -1.069   0.013  13.842  0.00  0.00    +0.026 C 
ATOM     28  C   UNL     1      -0.385   0.407  12.516  0.00  0.00    +0.074 C 
ATOM     29  H   UNL     1      -1.294  -2.695  12.005  0.00  0.00    +0.147 HD
ENDBRANCH  20  23
ENDBRANCH   5  20
TORSDOF 6
