REMARK  Name = ZINC08891395
REMARK  7 active torsions:
REMARK  status: ('A' for Active; 'I' for Inactive)
REMARK    1  A    between atoms: C_1  and  C_2
REMARK    2  A    between atoms: C_2  and  C_3
REMARK    3  A    between atoms: C_3  and  C_29
REMARK    4  A    between atoms: N_6  and  C_10
REMARK    5  A    between atoms: C_10  and  C_11
REMARK    6  A    between atoms: C_14  and  C_24
REMARK    7  A    between atoms: C_17  and  C_19
REMARK                            x       y       z     vdW  Elec       q    Type
REMARK                         _______ _______ _______ _____ _____    ______ ____
ROOT
ATOM      1  C   UNL     1       0.921   8.798   0.038  0.00  0.00    +0.215 C 
ENDROOT
BRANCH   1   5
ATOM      2  C   UNL     1       1.657  12.385  -0.584  0.00  0.00    +0.138 C 
ATOM      3  C   UNL     1       1.366  10.979  -1.070  0.00  0.00    +0.251 C 
ATOM      4  O   UNL     1       1.282  10.604  -2.220  0.00  0.00    -0.272 OA
ATOM      5  N   UNL     1       1.218  10.233   0.043  0.00  0.00    -0.215 N 
ATOM      6  C   UNL     1       1.381  10.963   1.152  0.00  0.00    +0.310 C 
ATOM      7  O   UNL     1       1.299  10.510   2.277  0.00  0.00    -0.252 OA
ATOM      8  N   UNL     1       1.646  12.254   0.883  0.00  0.00    -0.281 N 
ATOM      9  H   UNL     1       1.798  12.961   1.529  0.00  0.00    +0.152 HD
BRANCH   2  10
ATOM     10  C   UNL     1       0.585  13.341  -1.040  0.00  0.00    -0.015 A 
ATOM     11  C   UNL     1       0.763  14.078  -2.196  0.00  0.00    +0.009 A 
ATOM     12  C   UNL     1      -0.222  14.951  -2.618  0.00  0.00    +0.039 A 
ATOM     13  C   UNL     1      -1.383  15.094  -1.877  0.00  0.00    +0.123 A 
ATOM     14  C   UNL     1      -1.558  14.359  -0.716  0.00  0.00    +0.039 A 
ATOM     15  C   UNL     1      -0.573  13.483  -0.299  0.00  0.00    +0.009 A 
ATOM     16  F   UNL     1      -2.345  15.950  -2.285  0.00  0.00    -0.205 F 
ENDBRANCH   2  10
BRANCH   2  18
ATOM     17  C   UNL     1       4.094  11.834  -0.642  0.00  0.00    +0.007 C 
ATOM     18  C   UNL     1       3.032  12.848  -1.072  0.00  0.00    +0.037 C 
ENDBRANCH   2  18
ENDBRANCH   1   5
BRANCH   1  19
ATOM     19  C   UNL     1      -0.572   8.594   0.051  0.00  0.00    +0.253 C 
ATOM     20  O   UNL     1      -1.315   9.553   0.063  0.00  0.00    -0.272 OA
ATOM     21  N   UNL     1      -1.081   7.346   0.049  0.00  0.00    -0.183 N 
ATOM     22  C   UNL     1      -2.513   7.006   0.061  0.00  0.00    +0.143 C 
ATOM     23  C   UNL     1      -2.520   5.465   0.048  0.00  0.00    +0.088 C 
ATOM     24  C   UNL     1      -1.054   5.093   0.038  0.00  0.00    +0.075 C 
ATOM     25  N   UNL     1      -0.338   6.167   0.036  0.00  0.00    -0.180 NA
BRANCH  24  26
ATOM     26  C   UNL     1      -0.528   3.724   0.026  0.00  0.00    +0.035 A 
ATOM     27  C   UNL     1       0.788   3.296   0.012  0.00  0.00    +0.017 A 
ATOM     28  C   UNL     1       1.034   1.942   0.003  0.00  0.00    +0.008 A 
ATOM     29  C   UNL     1      -0.013   1.076   0.008  0.00  0.00    +0.046 A 
ATOM     30  S   UNL     1      -1.418   2.176   0.019  0.00  0.00    -0.095 S 
ENDBRANCH  24  26
BRANCH  22  31
ATOM     31  C   UNL     1      -3.172   7.534   1.309  0.00  0.00    +0.013 A 
ATOM     32  C   UNL     1      -4.400   8.088   1.456  0.00  0.00    +0.013 A 
ATOM     33  C   UNL     1      -4.803   8.503   2.712  0.00  0.00    +0.008 A 
ATOM     34  C   UNL     1      -3.953   8.352   3.757  0.00  0.00    +0.045 A 
ATOM     35  S   UNL     1      -2.536   7.597   2.976  0.00  0.00    -0.100 S 
ENDBRANCH  22  31
ENDBRANCH   1  19
TORSDOF 6
