REMARK  Name = ZINC44320355
REMARK  8 active torsions:
REMARK  status: ('A' for Active; 'I' for Inactive)
REMARK    1  A    between atoms: C_13  and  C_14
REMARK    2  A    between atoms: C_14  and  O_15
REMARK    3  A    between atoms: O_15  and  C_16
REMARK    4  A    between atoms: N_18  and  CA_19
REMARK    5  A    between atoms: CA_19  and  C_21
REMARK    6  A    between atoms: CA_19  and  C_34
REMARK    7  A    between atoms: C_21  and  C_22
REMARK    8  A    between atoms: C_27  and  N_28
REMARK                            x       y       z     vdW  Elec       q    Type
REMARK                         _______ _______ _______ _____ _____    ______ ____
ROOT
ATOM      1  C   UNL     1       6.519  -1.596   1.903  0.00  0.00    +0.401 C 
ATOM      2  O   UNL     1       6.230  -0.854   2.820  0.00  0.00    -0.226 OA
ATOM      3  N   UNL     1       7.606  -2.388   1.993  0.00  0.00    -0.267 N 
ATOM      4  H   UNL     1       7.836  -2.980   1.261  0.00  0.00    +0.153 HD
ENDROOT
BRANCH   1   5
ATOM      5  O   UNL     1       5.753  -1.627   0.795  0.00  0.00    -0.449 OA
BRANCH   5   6
ATOM      6  C   UNL     1       4.617  -0.761   0.768  0.00  0.00    +0.246 C 
BRANCH   6  19
ATOM      7  C   UNL     1       0.333   1.401  -0.868  0.00  0.00    +0.001 A 
ATOM      8  C   UNL     1       1.516   2.110  -0.758  0.00  0.00    +0.000 A 
ATOM      9  C   UNL     1       2.720   1.438  -0.653  0.00  0.00    +0.005 A 
ATOM     10  C   UNL     1       2.744   0.059  -0.656  0.00  0.00    -0.029 A 
ATOM     11  C   UNL     1       1.560  -0.663  -0.766  0.00  0.00    -0.014 A 
ATOM     12  C   UNL     1       0.348   0.022  -0.873  0.00  0.00    +0.009 A 
ATOM     13  C   UNL     1       1.863  -2.116  -0.745  0.00  0.00    -0.014 A 
ATOM     14  C   UNL     1       1.027  -3.231  -0.825  0.00  0.00    +0.009 A 
ATOM     15  C   UNL     1       1.565  -4.500  -0.783  0.00  0.00    +0.001 A 
ATOM     16  C   UNL     1       2.932  -4.673  -0.661  0.00  0.00    +0.000 A 
ATOM     17  C   UNL     1       3.767  -3.573  -0.581  0.00  0.00    +0.005 A 
ATOM     18  C   UNL     1       3.237  -2.300  -0.623  0.00  0.00    -0.029 A 
ATOM     19  C   UNL     1       3.876  -0.935  -0.559  0.00  0.00    +0.088 C 
ENDBRANCH   6  19
ENDBRANCH   5   6
ENDBRANCH   1   5
BRANCH   3  20
ATOM     20  CA  UNL     1       8.438  -2.354   3.198  0.00  0.00    +0.193 C 
BRANCH  20  21
ATOM     21  C   UNL     1       9.492  -1.286   3.051  0.00  0.00    +0.376 C 
ATOM     22  O   UNL     1       9.542  -0.616   2.034  0.00  0.00    -0.244 OA
ATOM     23  OXT UNL     1      10.293  -1.093   3.949  0.00  0.00    -0.244 OA
ENDBRANCH  20  21
BRANCH  20  24
ATOM     24  C   UNL     1       9.114  -3.713   3.389  0.00  0.00    +0.071 C 
BRANCH  24  25
ATOM     25  C   UNL     1       8.065  -4.761   3.663  0.00  0.00    -0.011 A 
ATOM     26  C   UNL     1       7.687  -5.636   2.662  0.00  0.00    +0.055 A 
ATOM     27  C   UNL     1       6.723  -6.600   2.912  0.00  0.00    +0.167 A 
ATOM     28  C   UNL     1       6.138  -6.684   4.173  0.00  0.00    +0.168 A 
ATOM     29  C   UNL     1       6.522  -5.804   5.171  0.00  0.00    +0.082 A 
ATOM     30  C   UNL     1       7.488  -4.848   4.916  0.00  0.00    +0.133 A 
ATOM     31  O   UNL     1       5.229  -7.702   4.164  0.00  0.00    -0.453 OA
ATOM     32  C   UNL     1       4.969  -7.974   2.774  0.00  0.00    +0.466 C 
ATOM     33  O   UNL     1       6.181  -7.565   2.114  0.00  0.00    -0.453 OA
BRANCH  30  34
ATOM     34  N   UNL     1       7.902  -3.913   5.986  0.00  0.00    +0.057 N 
ATOM     35  O   UNL     1       7.330  -3.922   7.051  0.00  0.00    -0.126 OA
ATOM     36  O   UNL     1       8.811  -3.139   5.795  0.00  0.00    -0.126 OA
ENDBRANCH  30  34
ENDBRANCH  24  25
ENDBRANCH  20  24
ENDBRANCH   3  20
TORSDOF 8
