REMARK  Name = ZINC65572744
REMARK  8 active torsions:
REMARK  status: ('A' for Active; 'I' for Inactive)
REMARK    1  A    between atoms: C_1  and  C_2
REMARK    2  A    between atoms: C_2  and  C_3
REMARK    3  A    between atoms: C_2  and  N_9
REMARK    4  A    between atoms: C_3  and  C_4
REMARK    5  A    between atoms: C_10  and  C_12
REMARK    6  A    between atoms: N_14  and  C_15
REMARK    7  A    between atoms: C_17  and  N_23
REMARK    8  A    between atoms: C_24  and  C_26
REMARK                            x       y       z     vdW  Elec       q    Type
REMARK                         _______ _______ _______ _____ _____    ______ ____
ROOT
ATOM      1  C   UNL     1       0.803  -1.115   3.552  0.00  0.00    +0.303 C 
ATOM      2  O   UNL     1       1.984  -1.390   3.490  0.00  0.00    -0.265 OA
ATOM      3  N   UNL     1       0.140  -1.250   4.718  0.00  0.00    -0.275 N 
ATOM      4  H   UNL     1      -0.781  -0.955   4.789  0.00  0.00    +0.155 HD
ENDROOT
BRANCH   3   5
ATOM      5  C   UNL     1       0.781  -1.814   5.826  0.00  0.00    +0.071 A 
ATOM      6  C   UNL     1       1.850  -2.681   5.643  0.00  0.00    +0.052 A 
ATOM      7  C   UNL     1       2.484  -3.239   6.743  0.00  0.00    +0.071 A 
ATOM      8  C   UNL     1       2.047  -2.929   8.027  0.00  0.00    +0.147 A 
ATOM      9  C   UNL     1       0.982  -2.066   8.207  0.00  0.00    +0.080 A 
ATOM     10  C   UNL     1       0.352  -1.502   7.112  0.00  0.00    +0.147 A 
ATOM     11  F   UNL     1      -0.684  -0.654   7.291  0.00  0.00    -0.203 F 
ATOM     12  F   UNL     1       2.665  -3.473   9.099  0.00  0.00    -0.203 F 
BRANCH   7  13
ATOM     13  N   UNL     1       3.562  -4.114   6.561  0.00  0.00    -0.283 N 
ATOM     14  C   UNL     1       3.683  -4.805   5.410  0.00  0.00    +0.214 C 
ATOM     15  O   UNL     1       2.808  -4.746   4.573  0.00  0.00    -0.276 OA
ATOM     16  C   UNL     1       4.906  -5.650   5.163  0.00  0.00    +0.109 C 
ATOM     17  H   UNL     1       4.222  -4.224   7.264  0.00  0.00    +0.155 HD
ENDBRANCH   7  13
ENDBRANCH   3   5
BRANCH   1  19
ATOM     18  N   UNL     1       0.747  -0.494   1.171  0.00  0.00    -0.305 N 
ATOM     19  C   UNL     1       0.085  -0.628   2.337  0.00  0.00    +0.300 C 
ATOM     20  O   UNL     1      -1.096  -0.354   2.399  0.00  0.00    -0.265 OA
ATOM     21  H   UNL     1       1.691  -0.714   1.121  0.00  0.00    +0.149 HD
BRANCH  18  23
ATOM     22  C   UNL     1       0.025   1.513  -0.025  0.00  0.00    +0.028 C 
ATOM     23  C   UNL     1       0.043  -0.017  -0.022  0.00  0.00    +0.075 C 
BRANCH  23  24
ATOM     24  C   UNL     1       0.761  -0.521  -1.275  0.00  0.00    +0.057 C 
BRANCH  24  25
ATOM     25  C   UNL     1       0.672  -2.024  -1.335  0.00  0.00    -0.039 A 
ATOM     26  C   UNL     1       1.644  -2.808  -0.742  0.00  0.00    +0.011 A 
ATOM     27  C   UNL     1       1.534  -4.157  -0.814  0.00  0.00    +0.045 A 
ATOM     28  S   UNL     1       0.022  -4.356  -1.742  0.00  0.00    -0.105 S 
ATOM     29  C   UNL     1      -0.364  -2.627  -1.966  0.00  0.00    +0.049 A 
ENDBRANCH  24  25
ENDBRANCH  23  24
ENDBRANCH  18  23
ENDBRANCH   1  19
TORSDOF 6
