REMARK  Name = ZINC61502819
REMARK  8 active torsions:
REMARK  status: ('A' for Active; 'I' for Inactive)
REMARK    1  A    between atoms: C_1  and  C_2
REMARK    2  A    between atoms: C_5  and  C_8
REMARK    3  A    between atoms: C_8  and  C_9
REMARK    4  A    between atoms: C_8  and  N_26
REMARK    5  A    between atoms: C_9  and  N_10
REMARK    6  A    between atoms: C_11  and  C_13
REMARK    7  A    between atoms: C_15  and  C_25
REMARK    8  A    between atoms: N_23  and  C_24
REMARK                            x       y       z     vdW  Elec       q    Type
REMARK                         _______ _______ _______ _____ _____    ______ ____
ROOT
ATOM      1  N   UNL     1       2.335  -4.280  -0.895  0.00  0.00    -0.313 N 
ATOM      2  C   UNL     1       3.651  -4.571  -0.890  0.00  0.00    +0.245 C 
ATOM      3  O   UNL     1       4.157  -5.084   0.088  0.00  0.00    -0.270 OA
ATOM      4  H   UNL     1       1.932  -3.871  -1.677  0.00  0.00    +0.149 HD
ENDROOT
BRANCH   2   5
ATOM      5  C   UNL     1       4.482  -4.265  -2.079  0.00  0.00    +0.054 A 
ATOM      6  C   UNL     1       3.926  -3.671  -3.214  0.00  0.00    +0.037 A 
ATOM      7  C   UNL     1       4.738  -3.402  -4.302  0.00  0.00    +0.041 A 
ATOM      8  N   UNL     1       6.023  -3.694  -4.293  0.00  0.00    -0.233 NA
ATOM      9  C   UNL     1       6.607  -4.258  -3.247  0.00  0.00    +0.161 A 
ATOM     10  C   UNL     1       5.854  -4.558  -2.099  0.00  0.00    +0.096 A 
ATOM     11  C   UNL     1       6.783  -5.161  -1.128  0.00  0.00    +0.275 A 
ATOM     12  O   UNL     1       6.506  -5.559  -0.013  0.00  0.00    -0.266 OA
ATOM     13  N   UNL     1       7.999  -5.189  -1.711  0.00  0.00    -0.262 N 
ATOM     14  H   UNL     1       8.809  -5.535  -1.303  0.00  0.00    +0.190 HD
ATOM     15  N   UNL     1       7.908  -4.652  -2.999  0.00  0.00    -0.269 N 
ATOM     16  C   UNL     1       9.025  -4.515  -3.937  0.00  0.00    +0.172 C 
ATOM     17  C   UNL     1       4.138  -2.761  -5.527  0.00  0.00    +0.065 C 
ENDBRANCH   2   5
BRANCH   1  18
ATOM     18  C   UNL     1       1.514  -4.583   0.280  0.00  0.00    +0.094 C 
BRANCH  18  19
ATOM     19  C   UNL     1       0.100  -4.040   0.067  0.00  0.00    -0.020 C 
BRANCH  19  24
ATOM     20  C   UNL     1       0.268   1.731  -0.192  0.00  0.00    +0.044 C 
ATOM     21  C   UNL     1       0.224   0.226  -0.124  0.00  0.00    -0.050 A 
ATOM     22  C   UNL     1       0.152  -0.516  -1.288  0.00  0.00    +0.003 A 
ATOM     23  C   UNL     1       0.113  -1.897  -1.226  0.00  0.00    +0.002 A 
ATOM     24  C   UNL     1       0.144  -2.535  -0.001  0.00  0.00    -0.059 A 
ATOM     25  C   UNL     1       0.216  -1.793   1.163  0.00  0.00    +0.002 A 
ATOM     26  C   UNL     1       0.261  -0.412   1.101  0.00  0.00    +0.003 A 
ENDBRANCH  19  24
BRANCH  19  27
ATOM     27  N   UNL     1      -0.758  -4.454   1.185  0.00  0.00    +0.385 N 
ATOM     28  C   UNL     1      -2.139  -3.947   0.987  0.00  0.00    -0.078 C 
ATOM     29  C   UNL     1      -2.994  -4.890   1.870  0.00  0.00    -0.020 C 
ATOM     30  C   UNL     1      -2.303  -6.260   1.681  0.00  0.00    -0.020 C 
ATOM     31  C   UNL     1      -0.871  -5.929   1.221  0.00  0.00    -0.078 C 
ATOM     32  H   UNL     1      -0.382  -4.113   2.057  0.00  0.00    -0.081 HD
ENDBRANCH  19  27
ENDBRANCH  18  19
ENDBRANCH   1  18
TORSDOF 5
