REMARK  Name = ZINC09880680
REMARK  4 active torsions:
REMARK  status: ('A' for Active; 'I' for Inactive)
REMARK    1  A    between atoms: C_2  and  C_3
REMARK    2  A    between atoms: C_3  and  N_4
REMARK    3  A    between atoms: C_11  and  C_14
REMARK    4  A    between atoms: C_11  and  O_22
REMARK                            x       y       z     vdW  Elec       q    Type
REMARK                         _______ _______ _______ _____ _____    ______ ____
ROOT
ATOM      1  N   UNL     1       1.367  -1.676   1.111  0.00  0.00    -0.265 N 
ATOM      2  C   UNL     1       1.859  -1.346   2.376  0.00  0.00    +0.043 A 
ATOM      3  C   UNL     1       2.386  -0.153   2.865  0.00  0.00    +0.025 A 
ATOM      4  C   UNL     1       2.814  -0.070   4.174  0.00  0.00    +0.017 A 
ATOM      5  C   UNL     1       2.724  -1.169   5.010  0.00  0.00    +0.018 A 
ATOM      6  C   UNL     1       2.200  -2.358   4.531  0.00  0.00    +0.024 A 
ATOM      7  C   UNL     1       1.773  -2.442   3.225  0.00  0.00    +0.017 A 
ATOM      8  C   UNL     1       1.169  -3.564   2.411  0.00  0.00    +0.189 C 
ATOM      9  C   UNL     1       0.940  -2.948   1.048  0.00  0.00    +0.258 C 
ATOM     10  O   UNL     1       0.463  -3.500   0.079  0.00  0.00    -0.272 OA
ATOM     11 BR   UNL     1       3.314  -1.047   6.803  0.00  0.00    -0.050 Br
ENDROOT
BRANCH   8  12
ATOM     12  C   UNL     1      -0.160  -4.014   3.022  0.00  0.00    +0.187 C 
ATOM     13  C   UNL     1      -0.839  -5.072   2.159  0.00  0.00    +0.255 C 
ATOM     14  O   UNL     1      -0.358  -6.164   1.930  0.00  0.00    -0.272 OA
ATOM     15  N   UNL     1      -1.997  -4.678   1.693  0.00  0.00    -0.159 NA
ATOM     16  C   UNL     1      -2.531  -3.495   1.935  0.00  0.00    +0.145 C 
ATOM     17  S   UNL     1      -1.430  -2.686   2.920  0.00  0.00    -0.077 S 
ATOM     18  N   UNL     1      -3.729  -3.025   1.482  0.00  0.00    -0.340 N 
ATOM     19  H   UNL     1      -4.286  -3.583   0.916  0.00  0.00    +0.144 HD
ATOM     20  H   UNL     1      -4.023  -2.133   1.724  0.00  0.00    +0.144 HD
ENDBRANCH   8  12
BRANCH   8  21
ATOM     21  O   UNL     1       2.078  -4.663   2.323  0.00  0.00    -0.373 OA
ATOM     22  H   UNL     1       2.926  -4.440   1.915  0.00  0.00    +0.211 HD
ENDBRANCH   8  21
BRANCH   1  23
ATOM     23  C   UNL     1       1.317  -0.740  -0.015  0.00  0.00    +0.140 C 
BRANCH  23  25
ATOM     24  C   UNL     1      -0.016   1.306   0.009  0.00  0.00    +0.005 C 
ATOM     25  C   UNL     1       0.002  -0.004   0.002  0.00  0.00    -0.015 C 
ENDBRANCH  23  25
ENDBRANCH   1  23
TORSDOF 4
