REMARK  Name = ZINC02109250
REMARK  9 active torsions:
REMARK  status: ('A' for Active; 'I' for Inactive)
REMARK    1  A    between atoms: C_1  and  C_2
REMARK    2  A    between atoms: C_5  and  C_9
REMARK    3  A    between atoms: C_6  and  C_8
REMARK    4  A    between atoms: C_11  and  C_19
REMARK    5  A    between atoms: N_21  and  N_22
REMARK    6  A    between atoms: C_23  and  C_24
REMARK    7  A    between atoms: C_25  and  C_31
REMARK    8  A    between atoms: N_27  and  C_30
REMARK    9  A    between atoms: C_28  and  C_29
REMARK                            x       y       z     vdW  Elec       q    Type
REMARK                         _______ _______ _______ _____ _____    ______ ____
ROOT
ATOM      1  C   UNL     1       0.105  -4.387  -0.112  0.00  0.00    +0.073 A 
ATOM      2  C   UNL     1      -0.031  -5.085  -1.321  0.00  0.00    +0.042 A 
ATOM      3  C   UNL     1       0.045  -6.470  -1.321  0.00  0.00    +0.050 A 
ATOM      4  C   UNL     1       0.268  -7.130  -0.034  0.00  0.00    +0.013 A 
ATOM      5  C   UNL     1       0.360  -8.523   0.067  0.00  0.00    +0.011 A 
ATOM      6  C   UNL     1       0.568  -9.097   1.286  0.00  0.00    +0.001 A 
ATOM      7  C   UNL     1       0.691  -8.314   2.433  0.00  0.00    +0.002 A 
ATOM      8  C   UNL     1       0.607  -6.958   2.369  0.00  0.00    +0.028 A 
ATOM      9  C   UNL     1       0.392  -6.329   1.129  0.00  0.00    +0.072 A 
ATOM     10  N   UNL     1       0.310  -5.001   1.035  0.00  0.00    -0.247 NA
ENDROOT
BRANCH   1  15
ATOM     11  C   UNL     1      -0.218   1.362  -0.168  0.00  0.00    +0.044 C 
ATOM     12  C   UNL     1      -0.133  -0.142  -0.153  0.00  0.00    -0.050 A 
ATOM     13  C   UNL     1       0.687  -0.795  -1.056  0.00  0.00    +0.004 A 
ATOM     14  C   UNL     1       0.769  -2.173  -1.047  0.00  0.00    +0.010 A 
ATOM     15  C   UNL     1       0.022  -2.907  -0.126  0.00  0.00    +0.003 A 
ATOM     16  C   UNL     1      -0.802  -2.243   0.781  0.00  0.00    -0.041 A 
ATOM     17  C   UNL     1      -0.872  -0.865   0.766  0.00  0.00    +0.007 A 
ATOM     18  C   UNL     1      -1.612  -3.030   1.779  0.00  0.00    +0.044 C 
ENDBRANCH   1  15
BRANCH   3  19
ATOM     19  C   UNL     1      -0.094  -7.248  -2.570  0.00  0.00    +0.264 C 
ATOM     20  O   UNL     1      -0.131  -8.463  -2.529  0.00  0.00    -0.268 OA
ATOM     21  N   UNL     1      -0.179  -6.611  -3.755  0.00  0.00    -0.203 N 
ATOM     22  H   UNL     1      -0.150  -5.642  -3.788  0.00  0.00    +0.178 HD
BRANCH  21  23
ATOM     23  N   UNL     1      -0.310  -7.348  -4.939  0.00  0.00    -0.187 NA
ATOM     24  C   UNL     1      -0.393  -6.735  -6.080  0.00  0.00    +0.141 C 
BRANCH  24  25
ATOM     25  C   UNL     1      -0.531  -7.511  -7.326  0.00  0.00    +0.038 A 
ATOM     26  C   UNL     1      -0.594  -8.917  -7.434  0.00  0.00    +0.069 A 
ATOM     27  N   UNL     1      -0.716  -9.222  -8.698  0.00  0.00    -0.176 NA
ATOM     28  N   UNL     1      -0.737  -8.041  -9.448  0.00  0.00    -0.271 N 
ATOM     29  C   UNL     1      -0.629  -6.998  -8.602  0.00  0.00    +0.045 A 
ATOM     30  C   UNL     1      -0.615  -5.540  -8.981  0.00  0.00    +0.066 C 
ATOM     31  C   UNL     1      -0.860  -7.954 -10.906  0.00  0.00    +0.172 C 
ATOM     32  C   UNL     1      -0.531  -9.896  -6.290  0.00  0.00    +0.068 C 
ENDBRANCH  24  25
ENDBRANCH  21  23
ENDBRANCH   3  19
TORSDOF 4
