REMARK  Name = ZINC44212309
REMARK  9 active torsions:
REMARK  status: ('A' for Active; 'I' for Inactive)
REMARK    1  A    between atoms: C_1  and  C_2
REMARK    2  A    between atoms: C_3  and  C_8
REMARK    3  A    between atoms: N_6  and  C_7
REMARK    4  A    between atoms: C_8  and  C_10
REMARK    5  A    between atoms: C_8  and  N_11
REMARK    6  A    between atoms: N_14  and  C_15
REMARK    7  A    between atoms: C_20  and  C_21
REMARK    8  A    between atoms: C_25  and  C_32
REMARK    9  A    between atoms: C_28  and  C_31
REMARK                            x       y       z     vdW  Elec       q    Type
REMARK                         _______ _______ _______ _____ _____    ______ ____
ROOT
ATOM      1  C   UNL     1      -2.620  -1.678  -6.436  0.00  0.00    +0.047 A 
ATOM      2  C   UNL     1      -2.713  -0.376  -6.909  0.00  0.00    +0.024 A 
ATOM      3  C   UNL     1      -3.196  -0.134  -8.179  0.00  0.00    +0.002 A 
ATOM      4  C   UNL     1      -3.591  -1.185  -8.991  0.00  0.00    +0.001 A 
ATOM      5  C   UNL     1      -3.506  -2.484  -8.539  0.00  0.00    +0.015 A 
ATOM      6  C   UNL     1      -3.014  -2.745  -7.258  0.00  0.00    +0.058 A 
ENDROOT
BRANCH   6   7
ATOM      7  C   UNL     1      -2.914  -4.133  -6.770  0.00  0.00    +0.248 C 
ATOM      8  O   UNL     1      -3.421  -4.443  -5.709  0.00  0.00    -0.270 OA
ATOM      9  N   UNL     1      -2.261  -5.059  -7.500  0.00  0.00    -0.297 N 
ATOM     10  C   UNL     1      -1.705  -4.718  -8.817  0.00  0.00    +0.111 C 
ATOM     11  C   UNL     1      -0.221  -5.098  -8.839  0.00  0.00    +0.004 C 
ATOM     12  C   UNL     1      -0.070  -6.572  -8.455  0.00  0.00    +0.009 C 
ATOM     13  C   UNL     1      -0.603  -6.789  -7.037  0.00  0.00    +0.004 C 
ATOM     14  C   UNL     1      -2.086  -6.427  -6.992  0.00  0.00    +0.111 C 
ATOM     15  C   UNL     1      -0.421  -8.256  -6.642  0.00  0.00    +0.009 C 
ATOM     16  C   UNL     1       0.543  -4.228  -7.839  0.00  0.00    +0.009 C 
ENDBRANCH   6   7
BRANCH   1  20
ATOM     17  N   UNL     1      -1.953  -1.309  -2.910  0.00  0.00    -0.292 N 
ATOM     18  C   UNL     1      -2.355  -1.035  -4.167  0.00  0.00    +0.304 C 
ATOM     19  O   UNL     1      -2.918   0.015  -4.410  0.00  0.00    -0.252 OA
ATOM     20  N   UNL     1      -2.133  -1.925  -5.155  0.00  0.00    -0.269 N 
ATOM     21  H   UNL     1      -1.503  -2.147  -2.717  0.00  0.00    +0.151 HD
ATOM     22  H   UNL     1      -1.635  -2.737  -4.973  0.00  0.00    +0.156 HD
BRANCH  17  23
ATOM     23  C   UNL     1      -2.194  -0.342  -1.837  0.00  0.00    +0.105 C 
ATOM     24  C   UNL     1      -1.064   0.690  -1.817  0.00  0.00    +0.033 C 
BRANCH  23  27
ATOM     25  C   UNL     1      -3.679   0.632   0.739  0.00  0.00    +0.065 C 
ATOM     26  C   UNL     1      -2.883  -0.640   0.600  0.00  0.00    +0.041 A 
ATOM     27  C   UNL     1      -2.240  -1.062  -0.513  0.00  0.00    +0.013 A 
ATOM     28  C   UNL     1      -1.627  -2.284  -0.219  0.00  0.00    +0.140 A 
ATOM     29  N   UNL     1      -1.891  -2.585   1.026  0.00  0.00    -0.179 NA
ATOM     30  N   UNL     1      -2.679  -1.560   1.566  0.00  0.00    -0.271 N 
ATOM     31  C   UNL     1      -3.192  -1.499   2.937  0.00  0.00    +0.172 C 
ENDBRANCH  23  27
ENDBRANCH  17  23
ENDBRANCH   1  20
TORSDOF 4
