REMARK  Name = ZINC13121783
REMARK  3 active torsions:
REMARK  status: ('A' for Active; 'I' for Inactive)
REMARK    1  A    between atoms: C_1  and  C_2
REMARK    2  A    between atoms: C_5  and  C_7
REMARK    3  A    between atoms: C_10  and  C_28
REMARK                            x       y       z     vdW  Elec       q    Type
REMARK                         _______ _______ _______ _____ _____    ______ ____
ROOT
ATOM      1  C   UNL     1       1.684  -3.245  -0.023  0.00  0.00    +0.125 C 
ATOM      2  C   UNL     1       2.543  -3.188  -1.254  0.00  0.00    +0.030 A 
ATOM      3  C   UNL     1       2.187  -2.947  -2.575  0.00  0.00    +0.066 A 
ATOM      4  N   UNL     1       3.273  -2.996  -3.311  0.00  0.00    -0.168 NA
ATOM      5  N   UNL     1       4.367  -3.273  -2.474  0.00  0.00    -0.200 N 
ATOM      6  C   UNL     1       3.898  -3.385  -1.213  0.00  0.00    +0.132 A 
ATOM      7  N   UNL     1       4.556  -3.642  -0.018  0.00  0.00    -0.302 N 
ATOM      8  C   UNL     1       3.894  -3.402   1.160  0.00  0.00    +0.017 C 
ATOM      9  C   UNL     1       2.561  -3.199   1.211  0.00  0.00    +0.027 C 
ATOM     10  C   UNL     1       1.919  -2.930   2.433  0.00  0.00    +0.162 C 
ATOM     11  C   UNL     1       2.685  -2.853   3.723  0.00  0.00    +0.080 C 
ATOM     12  C   UNL     1       4.118  -2.401   3.424  0.00  0.00    +0.014 C 
ATOM     13  C   UNL     1       4.729  -3.378   2.421  0.00  0.00    +0.051 C 
ATOM     14  O   UNL     1       0.716  -2.756   2.445  0.00  0.00    -0.292 OA
ATOM     15  C   UNL     1       5.699  -3.409  -2.874  0.00  0.00    +0.156 A 
ATOM     16  C   UNL     1       5.990  -3.779  -4.181  0.00  0.00    +0.048 A 
ATOM     17  C   UNL     1       7.314  -3.910  -4.565  0.00  0.00    +0.005 A 
ATOM     18  C   UNL     1       8.303  -3.664  -3.623  0.00  0.00    +0.020 A 
ATOM     19  C   UNL     1       7.941  -3.299  -2.342  0.00  0.00    +0.113 A 
ATOM     20  N   UNL     1       6.671  -3.177  -2.007  0.00  0.00    -0.236 NA
ATOM     21  C   UNL     1       0.793  -2.675  -3.077  0.00  0.00    +0.068 C 
ATOM     22  H   UNL     1       5.464  -3.984  -0.015  0.00  0.00    +0.153 HD
ENDROOT
BRANCH   1  27
ATOM     23  C   UNL     1      -0.018   1.503   0.010  0.00  0.00    +0.086 C 
ATOM     24  C   UNL     1       0.002  -0.004   0.002  0.00  0.00    +0.102 A 
ATOM     25  C   UNL     1      -1.078  -0.805   0.003  0.00  0.00    +0.044 A 
ATOM     26  C   UNL     1      -0.601  -2.136  -0.007  0.00  0.00    +0.046 A 
ATOM     27  C   UNL     1       0.742  -2.069  -0.013  0.00  0.00    +0.117 A 
ATOM     28  O   UNL     1       1.102  -0.775  -0.013  0.00  0.00    -0.464 OA
ENDBRANCH   1  27
TORSDOF 1
