REMARK  Name = ZINC08886743
REMARK  10 active torsions:
REMARK  status: ('A' for Active; 'I' for Inactive)
REMARK    1  A    between atoms: C_1  and  C_2
REMARK    2  A    between atoms: C_2  and  C_3
REMARK    3  A    between atoms: C_2  and  C_4
REMARK    4  A    between atoms: C_4  and  C_5
REMARK    5  A    between atoms: C_4  and  C_6
REMARK    6  A    between atoms: C_4  and  N_8
REMARK    7  A    between atoms: C_9  and  C_11
REMARK    8  A    between atoms: C_11  and  N_12
REMARK    9  A    between atoms: C_15  and  C_19
REMARK   10  A    between atoms: C_15  and  C_20
REMARK                            x       y       z     vdW  Elec       q    Type
REMARK                         _______ _______ _______ _____ _____    ______ ____
ROOT
ATOM      1  N   UNL     1       1.048   2.037   0.003  0.00  0.00    -0.215 N 
ATOM      2  C   UNL     1      -0.014   1.208   0.009  0.00  0.00    +0.251 C 
ATOM      3  O   UNL     1       0.002  -0.004   0.002  0.00  0.00    -0.272 OA
ATOM      4  C   UNL     1      -1.235   2.107   0.018  0.00  0.00    +0.135 C 
ATOM      5  N   UNL     1      -0.664   3.465   0.026  0.00  0.00    -0.281 N 
ATOM      6  C   UNL     1       0.673   3.321   0.013  0.00  0.00    +0.310 C 
ATOM      7  O   UNL     1       1.453   4.253   0.010  0.00  0.00    -0.252 OA
ATOM      8  C   UNL     1      -2.079   1.882  -1.237  0.00  0.00    +0.047 C 
ATOM      9  H   UNL     1      -1.157   4.301   0.034  0.00  0.00    +0.152 HD
ENDROOT
BRANCH   4  10
ATOM     10  C   UNL     1      -2.056   1.873   1.260  0.00  0.00    -0.015 A 
ATOM     11  C   UNL     1      -2.059   0.612   1.854  0.00  0.00    +0.007 A 
ATOM     12  C   UNL     1      -2.789   0.367   2.976  0.00  0.00    +0.009 A 
ATOM     13  C   UNL     1      -3.553   1.399   3.547  0.00  0.00    -0.018 A 
ATOM     14  C   UNL     1      -4.319   1.185   4.706  0.00  0.00    +0.008 A 
ATOM     15  C   UNL     1      -5.046   2.208   5.231  0.00  0.00    +0.001 A 
ATOM     16  C   UNL     1      -5.043   3.469   4.638  0.00  0.00    +0.001 A 
ATOM     17  C   UNL     1      -4.313   3.714   3.515  0.00  0.00    +0.008 A 
ATOM     18  C   UNL     1      -3.550   2.682   2.944  0.00  0.00    -0.018 A 
ATOM     19  C   UNL     1      -2.779   2.898   1.789  0.00  0.00    +0.014 A 
ENDBRANCH   4  10
BRANCH   1  20
ATOM     20  C   UNL     1       2.443   1.587  -0.011  0.00  0.00    +0.213 C 
BRANCH  20  22
ATOM     21  N   UNL     1       4.167   1.033  -1.696  0.00  0.00    -0.296 N 
ATOM     22  C   UNL     1       2.908   1.439  -1.437  0.00  0.00    +0.232 C 
ATOM     23  O   UNL     1       2.150   1.685  -2.351  0.00  0.00    -0.274 OA
ATOM     24  H   UNL     1       4.773   0.836  -0.965  0.00  0.00    +0.150 HD
BRANCH  21  25
ATOM     25  C   UNL     1       4.620   0.889  -3.082  0.00  0.00    +0.121 C 
ATOM     26  C   UNL     1       4.512   2.238  -3.796  0.00  0.00    +0.048 C 
BRANCH  25  28
ATOM     27  C   UNL     1       6.165  -0.984  -2.494  0.00  0.00    +0.010 C 
ATOM     28  C   UNL     1       6.076   0.419  -3.097  0.00  0.00    +0.020 C 
ATOM     29  C   UNL     1       6.587   0.388  -4.538  0.00  0.00    +0.010 C 
ENDBRANCH  25  28
BRANCH  25  30
ATOM     30  C   UNL     1       3.777  -0.101  -3.773  0.00  0.00    +0.088 C 
ATOM     31  N   UNL     1       3.127  -0.865  -4.306  0.00  0.00    -0.194 NA
ENDBRANCH  25  30
ENDBRANCH  21  25
ENDBRANCH  20  22
ENDBRANCH   1  20
TORSDOF 6
