REMARK  Name = ZINC03114920
REMARK  14 active torsions:
REMARK  status: ('A' for Active; 'I' for Inactive)
REMARK    1  A    between atoms: C_1  and  C_2
REMARK    2  A    between atoms: C_2  and  N_47
REMARK    3  A    between atoms: C_3  and  C_4
REMARK    4  A    between atoms: C_3  and  N_47
REMARK    5  A    between atoms: C_5  and  C_7
REMARK    6  A    between atoms: C_5  and  N_11
REMARK    7  A    between atoms: C_5  and  N_47
REMARK    8  A    between atoms: N_14  and  C_15
REMARK    9  A    between atoms: C_15  and  C_17
REMARK   10  A    between atoms: C_15  and  N_49
REMARK   11  A    between atoms: C_21  and  C_22
REMARK   12  A    between atoms: C_21  and  N_49
REMARK   13  A    between atoms: C_23  and  C_24
REMARK   14  A    between atoms: C_23  and  N_49
REMARK                            x       y       z     vdW  Elec       q    Type
REMARK                         _______ _______ _______ _____ _____    ______ ____
ROOT
ATOM      1  N   UNL     1       2.375   0.660   2.103  0.00  0.00    -0.309 N 
ATOM      2  C   UNL     1       2.774   1.513   1.139  0.00  0.00    +0.297 C 
ATOM      3  O   UNL     1       2.079   2.466   0.844  0.00  0.00    -0.253 OA
ATOM      4  N   UNL     1       3.944   1.310   0.501  0.00  0.00    -0.309 N 
ATOM      5  H   UNL     1       2.929  -0.100   2.338  0.00  0.00    +0.148 HD
ATOM      6  H   UNL     1       4.499   0.549   0.736  0.00  0.00    +0.148 HD
ENDROOT
BRANCH   1   7
ATOM      7  C   UNL     1       1.100   0.878   2.791  0.00  0.00    +0.072 C 
BRANCH   7   8
ATOM      8  C   UNL     1       0.341  -0.447   2.890  0.00  0.00    +0.194 C 
ATOM      9 CL   UNL     1       1.209  -1.554   4.018  0.00  0.00    -0.084 Cl
ATOM     10 CL   UNL     1      -1.324  -0.141   3.511  0.00  0.00    -0.084 Cl
ATOM     11 CL   UNL     1       0.243  -1.207   1.258  0.00  0.00    -0.084 Cl
ENDBRANCH   7   8
BRANCH   7  12
ATOM     12  N   UNL     1       1.368   1.377   4.156  0.00  0.00    +0.394 N 
ATOM     13  H   UNL     1       1.818   0.632   4.701  0.00  0.00    -0.079 HD
BRANCH  12  15
ATOM     14  C   UNL     1       2.814   2.817   5.504  0.00  0.00    -0.017 C 
ATOM     15  C   UNL     1       2.273   2.544   4.099  0.00  0.00    -0.079 C 
ENDBRANCH  12  15
BRANCH  12  16
ATOM     16  C   UNL     1       0.099   1.754   4.814  0.00  0.00    -0.079 C 
ATOM     17  C   UNL     1      -0.725   2.668   3.905  0.00  0.00    -0.017 C 
ENDBRANCH  12  16
ENDBRANCH   7  12
ENDBRANCH   1   7
BRANCH   4  18
ATOM     18  C   UNL     1       4.378   2.237  -0.547  0.00  0.00    +0.072 C 
BRANCH  18  19
ATOM     19  C   UNL     1       5.903   2.193  -0.667  0.00  0.00    +0.194 C 
ATOM     20 CL   UNL     1       6.427   0.513  -1.062  0.00  0.00    -0.084 Cl
ATOM     21 CL   UNL     1       6.435   3.312  -1.976  0.00  0.00    -0.084 Cl
ATOM     22 CL   UNL     1       6.644   2.701   0.896  0.00  0.00    -0.084 Cl
ENDBRANCH  18  19
BRANCH  18  23
ATOM     23  N   UNL     1       3.791   1.857  -1.849  0.00  0.00    +0.394 N 
ATOM     24  H   UNL     1       4.354   2.270  -2.602  0.00  0.00    -0.079 HD
BRANCH  23  25
ATOM     25  C   UNL     1       3.796   0.386  -1.996  0.00  0.00    -0.079 C 
ATOM     26  C   UNL     1       2.462  -0.200  -1.529  0.00  0.00    -0.017 C 
ENDBRANCH  23  25
BRANCH  23  27
ATOM     27  C   UNL     1       2.408   2.369  -1.947  0.00  0.00    -0.079 C 
ATOM     28  C   UNL     1       1.954   2.282  -3.405  0.00  0.00    -0.017 C 
ENDBRANCH  23  27
ENDBRANCH  18  23
ENDBRANCH   4  18
TORSDOF 10
