REMARK  Name = ZINC15860500
REMARK  10 active torsions:
REMARK  status: ('A' for Active; 'I' for Inactive)
REMARK    1  A    between atoms: C_1  and  C_2
REMARK    2  A    between atoms: C_5  and  C_7
REMARK    3  A    between atoms: C_7  and  C_9
REMARK    4  A    between atoms: C_7  and  N_62
REMARK    5  A    between atoms: C_9  and  N_10
REMARK    6  A    between atoms: C_11  and  C_13
REMARK    7  A    between atoms: C_14  and  C_24
REMARK    8  A    between atoms: C_16  and  C_23
REMARK    9  A    between atoms: C_18  and  C_22
REMARK   10  A    between atoms: C_27  and  C_30
REMARK                            x       y       z     vdW  Elec       q    Type
REMARK                         _______ _______ _______ _____ _____    ______ ____
ROOT
ATOM      1  C   UNL     1       6.858   1.231  -0.055  0.00  0.00    +0.097 C 
ENDROOT
BRANCH   1   2
ATOM      2  N   UNL     1       5.394   1.273  -0.042  0.00  0.00    -0.310 N 
ATOM      3  C   UNL     1       4.753   2.459  -0.030  0.00  0.00    +0.280 C 
ATOM      4  O   UNL     1       5.391   3.494  -0.030  0.00  0.00    -0.267 OA
ATOM      5  H   UNL     1       4.885   0.447  -0.041  0.00  0.00    +0.149 HD
BRANCH   3   6
ATOM      6  C   UNL     1       3.284   2.501  -0.016  0.00  0.00    +0.193 A 
ATOM      7  C   UNL     1       2.535   3.633  -0.003  0.00  0.00    +0.008 A 
ATOM      8  C   UNL     1       1.139   3.195   0.008  0.00  0.00    +0.027 A 
ATOM      9  C   UNL     1      -0.089   3.860   0.022  0.00  0.00    -0.039 A 
ATOM     10  C   UNL     1      -1.249   3.138   0.029  0.00  0.00    +0.007 A 
ATOM     11  C   UNL     1      -1.214   1.750   0.017  0.00  0.00    -0.047 A 
ATOM     12  C   UNL     1      -0.013   1.076   0.008  0.00  0.00    +0.050 A 
ATOM     13  C   UNL     1       1.181   1.789   0.000  0.00  0.00    +0.137 A 
ATOM     14  O   UNL     1       2.477   1.420  -0.014  0.00  0.00    -0.450 OA
ATOM     15  C   UNL     1      -2.505   0.972   0.019  0.00  0.00    +0.044 C 
ATOM     16  C   UNL     1      -0.135   5.366   0.031  0.00  0.00    +0.044 C 
ATOM     17  C   UNL     1       3.039   5.053  -0.001  0.00  0.00    +0.048 C 
ENDBRANCH   3   6
ENDBRANCH   1   2
BRANCH   1  18
ATOM     18  C   UNL     1       7.326  -0.226  -0.067  0.00  0.00    +0.016 C 
BRANCH  18  25
ATOM     19  C   UNL     1       7.002  -0.246  -2.466  0.00  0.00    -0.078 C 
ATOM     20  C   UNL     1       6.227  -0.920  -3.601  0.00  0.00    -0.015 C 
ATOM     21  C   UNL     1       6.636  -2.393  -3.688  0.00  0.00    -0.018 C 
ATOM     22  C   UNL     1       6.367  -3.069  -2.341  0.00  0.00    -0.015 C 
ATOM     23  C   UNL     1       7.137  -2.333  -1.243  0.00  0.00    -0.078 C 
ATOM     24  C   UNL     1       5.821  -3.086  -4.781  0.00  0.00    +0.007 C 
ATOM     25  N   UNL     1       6.680  -0.928  -1.194  0.00  0.00    +0.387 N 
ATOM     26  H   UNL     1       5.662  -0.914  -1.057  0.00  0.00    -0.081 HD
ENDBRANCH  18  25
BRANCH  18  31
ATOM     27  C   UNL     1      11.934  -0.117  -2.117  0.00  0.00    +0.086 C 
ATOM     28  C   UNL     1      10.830  -0.222  -1.097  0.00  0.00    +0.102 A 
ATOM     29  C   UNL     1      10.995  -0.428   0.223  0.00  0.00    +0.044 A 
ATOM     30  C   UNL     1       9.703  -0.459   0.797  0.00  0.00    +0.043 A 
ATOM     31  C   UNL     1       8.826  -0.270  -0.205  0.00  0.00    +0.093 A 
ATOM     32  O   UNL     1       9.514  -0.133  -1.351  0.00  0.00    -0.466 OA
ENDBRANCH  18  31
ENDBRANCH   1  18
TORSDOF 5
