REMARK  Name = ZINC04670528
REMARK  7 active torsions:
REMARK  status: ('A' for Active; 'I' for Inactive)
REMARK    1  A    between atoms: C_1  and  C_2
REMARK    2  A    between atoms: C_6  and  C_9
REMARK    3  A    between atoms: C_7  and  O_8
REMARK    4  A    between atoms: N_11  and  N_12
REMARK    5  A    between atoms: C_13  and  C_15
REMARK    6  A    between atoms: C_16  and  C_27
REMARK    7  A    between atoms: C_19  and  C_20
REMARK                            x       y       z     vdW  Elec       q    Type
REMARK                         _______ _______ _______ _____ _____    ______ ____
ROOT
ATOM      1  N   UNL     1       0.084  -4.923   3.639  0.00  0.00    -0.230 N 
ATOM      2  C   UNL     1       0.102  -6.271   3.621  0.00  0.00    +0.266 C 
ATOM      3  O   UNL     1       0.104  -6.865   2.560  0.00  0.00    -0.268 OA
ATOM      4  H   UNL     1       0.082  -4.449   4.486  0.00  0.00    +0.173 HD
ENDROOT
BRANCH   2   5
ATOM      5  C   UNL     1       0.117  -7.024   4.887  0.00  0.00    +0.107 A 
ATOM      6  C   UNL     1      -0.969  -7.459   5.588  0.00  0.00    +0.147 A 
ATOM      7  O   UNL     1      -0.535  -8.100   6.676  0.00  0.00    -0.359 OA
ATOM      8  N   UNL     1       0.878  -8.090   6.698  0.00  0.00    -0.077 NA
ATOM      9  C   UNL     1       1.307  -7.457   5.635  0.00  0.00    +0.127 A 
ATOM     10  C   UNL     1      -2.410  -7.252   5.201  0.00  0.00    +0.090 C 
BRANCH   9  11
ATOM     11  C   UNL     1       2.722  -7.219   5.259  0.00  0.00    +0.023 A 
ATOM     12  C   UNL     1       3.028  -6.517   4.095  0.00  0.00    +0.011 A 
ATOM     13  C   UNL     1       4.346  -6.298   3.751  0.00  0.00    +0.001 A 
ATOM     14  C   UNL     1       5.364  -6.776   4.557  0.00  0.00    +0.001 A 
ATOM     15  C   UNL     1       5.067  -7.474   5.713  0.00  0.00    +0.020 A 
ATOM     16  C   UNL     1       3.751  -7.693   6.072  0.00  0.00    +0.050 A 
ATOM     17 CL   UNL     1       3.380  -8.562   7.528  0.00  0.00    -0.083 Cl
ENDBRANCH   9  11
ENDBRANCH   2   5
BRANCH   1  20
ATOM     18  C   UNL     1       0.052  -2.859   2.453  0.00  0.00    +0.264 C 
ATOM     19  O   UNL     1       0.049  -2.265   3.514  0.00  0.00    -0.269 OA
ATOM     20  N   UNL     1       0.069  -4.207   2.435  0.00  0.00    -0.230 N 
ATOM     21  H   UNL     1       0.071  -4.680   1.589  0.00  0.00    +0.173 HD
BRANCH  18  27
ATOM     22  C   UNL     1      -0.018   1.503   0.010  0.00  0.00    +0.047 C 
ATOM     23  C   UNL     1       0.002  -0.004   0.002  0.00  0.00    -0.008 A 
ATOM     24  C   UNL     1       0.006  -0.687  -1.198  0.00  0.00    +0.007 A 
ATOM     25  C   UNL     1       0.024  -2.072  -1.216  0.00  0.00    +0.001 A 
ATOM     26  C   UNL     1       0.039  -2.783  -0.035  0.00  0.00    +0.017 A 
ATOM     27  C   UNL     1       0.036  -2.104   1.186  0.00  0.00    +0.080 A 
ATOM     28  C   UNL     1       0.023  -0.703   1.200  0.00  0.00    +0.132 A 
BRANCH  28  29
ATOM     29  O   UNL     1       0.025  -0.033   2.379  0.00  0.00    -0.506 OA
ATOM     30  H   UNL     1      -0.857   0.149   2.730  0.00  0.00    +0.292 HD
ENDBRANCH  28  29
ENDBRANCH  18  27
ENDBRANCH   1  20
TORSDOF 5
