REMARK  Name = ZINC42667666
REMARK  9 active torsions:
REMARK  status: ('A' for Active; 'I' for Inactive)
REMARK    1  A    between atoms: C_1  and  C_2
REMARK    2  A    between atoms: C_11  and  C_13
REMARK    3  A    between atoms: C_13  and  S_14
REMARK    4  A    between atoms: S_14  and  C_15
REMARK    5  A    between atoms: N_16  and  C_17
REMARK    6  A    between atoms: C_20  and  O_25
REMARK    7  A    between atoms: C_21  and  O_23
REMARK    8  A    between atoms: O_23  and  C_24
REMARK    9  A    between atoms: O_25  and  C_26
REMARK                            x       y       z     vdW  Elec       q    Type
REMARK                         _______ _______ _______ _____ _____    ______ ____
ROOT
ATOM      1  C   UNL     1      -0.887  -4.352   6.744  0.00  0.00    +0.130 C 
ATOM      2  N   UNL     1      -1.779  -5.186   7.379  0.00  0.00    -0.296 N 
ATOM      3  N   UNL     1       0.285  -4.127   7.271  0.00  0.00    -0.381 N 
ATOM      4  H   UNL     1       0.556  -4.602   8.071  0.00  0.00    +0.158 HD
ATOM      5  H   UNL     1       0.885  -3.484   6.862  0.00  0.00    +0.158 HD
ATOM      6  H   UNL     1      -1.723  -5.315   8.339  0.00  0.00    +0.154 HD
ENDROOT
BRANCH   2   7
ATOM      7  C   UNL     1      -2.768  -5.848   6.640  0.00  0.00    +0.036 A 
ATOM      8  C   UNL     1      -2.506  -6.255   5.339  0.00  0.00    +0.027 A 
ATOM      9  C   UNL     1      -3.481  -6.907   4.608  0.00  0.00    +0.051 A 
ATOM     10  C   UNL     1      -4.722  -7.157   5.173  0.00  0.00    +0.162 A 
ATOM     11  C   UNL     1      -4.987  -6.750   6.477  0.00  0.00    +0.163 A 
ATOM     12  C   UNL     1      -4.008  -6.101   7.211  0.00  0.00    +0.072 A 
BRANCH  11  13
ATOM     13  O   UNL     1      -6.204  -6.994   7.031  0.00  0.00    -0.491 OA
ATOM     14  C   UNL     1      -6.406  -6.549   8.374  0.00  0.00    +0.277 C 
ENDBRANCH  11  13
BRANCH  10  15
ATOM     15  O   UNL     1      -5.681  -7.798   4.452  0.00  0.00    -0.491 OA
ATOM     16  C   UNL     1      -5.340  -8.187   3.119  0.00  0.00    +0.277 C 
ENDBRANCH  10  15
ENDBRANCH   2   7
BRANCH   1  17
ATOM     17  S   UNL     1      -1.328  -3.588   5.218  0.00  0.00    -0.086 S 
BRANCH  17  18
ATOM     18  C   UNL     1       0.133  -2.607   4.779  0.00  0.00    +0.132 C 
BRANCH  18  29
ATOM     19  C   UNL     1      -1.066   1.467  -0.129  0.00  0.00    +0.064 C 
ATOM     20  C   UNL     1      -0.775  -0.011  -0.087  0.00  0.00    +0.025 A 
ATOM     21  C   UNL     1      -0.728  -0.716  -1.240  0.00  0.00    +0.021 A 
ATOM     22  C   UNL     1      -0.459  -2.092  -1.214  0.00  0.00    +0.005 A 
ATOM     23  C   UNL     1      -0.245  -2.712  -0.020  0.00  0.00    +0.047 A 
ATOM     24  C   UNL     1      -0.298  -1.962   1.169  0.00  0.00    +0.141 A 
ATOM     25  N   UNL     1      -0.557  -0.621   1.111  0.00  0.00    -0.265 N 
ATOM     26  C   UNL     1      -0.604   0.105   2.248  0.00  0.00    +0.259 A 
ATOM     27  O   UNL     1      -0.840   1.302   2.210  0.00  0.00    -0.267 OA
ATOM     28  C   UNL     1      -0.378  -0.537   3.471  0.00  0.00    +0.094 A 
ATOM     29  C   UNL     1      -0.114  -1.893   3.476  0.00  0.00    +0.059 A 
ATOM     30  N   UNL     1      -0.089  -2.567   2.337  0.00  0.00    -0.233 NA
ENDBRANCH  18  29
ENDBRANCH  17  18
ENDBRANCH   1  17
TORSDOF 6
