REMARK  Name = ZINC00713161
REMARK  4 active torsions:
REMARK  status: ('A' for Active; 'I' for Inactive)
REMARK    1  A    between atoms: C_1  and  C_2
REMARK    2  A    between atoms: C_5  and  C_7
REMARK    3  A    between atoms: N_9  and  N_10
REMARK    4  A    between atoms: C_11  and  C_12
REMARK                            x       y       z     vdW  Elec       q    Type
REMARK                         _______ _______ _______ _____ _____    ______ ____
ROOT
ATOM      1  N   UNL     1       1.607   6.801   0.025  0.00  0.00    -0.187 NA
ATOM      2  C   UNL     1       1.028   7.963   0.036  0.00  0.00    +0.139 C 
ENDROOT
BRANCH   2   3
ATOM      3  C   UNL     1       1.842   9.192   0.036  0.00  0.00    +0.012 A 
ATOM      4  C   UNL     1       1.220  10.444   0.043  0.00  0.00    +0.060 A 
ATOM      5  C   UNL     1       1.987  11.593   0.047  0.00  0.00    +0.167 A 
ATOM      6  C   UNL     1       3.379  11.504   0.034  0.00  0.00    +0.167 A 
ATOM      7  C   UNL     1       3.996  10.262   0.022  0.00  0.00    +0.065 A 
ATOM      8  C   UNL     1       3.237   9.109   0.023  0.00  0.00    +0.030 A 
ATOM      9 BR   UNL     1       4.084   7.419   0.006  0.00  0.00    -0.050 Br
ATOM     10  O   UNL     1       3.896  12.767   0.035  0.00  0.00    -0.453 OA
ATOM     11  C   UNL     1       2.820  13.623   0.461  0.00  0.00    +0.466 C 
ATOM     12  O   UNL     1       1.635  12.913   0.056  0.00  0.00    -0.453 OA
ENDBRANCH   2   3
BRANCH   1  15
ATOM     13  C   UNL     1       1.436   4.427   0.013  0.00  0.00    +0.299 C 
ATOM     14  O   UNL     1       2.651   4.352   0.002  0.00  0.00    -0.265 OA
ATOM     15  N   UNL     1       0.834   5.633   0.025  0.00  0.00    -0.200 N 
ATOM     16  H   UNL     1      -0.134   5.692   0.034  0.00  0.00    +0.178 HD
BRANCH  13  21
ATOM     17  C   UNL     1      -2.538   1.380   0.020  0.00  0.00    +0.086 C 
ATOM     18  C   UNL     1      -1.110   1.864   0.017  0.00  0.00    +0.103 A 
ATOM     19  C   UNL     1      -0.013   1.076   0.008  0.00  0.00    +0.045 A 
ATOM     20  C   UNL     1       1.105   1.925   0.002  0.00  0.00    +0.055 A 
ATOM     21  C   UNL     1       0.627   3.204   0.013  0.00  0.00    +0.191 A 
ATOM     22  O   UNL     1      -0.721   3.145   0.026  0.00  0.00    -0.455 OA
ENDBRANCH  13  21
ENDBRANCH   1  15
TORSDOF 3
