REMARK  Name = ZINC03978584
REMARK  5 active torsions:
REMARK  status: ('A' for Active; 'I' for Inactive)
REMARK    1  A    between atoms: C_1  and  C_2
REMARK    2  A    between atoms: C_10  and  C_11
REMARK    3  A    between atoms: C_10  and  C_12
REMARK    4  A    between atoms: C_13  and  C_19
REMARK    5  A    between atoms: C_13  and  O_20
REMARK                            x       y       z     vdW  Elec       q    Type
REMARK                         _______ _______ _______ _____ _____    ______ ____
ROOT
ATOM      1  C   UNL     1      -0.019   1.524   0.010  0.00  0.00    +0.044 C 
ATOM      2  C   UNL     1       0.002  -0.004   0.002  0.00  0.00    +0.093 C 
ATOM      3  C   UNL     1       0.091  -0.719  -1.346  0.00  0.00    +0.037 C 
ATOM      4  C   UNL     1      -0.991  -1.677  -1.594  0.00  0.00    +0.007 C 
ATOM      5  C   UNL     1      -0.815  -3.092  -2.033  0.00  0.00    +0.001 C 
ATOM      6  C   UNL     1       0.074  -3.965  -1.152  0.00  0.00    +0.025 C 
ATOM      7  C   UNL     1       1.278  -3.533  -1.963  0.00  0.00    +0.013 C 
ATOM      8  C   UNL     1       0.276  -3.281  -3.123  0.00  0.00    -0.031 C 
ATOM      9  C   UNL     1       0.584  -2.050  -3.966  0.00  0.00    +0.011 C 
ATOM     10  C   UNL     1       0.046  -4.529  -3.987  0.00  0.00    +0.011 C 
ATOM     11  C   UNL     1      -0.006  -3.799   0.331  0.00  0.00    +0.066 C 
ATOM     12  C   UNL     1       1.219  -3.302   1.086  0.00  0.00    +0.037 C 
ATOM     13  C   UNL     1       1.617  -1.891   0.724  0.00  0.00    +0.037 C 
ATOM     14  C   UNL     1       0.688  -0.779   1.142  0.00  0.00    +0.151 C 
ATOM     15  O   UNL     1      -0.710  -0.754   1.006  0.00  0.00    -0.365 OA
ATOM     16  C   UNL     1      -0.279  -5.231   0.889  0.00  0.00    +0.041 C 
ENDROOT
BRANCH  11  17
ATOM     17  O   UNL     1      -1.163  -3.047   0.703  0.00  0.00    -0.389 OA
ATOM     18  H   UNL     1      -1.256  -2.915   1.657  0.00  0.00    +0.210 HD
ENDBRANCH  11  17
TORSDOF 1
