REMARK  Name = ZINC41091333
REMARK  6 active torsions:
REMARK  status: ('A' for Active; 'I' for Inactive)
REMARK    1  A    between atoms: C_1  and  C_2
REMARK    2  A    between atoms: C_2  and  N_3
REMARK    3  A    between atoms: C_7  and  S_16
REMARK    4  A    between atoms: S_16  and  N_19
REMARK    5  A    between atoms: N_19  and  N_20
REMARK    6  A    between atoms: C_21  and  C_23
REMARK                            x       y       z     vdW  Elec       q    Type
REMARK                         _______ _______ _______ _____ _____    ______ ____
ROOT
ATOM      1  N   UNL     1       0.711  -0.489   1.189  0.00  0.00    -0.267 N 
ATOM      2  C   UNL     1       2.077  -0.731   1.254  0.00  0.00    +0.045 A 
ATOM      3  C   UNL     1       3.162  -0.640   0.401  0.00  0.00    +0.026 A 
ATOM      4  C   UNL     1       4.434  -0.987   0.854  0.00  0.00    +0.031 A 
ATOM      5  C   UNL     1       4.685  -1.425   2.126  0.00  0.00    +0.115 A 
ATOM      6  C   UNL     1       3.610  -1.531   3.023  0.00  0.00    +0.011 A 
ATOM      7  C   UNL     1       2.348  -1.177   2.544  0.00  0.00    +0.018 A 
ATOM      8  C   UNL     1       1.171  -1.225   3.306  0.00  0.00    +0.047 A 
ATOM      9  C   UNL     1       1.295  -1.654   4.615  0.00  0.00    +0.014 A 
ATOM     10  C   UNL     1       2.549  -2.011   5.110  0.00  0.00    +0.001 A 
ATOM     11  C   UNL     1       3.692  -1.962   4.358  0.00  0.00    +0.010 A 
ATOM     12  C   UNL     1       0.126  -0.762   2.385  0.00  0.00    +0.251 C 
ATOM     13  O   UNL     1      -1.057  -0.646   2.646  0.00  0.00    -0.270 OA
ENDROOT
BRANCH   5  14
ATOM     14  S   UNL     1       6.321  -1.847   2.627  0.00  0.00    +0.074 S 
ATOM     15  O   UNL     1       6.237  -3.118   3.258  0.00  0.00    -0.152 OA
ATOM     16  O   UNL     1       7.163  -1.606   1.508  0.00  0.00    -0.152 OA
BRANCH  14  17
ATOM     17  N   UNL     1       6.768  -0.766   3.798  0.00  0.00    -0.108 NA
ATOM     18  H   UNL     1       7.543  -0.198   3.664  0.00  0.00    +0.172 HD
BRANCH  17  19
ATOM     19  N   UNL     1       6.028  -0.671   4.984  0.00  0.00    -0.228 N 
ATOM     20  C   UNL     1       6.643  -0.812   6.175  0.00  0.00    +0.259 C 
ATOM     21  O   UNL     1       7.839  -1.021   6.221  0.00  0.00    -0.269 OA
ATOM     22  H   UNL     1       5.073  -0.504   4.948  0.00  0.00    +0.171 HD
BRANCH  20  23
ATOM     23  C   UNL     1       5.862  -0.712   7.427  0.00  0.00    +0.038 A 
ATOM     24  C   UNL     1       4.487  -0.478   7.378  0.00  0.00    +0.013 A 
ATOM     25  C   UNL     1       3.763  -0.386   8.549  0.00  0.00    +0.001 A 
ATOM     26  C   UNL     1       4.399  -0.525   9.770  0.00  0.00    +0.000 A 
ATOM     27  C   UNL     1       5.761  -0.757   9.826  0.00  0.00    +0.001 A 
ATOM     28  C   UNL     1       6.495  -0.857   8.662  0.00  0.00    +0.013 A 
ENDBRANCH  20  23
ENDBRANCH  17  19
ENDBRANCH  14  17
ENDBRANCH   5  14
BRANCH   1  30
ATOM     29  C   UNL     1      -0.019   1.526   0.010  0.00  0.00    +0.025 C 
ATOM     30  C   UNL     1       0.002  -0.004   0.002  0.00  0.00    +0.110 C 
ENDBRANCH   1  30
TORSDOF 5
