REMARK  Name = ZINC49543431
REMARK  6 active torsions:
REMARK  status: ('A' for Active; 'I' for Inactive)
REMARK    1  A    between atoms: C_1  and  O_2
REMARK    2  A    between atoms: O_2  and  C_3
REMARK    3  A    between atoms: C_7  and  N_9
REMARK    4  A    between atoms: C_11  and  C_27
REMARK    5  A    between atoms: C_14  and  C_20
REMARK    6  A    between atoms: C_23  and  O_26
REMARK                            x       y       z     vdW  Elec       q    Type
REMARK                         _______ _______ _______ _____ _____    ______ ____
ROOT
ATOM      1  N   UNL     1       1.324  -4.001  -2.290  0.00  0.00    -0.317 N 
ATOM      2  C   UNL     1       1.735  -4.814  -1.294  0.00  0.00    +0.108 A 
ATOM      3  C   UNL     1       1.648  -6.125  -1.735  0.00  0.00    +0.102 A 
ATOM      4  C   UNL     1       1.143  -6.049  -3.101  0.00  0.00    +0.070 A 
ATOM      5  C   UNL     1       0.962  -4.732  -3.379  0.00  0.00    +0.054 A 
ATOM      6  C   UNL     1       0.443  -4.267  -4.718  0.00  0.00    +0.077 C 
ATOM      7  C   UNL     1       0.862  -5.285  -5.781  0.00  0.00    +0.110 C 
ATOM      8  C   UNL     1       0.646  -6.695  -5.312  0.00  0.00    +0.218 C 
ATOM      9  O   UNL     1       0.279  -7.532  -6.110  0.00  0.00    -0.275 OA
ATOM     10  N   UNL     1       0.858  -7.059  -4.029  0.00  0.00    -0.283 N 
ATOM     11  H   UNL     1       0.802  -7.989  -3.757  0.00  0.00    +0.155 HD
ENDROOT
BRANCH   1  16
ATOM     12  C   UNL     1       0.606  -0.607  -1.056  0.00  0.00    +0.122 A 
ATOM     13  C   UNL     1       1.173   0.162  -2.063  0.00  0.00    +0.046 A 
ATOM     14  C   UNL     1       1.787  -0.450  -3.139  0.00  0.00    +0.006 A 
ATOM     15  C   UNL     1       1.839  -1.829  -3.216  0.00  0.00    +0.026 A 
ATOM     16  C   UNL     1       1.273  -2.603  -2.211  0.00  0.00    +0.050 A 
ATOM     17  C   UNL     1       0.660  -1.990  -1.127  0.00  0.00    +0.071 A 
BRANCH  12  19
ATOM     18  C   UNL     1      -0.017   1.425   0.010  0.00  0.00    +0.277 C 
ATOM     19  O   UNL     1       0.002  -0.004   0.002  0.00  0.00    -0.495 OA
ENDBRANCH  12  19
ENDBRANCH   1  16
BRANCH   6  20
ATOM     20  C   UNL     1      -1.060  -4.167  -4.671  0.00  0.00    -0.038 A 
ATOM     21  C   UNL     1      -1.818  -5.289  -4.387  0.00  0.00    +0.008 A 
ATOM     22  C   UNL     1      -3.196  -5.200  -4.344  0.00  0.00    +0.045 A 
ATOM     23  C   UNL     1      -3.819  -3.985  -4.585  0.00  0.00    +0.117 A 
ATOM     24  C   UNL     1      -3.057  -2.861  -4.870  0.00  0.00    +0.045 A 
ATOM     25  C   UNL     1      -1.679  -2.954  -4.906  0.00  0.00    +0.008 A 
BRANCH  23  26
ATOM     26  O   UNL     1      -5.175  -3.895  -4.544  0.00  0.00    -0.507 OA
ATOM     27  H   UNL     1      -5.528  -3.678  -3.671  0.00  0.00    +0.292 HD
ENDBRANCH  23  26
ENDBRANCH   6  20
BRANCH   3  28
ATOM     28  C   UNL     1       1.992  -7.337  -0.984  0.00  0.00    +0.390 C 
ATOM     29  O   UNL     1       2.408  -7.248   0.164  0.00  0.00    -0.240 OA
ATOM     30  O   UNL     1       1.864  -8.437  -1.506  0.00  0.00    -0.240 OA
ENDBRANCH   3  28
TORSDOF 5
