REMARK  Name = ZINC36800127
REMARK  10 active torsions:
REMARK  status: ('A' for Active; 'I' for Inactive)
REMARK    1  A    between atoms: C_1  and  C_2
REMARK    2  A    between atoms: C_3  and  C_7
REMARK    3  A    between atoms: C_10  and  S_13
REMARK    4  A    between atoms: N_11  and  N_12
REMARK    5  A    between atoms: S_13  and  C_14
REMARK    6  A    between atoms: C_14  and  C_15
REMARK    7  A    between atoms: C_15  and  C_17
REMARK    8  A    between atoms: C_19  and  C_28
REMARK    9  A    between atoms: C_19  and  C_29
REMARK   10  A    between atoms: N_26  and  C_27
REMARK                            x       y       z     vdW  Elec       q    Type
REMARK                         _______ _______ _______ _____ _____    ______ ____
ROOT
ATOM      1  C   UNL     1      -8.192  -0.288  -2.114  0.00  0.00    +0.156 C 
ENDROOT
BRANCH   1   2
ATOM      2  C   UNL     1      -8.894   0.245  -0.891  0.00  0.00    +0.168 C 
ATOM      3  O   UNL     1      -8.639  -0.215   0.205  0.00  0.00    -0.292 OA
BRANCH   2   4
ATOM      4  C   UNL     1      -9.841   1.271  -1.018  0.00  0.00    +0.067 C 
ATOM      5  C   UNL     1     -11.096   1.098  -0.536  0.00  0.00    +0.024 C 
ATOM      6  C   UNL     1     -12.182   2.149  -0.453  0.00  0.00    +0.030 C 
ATOM      7  C   UNL     1     -13.357   1.419   0.157  0.00  0.00    -0.015 A 
ATOM      8  C   UNL     1     -14.633   1.818   0.488  0.00  0.00    +0.006 A 
ATOM      9  C   UNL     1     -15.517   0.912   1.047  0.00  0.00    +0.000 A 
ATOM     10  C   UNL     1     -15.115  -0.393   1.272  0.00  0.00    +0.002 A 
ATOM     11  C   UNL     1     -13.838  -0.795   0.942  0.00  0.00    +0.024 A 
ATOM     12  C   UNL     1     -12.941   0.113   0.378  0.00  0.00    +0.038 A 
ATOM     13  N   UNL     1     -11.622  -0.054  -0.039  0.00  0.00    -0.305 N 
ATOM     14  C   UNL     1     -10.887  -1.318   0.051  0.00  0.00    +0.135 C 
ATOM     15  C   UNL     1     -11.742   3.304   0.449  0.00  0.00    +0.022 C 
ATOM     16  C   UNL     1     -12.538   2.664  -1.849  0.00  0.00    +0.022 C 
ENDBRANCH   2   4
ENDBRANCH   1   2
BRANCH   1  17
ATOM     17  S   UNL     1      -7.036  -1.598  -1.624  0.00  0.00    -0.077 S 
BRANCH  17  21
ATOM     18  C   UNL     1      -5.095  -3.132  -4.648  0.00  0.00    +0.185 A 
ATOM     19  N   UNL     1      -5.854  -2.227  -5.221  0.00  0.00    -0.127 NA
ATOM     20  N   UNL     1      -6.566  -1.627  -4.335  0.00  0.00    -0.121 NA
ATOM     21  C   UNL     1      -6.305  -2.111  -3.143  0.00  0.00    +0.209 A 
ATOM     22  N   UNL     1      -5.364  -3.090  -3.300  0.00  0.00    -0.224 N 
BRANCH  18  25
ATOM     23  C   UNL     1      -4.487  -3.224  -7.723  0.00  0.00    +0.087 C 
ATOM     24  C   UNL     1      -3.858  -4.084  -6.657  0.00  0.00    +0.112 A 
ATOM     25  C   UNL     1      -4.135  -4.031  -5.326  0.00  0.00    +0.061 A 
ATOM     26  C   UNL     1      -3.283  -5.051  -4.701  0.00  0.00    +0.053 A 
ATOM     27  C   UNL     1      -2.584  -5.613  -5.701  0.00  0.00    +0.196 A 
ATOM     28  O   UNL     1      -2.936  -5.036  -6.860  0.00  0.00    -0.467 OA
ENDBRANCH  18  25
BRANCH  22  29
ATOM     29  N   UNL     1      -4.805  -3.863  -2.322  0.00  0.00    -0.295 N 
ATOM     30  H   UNL     1      -3.975  -3.428  -1.948  0.00  0.00    +0.163 HD
ATOM     31  H   UNL     1      -5.472  -4.059  -1.591  0.00  0.00    +0.163 HD
ENDBRANCH  22  29
ENDBRANCH  17  21
ENDBRANCH   1  17
TORSDOF 6
