REMARK  Name = ZINC29236164
REMARK  11 active torsions:
REMARK  status: ('A' for Active; 'I' for Inactive)
REMARK    1  A    between atoms: C_6  and  N_7
REMARK    2  A    between atoms: N_11  and  C_14
REMARK    3  A    between atoms: C_14  and  C_15
REMARK    4  A    between atoms: C_15  and  C_16
REMARK    5  A    between atoms: C_16  and  C_17
REMARK    6  A    between atoms: C_17  and  C_18
REMARK    7  A    between atoms: C_18  and  C_19
REMARK    8  A    between atoms: C_19  and  C_20
REMARK    9  A    between atoms: C_20  and  C_21
REMARK   10  A    between atoms: C_21  and  N_22
REMARK   11  A    between atoms: N_26  and  C_27
REMARK                            x       y       z     vdW  Elec       q    Type
REMARK                         _______ _______ _______ _____ _____    ______ ____
ROOT
ATOM      1  C   UNL     1      -2.232  -8.008  -4.744  0.00  0.00    +0.000 C 
ENDROOT
BRANCH   1   2
ATOM      2  C   UNL     1      -2.798  -6.812  -5.513  0.00  0.00    +0.002 C 
BRANCH   2   3
ATOM      3  C   UNL     1      -2.639  -5.543  -4.673  0.00  0.00    +0.021 C 
BRANCH   3   4
ATOM      4  C   UNL     1      -3.205  -4.348  -5.443  0.00  0.00    +0.121 C 
BRANCH   4   9
ATOM      5  N   UNL     1      -2.629   0.242  -2.407  0.00  0.00    -0.355 N 
ATOM      6  C   UNL     1      -2.768  -0.862  -3.138  0.00  0.00    +0.042 A 
ATOM      7  C   UNL     1      -1.747  -1.268  -4.038  0.00  0.00    +0.043 A 
ATOM      8  C   UNL     1      -1.918  -2.392  -4.763  0.00  0.00    +0.087 A 
ATOM      9  N   UNL     1      -3.052  -3.133  -4.639  0.00  0.00    -0.353 N 
ATOM     10  C   UNL     1      -4.049  -2.771  -3.785  0.00  0.00    +0.087 A 
ATOM     11  C   UNL     1      -3.937  -1.662  -3.028  0.00  0.00    +0.043 A 
ATOM     12  H   UNL     1      -3.290   0.464  -1.733  0.00  0.00    +0.166 HD
BRANCH   5  18
ATOM     13  C   UNL     1      -1.299   1.582  -3.880  0.00  0.00    +0.028 A 
ATOM     14  C   UNL     1      -0.215   2.411  -4.076  0.00  0.00    +0.040 A 
ATOM     15  C   UNL     1       0.618   2.730  -3.015  0.00  0.00    +0.124 A 
ATOM     16  C   UNL     1       0.367   2.219  -1.751  0.00  0.00    +0.040 A 
ATOM     17  C   UNL     1      -0.713   1.388  -1.542  0.00  0.00    +0.028 A 
ATOM     18  C   UNL     1      -1.558   1.063  -2.608  0.00  0.00    +0.040 A 
ATOM     19  F   UNL     1       1.679   3.543  -3.213  0.00  0.00    -0.205 F 
ENDBRANCH   5  18
ENDBRANCH   4   9
ENDBRANCH   3   4
ENDBRANCH   2   3
ENDBRANCH   1   2
BRANCH   1  20
ATOM     20  C   UNL     1      -2.391  -9.277  -5.583  0.00  0.00    +0.000 C 
BRANCH  20  21
ATOM     21  C   UNL     1      -1.825 -10.472  -4.814  0.00  0.00    +0.002 C 
BRANCH  21  22
ATOM     22  C   UNL     1      -1.984 -11.741  -5.654  0.00  0.00    +0.021 C 
BRANCH  22  23
ATOM     23  C   UNL     1      -1.418 -12.936  -4.884  0.00  0.00    +0.121 C 
BRANCH  23  24
ATOM     24  N   UNL     1      -1.570 -14.151  -5.688  0.00  0.00    -0.353 N 
ATOM     25  C   UNL     1      -2.707 -14.890  -5.568  0.00  0.00    +0.087 A 
ATOM     26  C   UNL     1      -2.878 -16.012  -6.294  0.00  0.00    +0.043 A 
ATOM     27  C   UNL     1      -1.856 -16.421  -7.191  0.00  0.00    +0.042 A 
ATOM     28  N   UNL     1      -1.994 -17.525  -7.922  0.00  0.00    -0.355 N 
ATOM     29  C   UNL     1      -0.682 -15.627  -7.292  0.00  0.00    +0.043 A 
ATOM     30  C   UNL     1      -0.574 -14.513  -6.542  0.00  0.00    +0.087 A 
ATOM     31  H   UNL     1      -2.831 -18.015  -7.905  0.00  0.00    +0.166 HD
BRANCH  28  32
ATOM     32  C   UNL     1      -0.960 -17.967  -8.693  0.00  0.00    +0.040 A 
ATOM     33  C   UNL     1       0.288 -18.221  -8.116  0.00  0.00    +0.028 A 
ATOM     34  C   UNL     1       1.330 -18.667  -8.902  0.00  0.00    +0.040 A 
ATOM     35  C   UNL     1       1.142 -18.864 -10.261  0.00  0.00    +0.124 A 
ATOM     36  C   UNL     1      -0.092 -18.614 -10.839  0.00  0.00    +0.040 A 
ATOM     37  C   UNL     1      -1.144 -18.173 -10.064  0.00  0.00    +0.028 A 
ATOM     38  F   UNL     1       2.167 -19.301 -11.025  0.00  0.00    -0.205 F 
ENDBRANCH  28  32
ENDBRANCH  23  24
ENDBRANCH  22  23
ENDBRANCH  21  22
ENDBRANCH  20  21
ENDBRANCH   1  20
TORSDOF 11
