REMARK  Name = ZINC36121944
REMARK  11 active torsions:
REMARK  status: ('A' for Active; 'I' for Inactive)
REMARK    1  A    between atoms: C_1  and  C_2
REMARK    2  A    between atoms: C_2  and  C_3
REMARK    3  A    between atoms: C_3  and  C_5
REMARK    4  A    between atoms: C_3  and  N_6
REMARK    5  A    between atoms: N_6  and  C_7
REMARK    6  A    between atoms: C_7  and  C_8
REMARK    7  A    between atoms: C_18  and  C_20
REMARK    8  A    between atoms: C_20  and  O_21
REMARK    9  A    between atoms: O_21  and  C_22
REMARK   10  A    between atoms: C_27  and  C_28
REMARK   11  A    between atoms: C_29  and  C_31
REMARK                            x       y       z     vdW  Elec       q    Type
REMARK                         _______ _______ _______ _____ _____    ______ ____
ROOT
ATOM      1  C   UNL     1      -1.901  -2.253   3.508  0.00  0.00    +0.234 C 
ATOM      2  O   UNL     1      -1.321  -3.108   2.872  0.00  0.00    -0.274 OA
ATOM      3  N   UNL     1      -2.557  -2.582   4.638  0.00  0.00    -0.289 N 
ATOM      4  C   UNL     1      -3.268  -1.554   5.413  0.00  0.00    +0.114 C 
ATOM      5  C   UNL     1      -2.582  -1.421   6.781  0.00  0.00    +0.061 C 
ATOM      6  C   UNL     1      -2.277  -2.789   7.300  0.00  0.00    -0.004 A 
ATOM      7  C   UNL     1      -2.252  -3.959   6.606  0.00  0.00    -0.014 A 
ATOM      8  C   UNL     1      -1.928  -5.107   7.328  0.00  0.00    +0.013 A 
ATOM      9  C   UNL     1      -1.666  -5.022   8.652  0.00  0.00    +0.046 A 
ATOM     10  S   UNL     1      -1.865  -3.273   8.955  0.00  0.00    -0.101 S 
ATOM     11  C   UNL     1      -2.577  -3.973   5.110  0.00  0.00    +0.144 C 
ENDROOT
BRANCH   1  12
ATOM     12  C   UNL     1      -1.887  -0.823   3.034  0.00  0.00    +0.204 C 
BRANCH  12  13
ATOM     13  N   UNL     1      -1.113  -0.727   1.793  0.00  0.00    -0.286 N 
ATOM     14  C   UNL     1       0.212  -0.487   1.843  0.00  0.00    +0.250 C 
ATOM     15  O   UNL     1       0.651   0.346   2.612  0.00  0.00    -0.270 OA
BRANCH  14  16
ATOM     16  C   UNL     1       1.132  -1.236   0.962  0.00  0.00    +0.072 A 
ATOM     17  C   UNL     1       0.765  -1.521  -0.355  0.00  0.00    +0.016 A 
ATOM     18  C   UNL     1       1.629  -2.219  -1.172  0.00  0.00    +0.001 A 
ATOM     19  C   UNL     1       2.857  -2.640  -0.691  0.00  0.00    +0.003 A 
ATOM     20  C   UNL     1       3.229  -2.363   0.611  0.00  0.00    +0.039 A 
ATOM     21  C   UNL     1       2.376  -1.657   1.441  0.00  0.00    +0.135 A 
ATOM     22  F   UNL     1       2.742  -1.382   2.712  0.00  0.00    -0.205 F 
ENDBRANCH  14  16
BRANCH  13  23
ATOM     23  C   UNL     1      -1.780  -0.893   0.499  0.00  0.00    +0.074 C 
ATOM     24  C   UNL     1      -1.532  -2.309  -0.025  0.00  0.00    +0.028 C 
BRANCH  23  26
ATOM     25  C   UNL     1      -1.851   1.494  -0.236  0.00  0.00    +0.005 C 
ATOM     26  C   UNL     1      -1.219   0.125  -0.497  0.00  0.00    +0.019 C 
ENDBRANCH  23  26
ENDBRANCH  13  23
ENDBRANCH  12  13
ENDBRANCH   1  12
BRANCH  11  27
ATOM     27  C   UNL     1      -3.965  -4.577   4.883  0.00  0.00    +0.256 C 
BRANCH  27  28
ATOM     28  O   UNL     1      -4.921  -3.893   5.695  0.00  0.00    -0.490 OA
BRANCH  28  29
ATOM     29  C   UNL     1      -6.212  -4.309   5.611  0.00  0.00    +0.123 A 
ATOM     30  C   UNL     1      -6.550  -5.359   4.770  0.00  0.00    +0.046 A 
ATOM     31  C   UNL     1      -7.863  -5.781   4.688  0.00  0.00    +0.004 A 
ATOM     32  C   UNL     1      -8.839  -5.157   5.443  0.00  0.00    +0.000 A 
ATOM     33  C   UNL     1      -8.505  -4.111   6.282  0.00  0.00    +0.007 A 
ATOM     34  C   UNL     1      -7.192  -3.689   6.372  0.00  0.00    -0.009 A 
ATOM     35  C   UNL     1      -6.827  -2.552   7.291  0.00  0.00    +0.047 C 
ENDBRANCH  28  29
ENDBRANCH  27  28
ENDBRANCH  11  27
TORSDOF 8
