REMARK  Name = ZINC14866622
REMARK  5 active torsions:
REMARK  status: ('A' for Active; 'I' for Inactive)
REMARK    1  A    between atoms: C_10  and  C_11
REMARK    2  A    between atoms: C_11  and  C_12
REMARK    3  A    between atoms: N_14  and  C_15
REMARK    4  A    between atoms: C_18  and  S_21
REMARK    5  A    between atoms: S_21  and  N_24
REMARK                            x       y       z     vdW  Elec       q    Type
REMARK                         _______ _______ _______ _____ _____    ______ ____
ROOT
ATOM      1  C   UNL     1       6.823   1.446   2.939  0.00  0.00    +0.034 A 
ATOM      2  C   UNL     1       6.032   0.946   3.965  0.00  0.00    +0.025 A 
ATOM      3  C   UNL     1       6.384   1.174   5.281  0.00  0.00    +0.031 A 
ATOM      4  C   UNL     1       7.524   1.899   5.577  0.00  0.00    +0.113 A 
ATOM      5  C   UNL     1       8.314   2.399   4.558  0.00  0.00    +0.031 A 
ATOM      6  C   UNL     1       7.970   2.170   3.240  0.00  0.00    +0.025 A 
ENDROOT
BRANCH   1   9
ATOM      7  C   UNL     1       7.427   1.024   0.677  0.00  0.00    +0.222 C 
ATOM      8  O   UNL     1       8.596   1.130   0.981  0.00  0.00    -0.275 OA
ATOM      9  N   UNL     1       6.469   1.218   1.605  0.00  0.00    -0.285 N 
ATOM     10  H   UNL     1       5.534   1.198   1.348  0.00  0.00    +0.155 HD
BRANCH   7  11
ATOM     11  C   UNL     1       7.046   0.674  -0.738  0.00  0.00    +0.131 C 
BRANCH  11  21
ATOM     12  C   UNL     1      10.345  -3.127  -1.671  0.00  0.00    +0.001 A 
ATOM     13  C   UNL     1       9.194  -2.996  -0.896  0.00  0.00    +0.001 A 
ATOM     14  C   UNL     1       8.511  -1.820  -0.849  0.00  0.00    +0.009 A 
ATOM     15  C   UNL     1       8.970  -0.719  -1.592  0.00  0.00    -0.014 A 
ATOM     16  C   UNL     1      10.141  -0.852  -2.380  0.00  0.00    -0.018 A 
ATOM     17  C   UNL     1      10.819  -2.083  -2.403  0.00  0.00    +0.008 A 
ATOM     18  C   UNL     1      10.601   0.248  -3.123  0.00  0.00    +0.008 A 
ATOM     19  C   UNL     1       9.918   1.425  -3.076  0.00  0.00    +0.001 A 
ATOM     20  C   UNL     1       8.768   1.556  -2.301  0.00  0.00    +0.005 A 
ATOM     21  C   UNL     1       8.292   0.512  -1.569  0.00  0.00    -0.031 A 
ENDBRANCH  11  21
ENDBRANCH   7  11
ENDBRANCH   1   9
BRANCH   4  22
ATOM     22  S   UNL     1       7.970   2.188   7.257  0.00  0.00    +0.100 S 
ATOM     23  O   UNL     1       8.780   3.355   7.268  0.00  0.00    -0.146 OA
ATOM     24  O   UNL     1       6.775   2.082   8.019  0.00  0.00    -0.146 OA
BRANCH  22  25
ATOM     25  N   UNL     1       8.943   0.933   7.728  0.00  0.00    -0.118 NA
ATOM     26  C   UNL     1       9.415   0.897   8.931  0.00  0.00    +0.117 C 
ATOM     27  C   UNL     1       9.073   2.008   9.921  0.00  0.00    +0.073 C 
ATOM     28  C   UNL     1       8.166   1.408  10.974  0.00  0.00    +0.008 C 
ATOM     29  C   UNL     1       8.923   0.787  12.149  0.00  0.00    +0.002 C 
ATOM     30  C   UNL     1      10.139  -0.031  11.713  0.00  0.00    +0.019 C 
ATOM     31  C   UNL     1       9.870  -0.904  10.507  0.00  0.00    +0.102 C 
ATOM     32  N   UNL     1      10.190  -0.101   9.308  0.00  0.00    -0.331 N 
ATOM     33  H   UNL     1      10.984  -0.313   8.792  0.00  0.00    +0.147 HD
ENDBRANCH  22  25
ENDBRANCH   4  22
TORSDOF 5
