REMARK  Name = ZINC09112963
REMARK  5 active torsions:
REMARK  status: ('A' for Active; 'I' for Inactive)
REMARK    1  A    between atoms: C_1  and  C_2
REMARK    2  A    between atoms: C_2  and  C_4
REMARK    3  A    between atoms: C_2  and  N_55
REMARK    4  A    between atoms: N_9  and  C_10
REMARK    5  A    between atoms: C_21  and  C_23
REMARK                            x       y       z     vdW  Elec       q    Type
REMARK                         _______ _______ _______ _____ _____    ______ ____
ROOT
ATOM      1  C   UNL     1      -4.879  -0.067   1.274  0.00  0.00    -0.004 C 
ATOM      2  C   UNL     1      -4.816   0.821   0.029  0.00  0.00    +0.017 C 
ENDROOT
BRANCH   2  10
ATOM      3  C   UNL     1      -5.915   2.606   1.240  0.00  0.00    -0.058 C 
ATOM      4  C   UNL     1      -6.996   3.687   1.127  0.00  0.00    +0.089 C 
ATOM      5  N   UNL     1      -8.286   3.032   0.860  0.00  0.00    -0.305 N 
ATOM      6  C   UNL     1      -8.359   2.064  -0.245  0.00  0.00    +0.089 C 
ATOM      7  C   UNL     1      -7.224   1.047  -0.077  0.00  0.00    -0.058 C 
ATOM      8  C   UNL     1      -9.371   3.311   1.608  0.00  0.00    +0.219 C 
ATOM      9  O   UNL     1     -10.427   2.762   1.373  0.00  0.00    -0.275 OA
ATOM     10  N   UNL     1      -5.942   1.778   0.015  0.00  0.00    +0.389 N 
ATOM     11  H   UNL     1      -5.848   2.391  -0.803  0.00  0.00    -0.081 HD
BRANCH   8  12
ATOM     12  C   UNL     1      -9.274   4.306   2.735  0.00  0.00    +0.075 C 
ATOM     13  C   UNL     1      -9.396   3.771   4.163  0.00  0.00    +0.013 C 
ATOM     14  C   UNL     1     -10.541   4.579   3.548  0.00  0.00    +0.013 C 
ENDBRANCH   8  12
ENDBRANCH   2  10
BRANCH   2  15
ATOM     15  C   UNL     1      -3.522   1.592   0.027  0.00  0.00    +0.207 C 
ATOM     16  O   UNL     1      -3.538   2.804   0.034  0.00  0.00    -0.277 OA
ATOM     17  N   UNL     1      -2.345   0.934   0.018  0.00  0.00    -0.242 N 
ATOM     18  C   UNL     1      -1.187   1.624   0.017  0.00  0.00    +0.306 C 
ATOM     19  O   UNL     1      -1.204   2.839   0.023  0.00  0.00    -0.252 OA
ATOM     20  N   UNL     1      -0.011   0.966   0.007  0.00  0.00    -0.296 N 
ATOM     21  H   UNL     1      -2.332  -0.036   0.013  0.00  0.00    +0.159 HD
ATOM     22  H   UNL     1       0.002  -0.004   0.002  0.00  0.00    +0.151 HD
BRANCH  20  23
ATOM     23  C   UNL     1       1.248   1.716  -0.001  0.00  0.00    +0.074 C 
ATOM     24  C   UNL     1       1.608   2.092  -1.439  0.00  0.00    +0.022 C 
ATOM     25  C   UNL     1       2.922   2.875  -1.448  0.00  0.00    +0.002 C 
ATOM     26  C   UNL     1       4.035   2.010  -0.853  0.00  0.00    +0.000 C 
ATOM     27  C   UNL     1       3.675   1.633   0.585  0.00  0.00    +0.002 C 
ATOM     28  C   UNL     1       2.361   0.850   0.594  0.00  0.00    +0.022 C 
ENDBRANCH  20  23
ENDBRANCH   2  15
TORSDOF 4
