REMARK  Name = ZINC66681902
REMARK  9 active torsions:
REMARK  status: ('A' for Active; 'I' for Inactive)
REMARK    1  A    between atoms: C_1  and  C_2
REMARK    2  A    between atoms: C_4  and  N_14
REMARK    3  A    between atoms: C_7  and  C_8
REMARK    4  A    between atoms: N_10  and  C_11
REMARK    5  A    between atoms: C_11  and  C_12
REMARK    6  A    between atoms: C_11  and  C_13
REMARK    7  A    between atoms: N_17  and  C_18
REMARK    8  A    between atoms: N_17  and  C_19
REMARK    9  A    between atoms: C_19  and  C_20
REMARK                            x       y       z     vdW  Elec       q    Type
REMARK                         _______ _______ _______ _____ _____    ______ ____
ROOT
ATOM      1  N   UNL     1      -0.180  -2.767  -2.406  0.00  0.00    -0.269 N 
ATOM      2  C   UNL     1      -0.973  -2.289  -3.385  0.00  0.00    +0.307 C 
ATOM      3  O   UNL     1      -1.668  -1.312  -3.182  0.00  0.00    -0.252 OA
ATOM      4  N   UNL     1      -0.996  -2.894  -4.589  0.00  0.00    -0.281 N 
ATOM      5  C   UNL     1      -0.159  -4.071  -4.834  0.00  0.00    +0.134 C 
ATOM      6  H   UNL     1       0.317  -3.589  -2.542  0.00  0.00    +0.156 HD
ENDROOT
BRANCH   1  10
ATOM      7  C   UNL     1      -0.093   1.498   0.024  0.00  0.00    +0.044 C 
ATOM      8  C   UNL     1      -0.028  -0.007   0.009  0.00  0.00    -0.037 A 
ATOM      9  C   UNL     1      -0.133  -0.690  -1.182  0.00  0.00    +0.027 A 
ATOM     10  C   UNL     1      -0.072  -2.079  -1.198  0.00  0.00    +0.035 A 
ATOM     11  C   UNL     1       0.095  -2.785  -0.010  0.00  0.00    +0.024 A 
ATOM     12  C   UNL     1       0.200  -2.109   1.185  0.00  0.00    +0.015 A 
ATOM     13  C   UNL     1       0.145  -0.712   1.203  0.00  0.00    +0.040 A 
BRANCH  13  14
ATOM     14  C   UNL     1       0.264   0.016   2.481  0.00  0.00    +0.245 C 
ATOM     15  O   UNL     1       0.333   1.230   2.485  0.00  0.00    -0.270 OA
ATOM     16  N   UNL     1       0.295  -0.665   3.644  0.00  0.00    -0.309 N 
ATOM     17  H   UNL     1       0.240  -1.633   3.641  0.00  0.00    +0.149 HD
BRANCH  16  18
ATOM     18  C   UNL     1       0.413   0.058   4.913  0.00  0.00    +0.067 C 
ATOM     19  C   UNL     1      -0.976   0.500   5.379  0.00  0.00    +0.027 C 
ATOM     20  C   UNL     1       1.036  -0.860   5.967  0.00  0.00    +0.027 C 
ENDBRANCH  16  18
ENDBRANCH  13  14
ENDBRANCH   1  10
BRANCH   4  21
ATOM     21  C   UNL     1      -1.858  -2.375  -5.654  0.00  0.00    +0.185 C 
BRANCH  21  22
ATOM     22  C   UNL     1      -1.099  -1.355  -6.462  0.00  0.00    +0.151 A 
ATOM     23  N   UNL     1      -1.041  -0.071  -6.231  0.00  0.00    -0.133 NA
ATOM     24  N   UNL     1      -0.305   0.495  -7.119  0.00  0.00    -0.134 NA
ATOM     25  C   UNL     1       0.139  -0.402  -7.959  0.00  0.00    +0.134 A 
ATOM     26  N   UNL     1      -0.344  -1.600  -7.562  0.00  0.00    -0.313 N 
ATOM     27  C   UNL     1       0.117  -2.677  -8.446  0.00  0.00    +0.125 C 
ATOM     28  C   UNL     1       0.620  -1.975  -9.726  0.00  0.00    +0.029 C 
ATOM     29  C   UNL     1       0.992  -0.574  -9.198  0.00  0.00    +0.078 C 
ENDBRANCH  21  22
ENDBRANCH   4  21
TORSDOF 5
