REMARK  Name = ZINC10395831
REMARK  7 active torsions:
REMARK  status: ('A' for Active; 'I' for Inactive)
REMARK    1  A    between atoms: C_1  and  C_2
REMARK    2  A    between atoms: C_5  and  N_8
REMARK    3  A    between atoms: C_9  and  S_13
REMARK    4  A    between atoms: S_13  and  C_14
REMARK    5  A    between atoms: C_14  and  C_15
REMARK    6  A    between atoms: C_19  and  C_25
REMARK    7  A    between atoms: C_20  and  C_24
REMARK                            x       y       z     vdW  Elec       q    Type
REMARK                         _______ _______ _______ _____ _____    ______ ____
ROOT
ATOM      1  C   UNL     1      -1.350  -2.741   0.641  0.00  0.00    +0.153 C 
ENDROOT
BRANCH   1   2
ATOM      2  C   UNL     1      -0.350  -1.633   0.850  0.00  0.00    +0.143 A 
ATOM      3  N   UNL     1       0.933  -1.931   0.948  0.00  0.00    -0.216 NA
ATOM      4  C   UNL     1       1.859  -1.004   1.132  0.00  0.00    +0.128 A 
ATOM      5  C   UNL     1       1.466   0.360   1.228  0.00  0.00    +0.050 A 
ATOM      6  C   UNL     1       2.277   1.548   1.426  0.00  0.00    -0.028 A 
ATOM      7  C   UNL     1       1.678   2.747   1.485  0.00  0.00    -0.008 A 
ATOM      8  S   UNL     1      -0.050   2.361   1.274  0.00  0.00    -0.074 S 
ATOM      9  C   UNL     1       0.079   0.599   1.113  0.00  0.00    +0.114 A 
ATOM     10  N   UNL     1      -0.776  -0.387   0.930  0.00  0.00    -0.224 NA
ATOM     11  C   UNL     1       2.314   4.099   1.682  0.00  0.00    +0.052 C 
ATOM     12  C   UNL     1       3.773   1.436   1.565  0.00  0.00    +0.045 C 
ATOM     13  N   UNL     1       3.193  -1.356   1.230  0.00  0.00    -0.343 N 
ATOM     14  H   UNL     1       3.881  -0.735   0.945  0.00  0.00    +0.144 HD
ATOM     15  H   UNL     1       3.441  -2.225   1.584  0.00  0.00    +0.144 HD
ENDBRANCH   1   2
BRANCH   1  16
ATOM     16  S   UNL     1      -1.919  -3.351   2.247  0.00  0.00    -0.076 S 
BRANCH  16  18
ATOM     17  N   UNL     1      -3.779  -5.414   2.519  0.00  0.00    -0.187 N 
ATOM     18  C   UNL     1      -3.043  -4.601   1.720  0.00  0.00    +0.214 A 
ATOM     19  N   UNL     1      -3.323  -4.927   0.476  0.00  0.00    -0.101 NA
ATOM     20  N   UNL     1      -4.183  -5.880   0.443  0.00  0.00    -0.022 NA
ATOM     21  N   UNL     1      -4.512  -6.229   1.639  0.00  0.00    -0.038 NA
BRANCH  17  26
ATOM     22  C   UNL     1      -3.880  -5.497   8.193  0.00  0.00    +0.044 C 
ATOM     23  C   UNL     1      -3.853  -5.475   6.687  0.00  0.00    -0.050 A 
ATOM     24  C   UNL     1      -5.008  -5.734   5.972  0.00  0.00    +0.005 A 
ATOM     25  C   UNL     1      -4.987  -5.715   4.591  0.00  0.00    +0.028 A 
ATOM     26  C   UNL     1      -3.804  -5.435   3.921  0.00  0.00    +0.070 A 
ATOM     27  C   UNL     1      -2.644  -5.181   4.641  0.00  0.00    +0.028 A 
ATOM     28  C   UNL     1      -2.673  -5.197   6.022  0.00  0.00    +0.005 A 
ENDBRANCH  17  26
ENDBRANCH  16  18
ENDBRANCH   1  16
TORSDOF 4
