REMARK  Name = ZINC62639646
REMARK  5 active torsions:
REMARK  status: ('A' for Active; 'I' for Inactive)
REMARK    1  A    between atoms: C_1  and  C_2
REMARK    2  A    between atoms: C_5  and  C_8
REMARK    3  A    between atoms: C_11  and  C_13
REMARK    4  A    between atoms: C_13  and  N_14
REMARK    5  A    between atoms: N_14  and  C_15
REMARK                            x       y       z     vdW  Elec       q    Type
REMARK                         _______ _______ _______ _____ _____    ______ ____
ROOT
ATOM      1  C   UNL     1       0.059  -4.251  -0.021  0.00  0.00    +0.248 A 
ATOM      2  N   UNL     1       0.070  -5.024  -1.082  0.00  0.00    -0.107 NA
ATOM      3  N   UNL     1       0.087  -6.255  -0.710  0.00  0.00    -0.110 NA
ATOM      4  C   UNL     1       0.087  -6.317   0.592  0.00  0.00    +0.234 A 
ATOM      5  O   UNL     1       0.075  -5.057   1.060  0.00  0.00    -0.419 OA
ENDROOT
BRANCH   1  10
ATOM      6  C   UNL     1      -0.018   1.503   0.010  0.00  0.00    +0.044 C 
ATOM      7  C   UNL     1       0.002  -0.004   0.002  0.00  0.00    -0.050 A 
ATOM      8  C   UNL     1       0.006  -0.686  -1.202  0.00  0.00    +0.004 A 
ATOM      9  C   UNL     1       0.024  -2.066  -1.216  0.00  0.00    +0.013 A 
ATOM     10  C   UNL     1       0.040  -2.773  -0.013  0.00  0.00    +0.038 A 
ATOM     11  C   UNL     1       0.036  -2.079   1.198  0.00  0.00    +0.013 A 
ATOM     12  C   UNL     1       0.023  -0.699   1.198  0.00  0.00    +0.004 A 
ENDBRANCH   1  10
BRANCH   4  13
ATOM     13  C   UNL     1       0.105  -7.574   1.424  0.00  0.00    +0.199 C 
BRANCH  13  14
ATOM     14  N   UNL     1       1.491  -7.962   1.694  0.00  0.00    -0.335 N 
ATOM     15  H   UNL     1       2.221  -7.426   1.346  0.00  0.00    +0.147 HD
BRANCH  14  16
ATOM     16  C   UNL     1       1.763  -9.105   2.453  0.00  0.00    +0.031 A 
ATOM     17  C   UNL     1       0.718  -9.876   2.945  0.00  0.00    +0.027 A 
ATOM     18  C   UNL     1       0.984 -11.006   3.695  0.00  0.00    +0.051 A 
ATOM     19  C   UNL     1       2.294 -11.373   3.957  0.00  0.00    +0.166 A 
ATOM     20  C   UNL     1       3.344 -10.603   3.464  0.00  0.00    +0.168 A 
ATOM     21  C   UNL     1       3.076  -9.473   2.709  0.00  0.00    +0.072 A 
ATOM     22  O   UNL     1       4.523 -11.169   3.856  0.00  0.00    -0.453 OA
ATOM     23  C   UNL     1       4.181 -12.061   4.934  0.00  0.00    +0.466 C 
ATOM     24  O   UNL     1       2.816 -12.424   4.658  0.00  0.00    -0.453 OA
ENDBRANCH  14  16
ENDBRANCH  13  14
ENDBRANCH   4  13
TORSDOF 4
