REMARK  Name = ZINC16390096
REMARK  11 active torsions:
REMARK  status: ('A' for Active; 'I' for Inactive)
REMARK    1  A    between atoms: C_1  and  C_2
REMARK    2  A    between atoms: C_2  and  C_3
REMARK    3  A    between atoms: C_3  and  N_53
REMARK    4  A    between atoms: C_4  and  C_5
REMARK    5  A    between atoms: C_4  and  N_53
REMARK    6  A    between atoms: N_7  and  C_8
REMARK    7  A    between atoms: C_17  and  C_18
REMARK    8  A    between atoms: C_17  and  N_53
REMARK    9  A    between atoms: N_20  and  C_21
REMARK   10  A    between atoms: C_21  and  C_23
REMARK   11  A    between atoms: C_21  and  C_24
REMARK                            x       y       z     vdW  Elec       q    Type
REMARK                         _______ _______ _______ _____ _____    ______ ____
ROOT
ATOM      1  N   UNL     1       4.293   0.570  -1.467  0.00  0.00    +0.391 N 
ATOM      2  H   UNL     1       3.795   0.440  -2.356  0.00  0.00    -0.080 HD
ENDROOT
BRANCH   1   3
ATOM      3  C   UNL     1       4.396  -0.734  -0.779  0.00  0.00    -0.078 C 
BRANCH   3   5
ATOM      4  C   UNL     1       3.112  -2.773  -0.119  0.00  0.00    +0.002 C 
ATOM      5  C   UNL     1       3.060  -1.467  -0.914  0.00  0.00    -0.022 C 
ENDBRANCH   3   5
ENDBRANCH   1   3
BRANCH   1   6
ATOM      6  C   UNL     1       5.643   1.102  -1.748  0.00  0.00    +0.020 C 
BRANCH   6   7
ATOM      7  C   UNL     1       6.308   0.223  -2.775  0.00  0.00    +0.201 C 
ATOM      8  O   UNL     1       5.726  -0.748  -3.211  0.00  0.00    -0.278 OA
ATOM      9  N   UNL     1       7.550   0.515  -3.211  0.00  0.00    -0.285 N 
ATOM     10  H   UNL     1       7.991   1.324  -2.908  0.00  0.00    +0.155 HD
BRANCH   9  11
ATOM     11  C   UNL     1       8.202  -0.349  -4.100  0.00  0.00    +0.072 A 
ATOM     12  C   UNL     1       7.473  -1.038  -5.060  0.00  0.00    +0.029 A 
ATOM     13  C   UNL     1       8.117  -1.887  -5.940  0.00  0.00    +0.043 A 
ATOM     14  C   UNL     1       9.489  -2.059  -5.860  0.00  0.00    +0.161 A 
ATOM     15  C   UNL     1      10.220  -1.377  -4.899  0.00  0.00    +0.195 A 
ATOM     16  C   UNL     1       9.579  -0.522  -4.019  0.00  0.00    +0.182 A 
ATOM     17  F   UNL     1      10.290   0.144  -3.083  0.00  0.00    -0.200 F 
ATOM     18  F   UNL     1      11.558  -1.547  -4.822  0.00  0.00    -0.199 F 
ATOM     19  F   UNL     1      10.115  -2.893  -6.718  0.00  0.00    -0.202 F 
ENDBRANCH   9  11
ENDBRANCH   6   7
ENDBRANCH   1   6
BRANCH   1  20
ATOM     20  C   UNL     1       3.538   1.525  -0.629  0.00  0.00    +0.019 C 
BRANCH  20  21
ATOM     21  C   UNL     1       3.049   2.652  -1.503  0.00  0.00    +0.197 C 
ATOM     22  O   UNL     1       3.385   2.707  -2.667  0.00  0.00    -0.278 OA
ATOM     23  N   UNL     1       2.237   3.598  -0.991  0.00  0.00    -0.310 N 
ATOM     24  H   UNL     1       1.968   3.554  -0.060  0.00  0.00    +0.149 HD
BRANCH  23  25
ATOM     25  C   UNL     1       1.762   4.694  -1.840  0.00  0.00    +0.101 C 
ATOM     26  C   UNL     1       2.807   5.811  -1.864  0.00  0.00    +0.033 C 
BRANCH  25  27
ATOM     27  C   UNL     1       0.466   5.230  -1.289  0.00  0.00    -0.009 A 
ATOM     28  C   UNL     1       0.170   5.079   0.053  0.00  0.00    +0.007 A 
ATOM     29  C   UNL     1      -1.017   5.575   0.559  0.00  0.00    +0.000 A 
ATOM     30  C   UNL     1      -1.913   6.214  -0.278  0.00  0.00    +0.001 A 
ATOM     31  C   UNL     1      -1.620   6.361  -1.620  0.00  0.00    +0.020 A 
ATOM     32  C   UNL     1      -0.430   5.869  -2.127  0.00  0.00    +0.046 A 
ATOM     33 CL   UNL     1      -0.062   6.053  -3.813  0.00  0.00    -0.083 Cl
ENDBRANCH  25  27
ENDBRANCH  23  25
ENDBRANCH  20  21
ENDBRANCH   1  20
TORSDOF 9
