REMARK  Name = ZINC15401561
REMARK  4 active torsions:
REMARK  status: ('A' for Active; 'I' for Inactive)
REMARK    1  A    between atoms: C_4  and  C_7
REMARK    2  A    between atoms: C_7  and  N_8
REMARK    3  A    between atoms: C_19  and  C_20
REMARK    4  A    between atoms: C_24  and  N_26
REMARK                            x       y       z     vdW  Elec       q    Type
REMARK                         _______ _______ _______ _____ _____    ______ ____
ROOT
ATOM      1  N   UNL     1      -2.676  -0.223   0.652  0.00  0.00    -0.295 NA
ATOM      2  C   UNL     1      -1.755  -0.855   1.605  0.00  0.00    +0.103 C 
ATOM      3  C   UNL     1      -2.328  -0.735   3.021  0.00  0.00    +0.122 C 
ATOM      4  N   UNL     1      -3.694  -1.282   3.020  0.00  0.00    -0.309 N 
ATOM      5  C   UNL     1      -4.637  -0.795   2.002  0.00  0.00    +0.122 C 
ATOM      6  C   UNL     1      -3.973  -0.913   0.627  0.00  0.00    +0.103 C 
ATOM      7  C   UNL     1      -4.076  -2.219   3.942  0.00  0.00    +0.154 C 
ATOM      8  N   UNL     1      -5.254  -2.807   4.076  0.00  0.00    -0.154 NA
ATOM      9  C   UNL     1      -5.496  -3.699   5.010  0.00  0.00    +0.276 C 
ATOM     10  O   UNL     1      -6.587  -4.234   5.124  0.00  0.00    -0.267 OA
ATOM     11  C   UNL     1      -4.368  -4.020   5.920  0.00  0.00    +0.079 C 
ATOM     12  C   UNL     1      -4.312  -4.884   6.962  0.00  0.00    +0.028 C 
ATOM     13  S   UNL     1      -3.102  -2.950   5.249  0.00  0.00    -0.052 S 
ENDROOT
BRANCH  12  14
ATOM     14  C   UNL     1      -5.539  -5.534   7.445  0.00  0.00    -0.022 A 
ATOM     15  C   UNL     1      -5.509  -6.869   7.866  0.00  0.00    +0.008 A 
ATOM     16  C   UNL     1      -6.664  -7.471   8.318  0.00  0.00    +0.003 A 
ATOM     17  C   UNL     1      -7.851  -6.759   8.355  0.00  0.00    +0.033 A 
ATOM     18  C   UNL     1      -7.889  -5.439   7.941  0.00  0.00    +0.127 A 
ATOM     19  C   UNL     1      -6.742  -4.821   7.491  0.00  0.00    +0.040 A 
BRANCH  18  20
ATOM     20  N   UNL     1      -9.164  -4.688   7.985  0.00  0.00    +0.056 N 
ATOM     21  O   UNL     1     -10.177  -5.232   8.386  0.00  0.00    -0.126 OA
ATOM     22  O   UNL     1      -9.199  -3.526   7.621  0.00  0.00    -0.126 OA
ENDBRANCH  18  20
ENDBRANCH  12  14
BRANCH   1  23
ATOM     23  C   UNL     1      -2.085  -0.164  -0.692  0.00  0.00    +0.119 C 
BRANCH  23  27
ATOM     24  C   UNL     1       1.303   2.436  -0.650  0.00  0.00    +0.000 A 
ATOM     25  C   UNL     1       1.463   1.089  -0.387  0.00  0.00    +0.000 A 
ATOM     26  C   UNL     1       0.366   0.248  -0.396  0.00  0.00    +0.005 A 
ATOM     27  C   UNL     1      -0.890   0.754  -0.675  0.00  0.00    -0.033 A 
ATOM     28  C   UNL     1      -1.050   2.102  -0.933  0.00  0.00    +0.005 A 
ATOM     29  C   UNL     1       0.047   2.943  -0.923  0.00  0.00    +0.000 A 
ENDBRANCH  23  27
ENDBRANCH   1  23
TORSDOF 4
