REMARK  Name = ZINC44076433
REMARK  4 active torsions:
REMARK  status: ('A' for Active; 'I' for Inactive)
REMARK    1  A    between atoms: C_1  and  S_2
REMARK    2  A    between atoms: S_2  and  C_3
REMARK    3  A    between atoms: C_7  and  C_9
REMARK    4  A    between atoms: N_15  and  C_23
REMARK                            x       y       z     vdW  Elec       q    Type
REMARK                         _______ _______ _______ _____ _____    ______ ____
ROOT
ATOM      1  C   UNL     1       1.948  -3.509  -3.359  0.00  0.00    -0.036 C 
ATOM      2  C   UNL     1       3.395  -3.926  -3.044  0.00  0.00    -0.007 C 
ATOM      3  C   UNL     1       3.839  -4.754  -4.266  0.00  0.00    +0.004 C 
ATOM      4  C   UNL     1       5.265  -4.326  -4.675  0.00  0.00    +0.116 C 
ATOM      5  N   UNL     1       5.098  -3.176  -5.571  0.00  0.00    -0.272 N 
ATOM      6  C   UNL     1       3.833  -3.086  -6.021  0.00  0.00    +0.210 C 
ATOM      7  O   UNL     1       3.432  -2.247  -6.800  0.00  0.00    -0.277 OA
ATOM      8  C   UNL     1       2.972  -4.191  -5.415  0.00  0.00    +0.018 C 
ATOM      9  N   UNL     1       1.735  -3.670  -4.808  0.00  0.00    +0.394 N 
ATOM     10  C   UNL     1       0.705  -4.722  -5.018  0.00  0.00    -0.077 C 
ATOM     11  C   UNL     1       1.050  -5.310  -6.408  0.00  0.00    -0.019 C 
ATOM     12  C   UNL     1       2.598  -5.274  -6.425  0.00  0.00    -0.004 C 
ATOM     13  H   UNL     1       1.466  -2.795  -5.232  0.00  0.00    -0.079 HD
ENDROOT
BRANCH   1  18
ATOM     14  C   UNL     1       0.887  -0.434  -1.434  0.00  0.00    +0.008 A 
ATOM     15  C   UNL     1       1.350   0.582  -2.262  0.00  0.00    +0.015 A 
ATOM     16  C   UNL     1       2.003   0.267  -3.438  0.00  0.00    +0.001 A 
ATOM     17  C   UNL     1       2.197  -1.056  -3.791  0.00  0.00    +0.002 A 
ATOM     18  C   UNL     1       1.736  -2.069  -2.969  0.00  0.00    -0.060 A 
ATOM     19  C   UNL     1       1.088  -1.762  -1.789  0.00  0.00    +0.016 A 
BRANCH  14  21
ATOM     20  C   UNL     1       0.033   1.776   0.092  0.00  0.00    +0.090 C 
ATOM     21  S   UNL     1       0.053  -0.037   0.067  0.00  0.00    -0.129 S 
ENDBRANCH  14  21
ENDBRANCH   1  18
BRANCH   5  22
ATOM     22  C   UNL     1       6.122  -2.287  -5.913  0.00  0.00    +0.036 A 
ATOM     23  C   UNL     1       7.369  -2.396  -5.310  0.00  0.00    +0.023 A 
ATOM     24  C   UNL     1       8.378  -1.517  -5.650  0.00  0.00    +0.002 A 
ATOM     25  C   UNL     1       8.149  -0.528  -6.589  0.00  0.00    +0.000 A 
ATOM     26  C   UNL     1       6.909  -0.416  -7.191  0.00  0.00    +0.002 A 
ATOM     27  C   UNL     1       5.897  -1.296  -6.860  0.00  0.00    +0.023 A 
ENDBRANCH   5  22
TORSDOF 3
