REMARK  Name = ZINC67006503
REMARK  5 active torsions:
REMARK  status: ('A' for Active; 'I' for Inactive)
REMARK    1  A    between atoms: N_13  and  C_17
REMARK    2  A    between atoms: C_17  and  C_18
REMARK    3  A    between atoms: C_18  and  O_19
REMARK    4  A    between atoms: O_19  and  C_20
REMARK    5  A    between atoms: C_23  and  N_26
REMARK                            x       y       z     vdW  Elec       q    Type
REMARK                         _______ _______ _______ _____ _____    ______ ____
ROOT
ATOM      1  C   UNL     1      -0.017   1.375   0.010  0.00  0.00    +0.000 A 
ATOM      2  C   UNL     1       1.174   2.078   0.002  0.00  0.00    +0.000 A 
ATOM      3  C   UNL     1       2.372   1.395  -0.016  0.00  0.00    +0.004 A 
ATOM      4  C   UNL     1       2.393   0.006  -0.026  0.00  0.00    -0.042 A 
ATOM      5  C   UNL     1       1.208  -0.695  -0.013  0.00  0.00    -0.044 A 
ATOM      6  C   UNL     1       0.002  -0.004   0.002  0.00  0.00    +0.004 A 
ATOM      7  C   UNL     1       1.151  -2.200  -0.006  0.00  0.00    +0.038 C 
ATOM      8  C   UNL     1       2.482  -2.790  -0.470  0.00  0.00    +0.040 C 
ATOM      9  C   UNL     1       3.607  -2.140   0.333  0.00  0.00    +0.117 C 
ATOM     10  C   UNL     1       3.737  -0.675  -0.056  0.00  0.00    +0.070 C 
ATOM     11  C   UNL     1       4.908  -2.873   0.108  0.00  0.00    +0.247 C 
ATOM     12  O   UNL     1       5.500  -3.014  -0.941  0.00  0.00    -0.273 OA
ATOM     13  N   UNL     1       5.272  -3.338   1.321  0.00  0.00    -0.221 N 
ATOM     14  C   UNL     1       4.386  -2.998   2.266  0.00  0.00    +0.309 C 
ATOM     15  O   UNL     1       4.497  -3.304   3.437  0.00  0.00    -0.252 OA
ATOM     16  N   UNL     1       3.359  -2.281   1.772  0.00  0.00    -0.285 N 
ATOM     17  H   UNL     1       2.605  -1.927   2.269  0.00  0.00    +0.151 HD
ENDROOT
BRANCH  13  18
ATOM     18  C   UNL     1       6.487  -4.118   1.573  0.00  0.00    +0.159 C 
BRANCH  18  19
ATOM     19  C   UNL     1       7.641  -3.171   1.908  0.00  0.00    +0.248 C 
BRANCH  19  20
ATOM     20  O   UNL     1       7.362  -2.497   3.137  0.00  0.00    -0.490 OA
BRANCH  20  21
ATOM     21  C   UNL     1       8.294  -1.613   3.581  0.00  0.00    +0.121 A 
ATOM     22  C   UNL     1       9.450  -1.395   2.846  0.00  0.00    +0.048 A 
ATOM     23  C   UNL     1      10.396  -0.496   3.299  0.00  0.00    +0.036 A 
ATOM     24  C   UNL     1      10.191   0.187   4.484  0.00  0.00    +0.126 A 
ATOM     25  C   UNL     1       9.040  -0.029   5.218  0.00  0.00    +0.036 A 
ATOM     26  C   UNL     1       8.089  -0.924   4.767  0.00  0.00    +0.048 A 
BRANCH  24  27
ATOM     27  N   UNL     1      11.206   1.150   4.966  0.00  0.00    +0.056 N 
ATOM     28  O   UNL     1      12.213   1.339   4.325  0.00  0.00    -0.126 OA
ATOM     29  O   UNL     1      11.028   1.747   6.003  0.00  0.00    -0.126 OA
ENDBRANCH  24  27
ENDBRANCH  20  21
ENDBRANCH  19  20
ENDBRANCH  18  19
ENDBRANCH  13  18
TORSDOF 5
