REMARK  Name = ZINC35674423
REMARK  12 active torsions:
REMARK  status: ('A' for Active; 'I' for Inactive)
REMARK    1  A    between atoms: C_1  and  C_2
REMARK    2  A    between atoms: C_2  and  C_3
REMARK    3  A    between atoms: C_3  and  C_5
REMARK    4  A    between atoms: C_3  and  N_28
REMARK    5  A    between atoms: C_9  and  O_26
REMARK    6  A    between atoms: C_10  and  O_24
REMARK    7  A    between atoms: N_15  and  C_16
REMARK    8  A    between atoms: C_16  and  C_17
REMARK    9  A    between atoms: C_22  and  C_23
REMARK   10  A    between atoms: O_24  and  C_25
REMARK   11  A    between atoms: O_26  and  C_27
REMARK   12  A    between atoms: C_29  and  C_31
REMARK                            x       y       z     vdW  Elec       q    Type
REMARK                         _______ _______ _______ _____ _____    ______ ____
ROOT
ATOM      1  C   UNL     1       1.047  -1.925  -1.388  0.00  0.00    -0.016 C 
ATOM      2  C   UNL     1       1.930  -2.484  -0.303  0.00  0.00    -0.052 A 
ATOM      3  C   UNL     1       1.853  -1.926   0.965  0.00  0.00    +0.051 A 
ATOM      4  C   UNL     1       2.643  -2.410   1.992  0.00  0.00    +0.162 A 
ATOM      5  C   UNL     1       3.521  -3.463   1.750  0.00  0.00    +0.162 A 
ATOM      6  C   UNL     1       3.597  -4.015   0.483  0.00  0.00    +0.053 A 
ATOM      7  C   UNL     1       2.802  -3.525  -0.542  0.00  0.00    -0.044 A 
ATOM      8  C   UNL     1       2.922  -4.151  -1.909  0.00  0.00    +0.017 C 
ATOM      9  C   UNL     1       1.716  -3.761  -2.764  0.00  0.00    -0.073 C 
ATOM     10  N   UNL     1       1.556  -2.300  -2.710  0.00  0.00    +0.388 N 
ATOM     11  H   UNL     1       2.448  -1.856  -2.867  0.00  0.00    -0.080 HD
ENDROOT
BRANCH   5  12
ATOM     12  O   UNL     1       4.302  -3.946   2.753  0.00  0.00    -0.491 OA
ATOM     13  C   UNL     1       5.179  -5.027   2.430  0.00  0.00    +0.277 C 
ENDBRANCH   5  12
BRANCH   4  14
ATOM     14  O   UNL     1       2.562  -1.860   3.233  0.00  0.00    -0.491 OA
ATOM     15  C   UNL     1       1.726  -0.711   3.380  0.00  0.00    +0.277 C 
ENDBRANCH   4  14
BRANCH   1  16
ATOM     16  C   UNL     1       1.013  -0.400  -1.275  0.00  0.00    +0.064 C 
BRANCH  16  17
ATOM     17  N   UNL     1       0.361  -0.018  -0.019  0.00  0.00    -0.309 N 
ATOM     18  C   UNL     1      -0.968  -0.191   0.130  0.00  0.00    +0.251 C 
ATOM     19  O   UNL     1      -1.613  -0.733  -0.748  0.00  0.00    -0.270 OA
ATOM     20  H   UNL     1       0.885   0.360   0.704  0.00  0.00    +0.149 HD
BRANCH  18  21
ATOM     21  C   UNL     1      -1.635   0.273   1.350  0.00  0.00    +0.074 A 
ATOM     22  C   UNL     1      -2.971   0.175   1.706  0.00  0.00    +0.021 A 
ATOM     23  C   UNL     1      -3.303   0.709   2.929  0.00  0.00    +0.008 A 
ATOM     24  C   UNL     1      -2.333   1.279   3.685  0.00  0.00    +0.046 A 
ATOM     25  S   UNL     1      -0.938   1.103   2.765  0.00  0.00    -0.092 S 
ENDBRANCH  18  21
ENDBRANCH  16  17
BRANCH  16  27
ATOM     26  C   UNL     1       2.405   1.675  -1.276  0.00  0.00    +0.005 C 
ATOM     27  C   UNL     1       2.442   0.145  -1.293  0.00  0.00    +0.017 C 
ENDBRANCH  16  27
ENDBRANCH   1  16
BRANCH  10  28
ATOM     28  C   UNL     1       0.603  -1.872  -3.743  0.00  0.00    -0.042 C 
BRANCH  28  29
ATOM     29  C   UNL     1       1.176  -2.163  -5.106  0.00  0.00    -0.061 A 
ATOM     30  C   UNL     1       2.002  -1.240  -5.720  0.00  0.00    +0.002 A 
ATOM     31  C   UNL     1       2.527  -1.506  -6.970  0.00  0.00    +0.000 A 
ATOM     32  C   UNL     1       2.227  -2.696  -7.607  0.00  0.00    +0.000 A 
ATOM     33  C   UNL     1       1.401  -3.619  -6.993  0.00  0.00    +0.003 A 
ATOM     34  C   UNL     1       0.879  -3.354  -5.741  0.00  0.00    -0.049 A 
ATOM     35  C   UNL     1      -0.016  -4.363  -5.069  0.00  0.00    +0.044 C 
ENDBRANCH  28  29
ENDBRANCH  10  28
TORSDOF 8
