REMARK  Name = ZINC23448938
REMARK  8 active torsions:
REMARK  status: ('A' for Active; 'I' for Inactive)
REMARK    1  A    between atoms: C_1  and  C_2
REMARK    2  A    between atoms: C_2  and  C_3
REMARK    3  A    between atoms: C_2  and  N_4
REMARK    4  A    between atoms: C_8  and  S_22
REMARK    5  A    between atoms: C_12  and  S_13
REMARK    6  A    between atoms: S_13  and  C_14
REMARK    7  A    between atoms: C_14  and  C_15
REMARK    8  A    between atoms: S_22  and  N_25
REMARK                            x       y       z     vdW  Elec       q    Type
REMARK                         _______ _______ _______ _____ _____    ______ ____
ROOT
ATOM      1  N   UNL     1      -3.191   2.771   4.783  0.00  0.00    -0.316 N 
ATOM      2  C   UNL     1      -2.345   2.684   3.689  0.00  0.00    +0.070 A 
ATOM      3  C   UNL     1      -1.420   3.545   3.118  0.00  0.00    +0.030 A 
ATOM      4  C   UNL     1      -0.712   3.150   2.002  0.00  0.00    +0.030 A 
ATOM      5  C   UNL     1      -0.927   1.900   1.439  0.00  0.00    +0.108 A 
ATOM      6  C   UNL     1      -1.841   1.032   1.993  0.00  0.00    +0.058 A 
ATOM      7  C   UNL     1      -2.562   1.415   3.127  0.00  0.00    +0.092 A 
ATOM      8  N   UNL     1      -3.507   0.798   3.884  0.00  0.00    -0.222 NA
ATOM      9  C   UNL     1      -3.879   1.593   4.858  0.00  0.00    +0.170 A 
ENDROOT
BRANCH   1  11
ATOM     10  C   UNL     1      -4.761   4.430   5.656  0.00  0.00    +0.030 C 
ATOM     11  C   UNL     1      -3.322   3.913   5.691  0.00  0.00    +0.084 C 
ATOM     12  C   UNL     1      -2.972   3.476   7.115  0.00  0.00    +0.030 C 
ENDBRANCH   1  11
BRANCH   5  13
ATOM     13  S   UNL     1      -0.017   1.417   0.010  0.00  0.00    +0.061 S 
ATOM     14  O   UNL     1       0.002  -0.004   0.002  0.00  0.00    -0.153 OA
ATOM     15  O   UNL     1       1.172   2.195   0.003  0.00  0.00    -0.153 OA
BRANCH  13  16
ATOM     16  N   UNL     1      -0.897   1.885  -1.312  0.00  0.00    -0.177 NA
ATOM     17  C   UNL     1      -1.909   1.071  -2.000  0.00  0.00    +0.109 C 
ATOM     18  C   UNL     1      -2.444   1.906  -3.183  0.00  0.00    +0.018 C 
ATOM     19  C   UNL     1      -1.295   2.918  -3.438  0.00  0.00    +0.018 C 
ATOM     20  C   UNL     1      -0.792   3.186  -1.998  0.00  0.00    +0.109 C 
ENDBRANCH  13  16
ENDBRANCH   5  13
BRANCH   9  21
ATOM     21  S   UNL     1      -5.086   1.201   6.080  0.00  0.00    -0.083 S 
BRANCH  21  22
ATOM     22  C   UNL     1      -5.541  -0.468   5.549  0.00  0.00    +0.112 C 
BRANCH  22  23
ATOM     23  C   UNL     1      -6.592  -1.022   6.476  0.00  0.00    -0.036 A 
ATOM     24  C   UNL     1      -7.932  -0.819   6.201  0.00  0.00    +0.004 A 
ATOM     25  C   UNL     1      -8.897  -1.327   7.051  0.00  0.00    +0.001 A 
ATOM     26  C   UNL     1      -8.522  -2.037   8.176  0.00  0.00    +0.015 A 
ATOM     27  C   UNL     1      -7.182  -2.240   8.451  0.00  0.00    +0.018 A 
ATOM     28  C   UNL     1      -6.217  -1.736   7.598  0.00  0.00    +0.019 A 
ATOM     29 BR   UNL     1      -6.670  -3.212   9.990  0.00  0.00    -0.050 Br
ENDBRANCH  22  23
ENDBRANCH  21  22
ENDBRANCH   9  21
TORSDOF 6
