REMARK  Name = ZINC05824104
REMARK  6 active torsions:
REMARK  status: ('A' for Active; 'I' for Inactive)
REMARK    1  A    between atoms: C_1  and  C_2
REMARK    2  A    between atoms: C_2  and  C_3
REMARK    3  A    between atoms: C_5  and  N_23
REMARK    4  A    between atoms: N_23  and  N_24
REMARK    5  A    between atoms: C_25  and  O_27
REMARK    6  A    between atoms: O_27  and  C_28
REMARK                            x       y       z     vdW  Elec       q    Type
REMARK                         _______ _______ _______ _____ _____    ______ ____
ROOT
ATOM      1  C   UNL     1       0.742  -0.511   1.242  0.00  0.00    +0.010 C 
ATOM      2  C   UNL     1      -0.044  -0.023   2.455  0.00  0.00    +0.066 C 
ATOM      3  C   UNL     1      -0.588  -1.192   3.201  0.00  0.00    +0.046 C 
ATOM      4  C   UNL     1      -0.130  -1.679   4.417  0.00  0.00    +0.062 C 
ATOM      5  C   UNL     1       0.459  -2.961   4.536  0.00  0.00    -0.005 C 
ATOM      6  C   UNL     1       0.768  -3.133   5.866  0.00  0.00    +0.004 A 
ATOM      7  C   UNL     1       1.334  -4.190   6.607  0.00  0.00    +0.010 A 
ATOM      8  C   UNL     1       1.488  -3.981   7.949  0.00  0.00    +0.001 A 
ATOM      9  C   UNL     1       1.119  -2.798   8.583  0.00  0.00    +0.002 A 
ATOM     10  C   UNL     1       0.567  -1.734   7.930  0.00  0.00    +0.026 A 
ATOM     11  C   UNL     1       0.372  -1.873   6.539  0.00  0.00    +0.047 A 
ATOM     12  N   UNL     1      -0.124  -1.081   5.618  0.00  0.00    -0.353 N 
ATOM     13  C   UNL     1       0.717  -3.908   3.395  0.00  0.00    +0.133 C 
ATOM     14  C   UNL     1       1.983  -3.502   2.690  0.00  0.00    +0.220 C 
ATOM     15  O   UNL     1       3.033  -4.016   3.011  0.00  0.00    -0.275 OA
ATOM     16  N   UNL     1       1.972  -2.580   1.710  0.00  0.00    -0.297 N 
ATOM     17  C   UNL     1       0.728  -2.030   1.174  0.00  0.00    +0.119 C 
ATOM     18  C   UNL     1       3.249  -2.094   1.167  0.00  0.00    +0.134 C 
ATOM     19  C   UNL     1       3.217  -0.589   1.155  0.00  0.00    -0.012 C 
ATOM     20  C   UNL     1       2.107   0.077   1.202  0.00  0.00    -0.021 C 
ATOM     21  H   UNL     1      -0.444  -0.180   5.783  0.00  0.00    +0.166 HD
ENDROOT
BRANCH   1  23
ATOM     22  C   UNL     1      -0.019   1.526   0.010  0.00  0.00    +0.005 C 
ATOM     23  C   UNL     1       0.002  -0.004   0.002  0.00  0.00    +0.009 C 
ENDBRANCH   1  23
BRANCH   3  24
ATOM     24  N   UNL     1      -1.621  -1.835   2.643  0.00  0.00    -0.264 N 
ATOM     25  H   UNL     1      -1.979  -1.534   1.794  0.00  0.00    +0.170 HD
BRANCH  24  26
ATOM     26  N   UNL     1      -2.185  -2.944   3.287  0.00  0.00    -0.202 N 
ATOM     27  C   UNL     1      -3.225  -3.592   2.726  0.00  0.00    +0.416 C 
ATOM     28  O   UNL     1      -3.715  -4.554   3.285  0.00  0.00    -0.225 OA
ATOM     29  H   UNL     1      -1.827  -3.246   4.137  0.00  0.00    +0.176 HD
BRANCH  27  30
ATOM     30  O   UNL     1      -3.722  -3.174   1.547  0.00  0.00    -0.453 OA
ATOM     31  C   UNL     1      -4.825  -3.907   1.010  0.00  0.00    +0.282 C 
ENDBRANCH  27  30
ENDBRANCH  24  26
ENDBRANCH   3  24
TORSDOF 4
