REMARK  Name = ZINC10042125
REMARK  9 active torsions:
REMARK  status: ('A' for Active; 'I' for Inactive)
REMARK    1  A    between atoms: C_1  and  C_2
REMARK    2  A    between atoms: C_2  and  C_3
REMARK    3  A    between atoms: C_2  and  C_4
REMARK    4  A    between atoms: C_4  and  C_6
REMARK    5  A    between atoms: C_4  and  N_19
REMARK    6  A    between atoms: N_8  and  N_9
REMARK    7  A    between atoms: C_10  and  C_11
REMARK    8  A    between atoms: C_16  and  O_17
REMARK    9  A    between atoms: C_20  and  C_22
REMARK                            x       y       z     vdW  Elec       q    Type
REMARK                         _______ _______ _______ _____ _____    ______ ____
ROOT
ATOM      1  C   UNL     1       2.236   5.767  -0.122  0.00  0.00    +0.163 C 
ENDROOT
BRANCH   1   2
ATOM      2  C   UNL     1       2.235   4.261  -0.062  0.00  0.00    +0.253 C 
ATOM      3  O   UNL     1       3.189   3.672   0.402  0.00  0.00    -0.272 OA
ATOM      4  N   UNL     1       1.174   3.569  -0.522  0.00  0.00    -0.205 N 
ATOM      5  H   UNL     1       0.382   4.040  -0.825  0.00  0.00    +0.177 HD
BRANCH   4   6
ATOM      6  N   UNL     1       1.216   2.169  -0.564  0.00  0.00    -0.188 NA
ATOM      7  C   UNL     1       0.194   1.503  -1.008  0.00  0.00    +0.142 C 
BRANCH   7   8
ATOM      8  C   UNL     1       0.237   0.030  -1.052  0.00  0.00    +0.037 A 
ATOM      9  C   UNL     1      -0.862  -0.691  -1.523  0.00  0.00    +0.028 A 
ATOM     10  C   UNL     1      -0.813  -2.069  -1.566  0.00  0.00    +0.019 A 
ATOM     11  C   UNL     1       0.319  -2.741  -1.133  0.00  0.00    +0.019 A 
ATOM     12  C   UNL     1       1.410  -2.038  -0.660  0.00  0.00    +0.047 A 
ATOM     13  C   UNL     1       1.380  -0.654  -0.615  0.00  0.00    +0.126 A 
ATOM     14 BR   UNL     1      -2.299  -3.045  -2.211  0.00  0.00    -0.050 Br
BRANCH  13  15
ATOM     15  O   UNL     1       2.452   0.037  -0.150  0.00  0.00    -0.506 OA
ATOM     16  H   UNL     1       2.430   0.203   0.803  0.00  0.00    +0.292 HD
ENDBRANCH  13  15
ENDBRANCH   7   8
ENDBRANCH   4   6
ENDBRANCH   1   2
BRANCH   1  17
ATOM     17  N   UNL     1       3.614   6.249  -0.243  0.00  0.00    -0.300 N 
ATOM     18  C   UNL     1       3.861   7.449  -0.804  0.00  0.00    +0.246 C 
ATOM     19  O   UNL     1       2.941   8.131  -1.211  0.00  0.00    -0.270 OA
ATOM     20  H   UNL     1       4.349   5.705   0.081  0.00  0.00    +0.150 HD
BRANCH  18  21
ATOM     21  C   UNL     1       5.251   7.936  -0.926  0.00  0.00    +0.055 A 
ATOM     22  C   UNL     1       6.311   7.155  -0.460  0.00  0.00    +0.016 A 
ATOM     23  C   UNL     1       7.605   7.614  -0.576  0.00  0.00    +0.021 A 
ATOM     24  C   UNL     1       7.857   8.848  -1.153  0.00  0.00    +0.042 A 
ATOM     25  C   UNL     1       6.812   9.629  -1.617  0.00  0.00    +0.040 A 
ATOM     26  C   UNL     1       5.511   9.177  -1.513  0.00  0.00    +0.054 A 
ATOM     27 CL   UNL     1       4.201  10.153  -2.102  0.00  0.00    -0.083 Cl
ATOM     28 CL   UNL     1       9.490   9.419  -1.296  0.00  0.00    -0.083 Cl
ENDBRANCH  18  21
ENDBRANCH   1  17
BRANCH   1  30
ATOM     29  C   UNL     1       1.521   7.853   1.051  0.00  0.00    +0.009 C 
ATOM     30  C   UNL     1       1.609   6.329   1.155  0.00  0.00    +0.012 C 
ATOM     31  C   UNL     1       0.205   5.748   1.332  0.00  0.00    +0.009 C 
ENDBRANCH   1  30
TORSDOF 7
