REMARK  Name = ZINC10219833
REMARK  10 active torsions:
REMARK  status: ('A' for Active; 'I' for Inactive)
REMARK    1  A    between atoms: C_1  and  C_2
REMARK    2  A    between atoms: C_4  and  C_25
REMARK    3  A    between atoms: C_5  and  O_9
REMARK    4  A    between atoms: C_6  and  C_8
REMARK    5  A    between atoms: O_9  and  S_10
REMARK    6  A    between atoms: S_10  and  C_13
REMARK    7  A    between atoms: C_16  and  N_21
REMARK    8  A    between atoms: C_17  and  O_19
REMARK    9  A    between atoms: O_19  and  C_20
REMARK   10  A    between atoms: C_22  and  C_24
REMARK                            x       y       z     vdW  Elec       q    Type
REMARK                         _______ _______ _______ _____ _____    ______ ____
ROOT
ATOM      1  S   UNL     1       4.030  -0.994  -1.222  0.00  0.00    +0.151 S 
ATOM      2  O   UNL     1       5.058  -1.963  -1.069  0.00  0.00    -0.131 OA
ATOM      3  O   UNL     1       2.843  -1.252  -1.959  0.00  0.00    -0.131 OA
ENDROOT
BRANCH   1   4
ATOM      4  C   UNL     1       4.779   0.424  -1.953  0.00  0.00    +0.132 A 
ATOM      5  C   UNL     1       4.034   1.251  -2.774  0.00  0.00    +0.032 A 
ATOM      6  C   UNL     1       4.615   2.367  -3.346  0.00  0.00    +0.029 A 
ATOM      7  C   UNL     1       5.951   2.653  -3.107  0.00  0.00    +0.076 A 
ATOM      8  C   UNL     1       6.702   1.817  -2.284  0.00  0.00    +0.143 A 
ATOM      9  C   UNL     1       6.111   0.703  -1.710  0.00  0.00    +0.078 A 
BRANCH   7  10
ATOM     10  N   UNL     1       6.543   3.781  -3.690  0.00  0.00    -0.283 N 
ATOM     11  C   UNL     1       6.050   4.283  -4.839  0.00  0.00    +0.214 C 
ATOM     12  O   UNL     1       5.046   3.807  -5.327  0.00  0.00    -0.276 OA
ATOM     13  C   UNL     1       6.745   5.435  -5.518  0.00  0.00    +0.109 C 
ATOM     14  H   UNL     1       7.308   4.201  -3.266  0.00  0.00    +0.155 HD
ENDBRANCH   7  10
BRANCH   8  15
ATOM     15  O   UNL     1       8.012   2.092  -2.045  0.00  0.00    -0.493 OA
ATOM     16  C   UNL     1       8.719   1.191  -1.192  0.00  0.00    +0.277 C 
ENDBRANCH   8  15
ENDBRANCH   1   4
BRANCH   1  17
ATOM     17  O   UNL     1       3.593  -0.598   0.181  0.00  0.00    -0.342 OA
BRANCH  17  22
ATOM     18  C   UNL     1      -1.046   2.592   0.318  0.00  0.00    +0.044 C 
ATOM     19  C   UNL     1       0.195   1.738   0.286  0.00  0.00    -0.050 A 
ATOM     20  C   UNL     1       1.442   2.332   0.339  0.00  0.00    +0.010 A 
ATOM     21  C   UNL     1       2.582   1.552   0.304  0.00  0.00    -0.005 A 
ATOM     22  C   UNL     1       2.474   0.171   0.215  0.00  0.00    +0.163 A 
ATOM     23  C   UNL     1       1.221  -0.422   0.162  0.00  0.00    -0.005 A 
ATOM     24  C   UNL     1       0.084   0.363   0.198  0.00  0.00    +0.010 A 
ATOM     25  C   UNL     1       1.100  -1.921   0.066  0.00  0.00    +0.047 C 
ATOM     26  C   UNL     1       3.941   2.199   0.363  0.00  0.00    +0.047 C 
ENDBRANCH  17  22
ENDBRANCH   1  17
TORSDOF 5
