REMARK  Name = ZINC34758019
REMARK  7 active torsions:
REMARK  status: ('A' for Active; 'I' for Inactive)
REMARK    1  A    between atoms: C_1  and  C_2
REMARK    2  A    between atoms: C_7  and  N_8
REMARK    3  A    between atoms: C_9  and  C_11
REMARK    4  A    between atoms: C_11  and  S_12
REMARK    5  A    between atoms: S_12  and  C_13
REMARK    6  A    between atoms: N_28  and  C_31
REMARK    7  A    between atoms: C_31  and  C_32
REMARK                            x       y       z     vdW  Elec       q    Type
REMARK                         _______ _______ _______ _____ _____    ______ ____
ROOT
ATOM      1  C   UNL     1      -0.383  -0.118   7.687  0.00  0.00    +0.191 A 
ATOM      2  N   UNL     1      -0.464  -0.689   8.883  0.00  0.00    -0.206 NA
ATOM      3  C   UNL     1      -0.560   0.020   9.995  0.00  0.00    +0.134 A 
ATOM      4  C   UNL     1      -0.578   1.440   9.911  0.00  0.00    +0.051 A 
ATOM      5  C   UNL     1      -0.677   2.419  11.007  0.00  0.00    -0.025 A 
ATOM      6  C   UNL     1      -0.675   3.717  10.664  0.00  0.00    -0.004 A 
ATOM      7  S   UNL     1      -0.539   3.726   8.891  0.00  0.00    -0.073 S 
ATOM      8  C   UNL     1      -0.489   1.977   8.615  0.00  0.00    +0.115 A 
ATOM      9  N   UNL     1      -0.391   1.201   7.551  0.00  0.00    -0.214 NA
ATOM     10  C   UNL     1      -0.786   4.622  11.862  0.00  0.00    +0.043 C 
ATOM     11  C   UNL     1      -1.294   3.704  12.995  0.00  0.00    +0.010 C 
ATOM     12  C   UNL     1      -0.786   2.325  12.532  0.00  0.00    +0.037 C 
ATOM     13  N   UNL     1      -0.642  -0.610  11.224  0.00  0.00    -0.318 N 
ATOM     14  C   UNL     1      -1.934  -1.079  11.748  0.00  0.00    +0.088 C 
ATOM     15  C   UNL     1      -1.779  -2.540  12.184  0.00  0.00    -0.059 C 
ATOM     16  N   UNL     1      -0.663  -2.651  13.132  0.00  0.00    +0.384 N 
ATOM     17  C   UNL     1       0.597  -2.303  12.464  0.00  0.00    -0.059 C 
ATOM     18  C   UNL     1       0.561  -0.836  12.040  0.00  0.00    +0.088 C 
ATOM     19  H   UNL     1      -0.818  -2.023  13.906  0.00  0.00    -0.081 HD
ENDROOT
BRANCH   1  20
ATOM     20  S   UNL     1      -0.257  -1.133   6.252  0.00  0.00    -0.077 S 
BRANCH  20  21
ATOM     21  C   UNL     1      -0.167   0.052   4.882  0.00  0.00    +0.173 C 
BRANCH  21  23
ATOM     22  N   UNL     1       0.027  -0.015   2.417  0.00  0.00    -0.285 N 
ATOM     23  C   UNL     1      -0.054  -0.694   3.578  0.00  0.00    +0.227 C 
ATOM     24  O   UNL     1      -0.037  -1.907   3.573  0.00  0.00    -0.275 OA
ATOM     25  H   UNL     1       0.079   0.954   2.425  0.00  0.00    +0.155 HD
BRANCH  22  32
ATOM     26  C   UNL     1      -1.262   1.183   0.181  0.00  0.00    +0.045 C 
ATOM     27  C   UNL     1      -0.581  -0.158   0.084  0.00  0.00    -0.029 A 
ATOM     28  C   UNL     1      -0.565  -0.840  -1.117  0.00  0.00    +0.005 A 
ATOM     29  C   UNL     1       0.059  -2.071  -1.206  0.00  0.00    +0.000 A 
ATOM     30  C   UNL     1       0.670  -2.622  -0.095  0.00  0.00    +0.002 A 
ATOM     31  C   UNL     1       0.658  -1.944   1.109  0.00  0.00    +0.023 A 
ATOM     32  C   UNL     1       0.036  -0.706   1.201  0.00  0.00    +0.036 A 
ENDBRANCH  22  32
ENDBRANCH  21  23
ENDBRANCH  20  21
ENDBRANCH   1  20
BRANCH  16  33
ATOM     33  C   UNL     1      -0.585  -4.030  13.633  0.00  0.00    -0.043 C 
BRANCH  33  34
ATOM     34  C   UNL     1       0.479  -4.118  14.697  0.00  0.00    -0.064 A 
ATOM     35  C   UNL     1       1.784  -4.412  14.346  0.00  0.00    +0.002 A 
ATOM     36  C   UNL     1       2.760  -4.492  15.322  0.00  0.00    +0.000 A 
ATOM     37  C   UNL     1       2.431  -4.280  16.648  0.00  0.00    +0.000 A 
ATOM     38  C   UNL     1       1.127  -3.986  16.998  0.00  0.00    +0.000 A 
ATOM     39  C   UNL     1       0.151  -3.901  16.022  0.00  0.00    +0.002 A 
ENDBRANCH  33  34
ENDBRANCH  16  33
TORSDOF 6
