REMARK  Name = ZINC58744819
REMARK  8 active torsions:
REMARK  status: ('A' for Active; 'I' for Inactive)
REMARK    1  A    between atoms: C_1  and  C_2
REMARK    2  A    between atoms: C_2  and  C_3
REMARK    3  A    between atoms: C_2  and  C_4
REMARK    4  A    between atoms: C_2  and  C_5
REMARK    5  A    between atoms: C_12  and  C_14
REMARK    6  A    between atoms: N_16  and  C_17
REMARK    7  A    between atoms: C_21  and  C_23
REMARK    8  A    between atoms: C_23  and  N_24
REMARK                            x       y       z     vdW  Elec       q    Type
REMARK                         _______ _______ _______ _____ _____    ______ ____
ROOT
ATOM      1  C   UNL     1       5.893  -0.434  -4.730  0.00  0.00    +0.255 C 
ATOM      2  O   UNL     1       6.540   0.553  -4.436  0.00  0.00    -0.269 OA
ATOM      3  N   UNL     1       6.300  -1.232  -5.737  0.00  0.00    -0.281 N 
ATOM      4  H   UNL     1       5.823  -2.054  -5.928  0.00  0.00    +0.155 HD
ENDROOT
BRANCH   1  11
ATOM      5  C   UNL     1       0.730  -0.515  -1.240  0.00  0.00    -0.001 C 
ATOM      6  C   UNL     1       0.755  -2.046  -1.244  0.00  0.00    +0.009 C 
ATOM      7  C   UNL     1       1.224  -2.528  -2.624  0.00  0.00    +0.043 C 
ATOM      8  C   UNL     1       2.457  -1.760  -3.001  0.00  0.00    -0.006 A 
ATOM      9  C   UNL     1       2.914  -0.615  -2.419  0.00  0.00    -0.036 A 
ATOM     10  C   UNL     1       4.084  -0.078  -2.936  0.00  0.00    +0.024 A 
ATOM     11  C   UNL     1       4.670  -0.756  -3.990  0.00  0.00    +0.075 A 
ATOM     12  S   UNL     1       3.548  -2.124  -4.211  0.00  0.00    -0.088 S 
ATOM     13  C   UNL     1       2.160   0.026  -1.257  0.00  0.00    +0.040 C 
BRANCH   5  15
ATOM     14  C   UNL     1      -0.014   1.508   0.024  0.00  0.00    +0.011 C 
ATOM     15  C   UNL     1       0.015  -0.022   0.020  0.00  0.00    -0.035 C 
ATOM     16  C   UNL     1       0.762  -0.521   1.259  0.00  0.00    +0.011 C 
ATOM     17  C   UNL     1      -1.417  -0.559   0.038  0.00  0.00    +0.011 C 
ENDBRANCH   5  15
ENDBRANCH   1  11
BRANCH   3  18
ATOM     18  C   UNL     1       7.412  -0.874  -6.506  0.00  0.00    +0.034 A 
ATOM     19  C   UNL     1       8.488  -0.224  -5.915  0.00  0.00    +0.023 A 
ATOM     20  C   UNL     1       9.584   0.128  -6.677  0.00  0.00    +0.002 A 
ATOM     21  C   UNL     1       9.612  -0.166  -8.028  0.00  0.00    +0.005 A 
ATOM     22  C   UNL     1       8.542  -0.812  -8.620  0.00  0.00    -0.028 A 
ATOM     23  C   UNL     1       7.445  -1.172  -7.862  0.00  0.00    +0.028 A 
BRANCH  22  24
ATOM     24  C   UNL     1       8.576  -1.130 -10.093  0.00  0.00    +0.153 C 
BRANCH  24  25
ATOM     25  N   UNL     1       9.172  -2.453 -10.294  0.00  0.00    -0.220 N 
ATOM     26  C   UNL     1      10.490  -2.671 -10.469  0.00  0.00    +0.240 C 
ATOM     27  O   UNL     1      11.373  -1.841 -10.490  0.00  0.00    -0.273 OA
ATOM     28  C   UNL     1      10.639  -4.171 -10.634  0.00  0.00    +0.202 C 
ATOM     29  N   UNL     1       9.257  -4.670 -10.522  0.00  0.00    -0.290 N 
ATOM     30  C   UNL     1       8.475  -3.595 -10.320  0.00  0.00    +0.309 C 
ATOM     31  O   UNL     1       7.269  -3.653 -10.180  0.00  0.00    -0.252 OA
ATOM     32  H   UNL     1       8.969  -5.594 -10.580  0.00  0.00    +0.151 HD
ENDBRANCH  24  25
ENDBRANCH  22  24
ENDBRANCH   3  18
TORSDOF 5
