REMARK  Name = ZINC47962491
REMARK  6 active torsions:
REMARK  status: ('A' for Active; 'I' for Inactive)
REMARK    1  A    between atoms: C_1  and  C_2
REMARK    2  A    between atoms: C_2  and  C_3
REMARK    3  A    between atoms: C_3  and  C_4
REMARK    4  A    between atoms: C_4  and  N_5
REMARK    5  A    between atoms: C_6  and  C_8
REMARK    6  A    between atoms: C_21  and  C_23
REMARK                            x       y       z     vdW  Elec       q    Type
REMARK                         _______ _______ _______ _____ _____    ______ ____
ROOT
ATOM      1  C   UNL     1       2.179  -4.639   3.604  0.00  0.00    +0.306 C 
ATOM      2  O   UNL     1       2.634  -3.708   4.236  0.00  0.00    -0.265 OA
ATOM      3  N   UNL     1       2.399  -5.904   4.015  0.00  0.00    -0.254 N 
ATOM      4  C   UNL     1       1.885  -6.987   3.293  0.00  0.00    +0.059 A 
ATOM      5  C   UNL     1       2.424  -7.337   2.065  0.00  0.00    +0.025 A 
ATOM      6  C   UNL     1       1.918  -8.425   1.378  0.00  0.00    +0.002 A 
ATOM      7  C   UNL     1       0.878  -9.165   1.911  0.00  0.00    +0.002 A 
ATOM      8  C   UNL     1       0.329  -8.816   3.132  0.00  0.00    +0.025 A 
ATOM      9  C   UNL     1       0.823  -7.722   3.822  0.00  0.00    +0.055 A 
ATOM     10  N   UNL     1       0.247  -7.317   5.031  0.00  0.00    -0.284 N 
ATOM     11  C   UNL     1       1.024  -7.046   6.103  0.00  0.00    +0.219 C 
ATOM     12  O   UNL     1       0.520  -6.617   7.119  0.00  0.00    -0.275 OA
ATOM     13  C   UNL     1       2.511  -7.273   6.043  0.00  0.00    +0.123 C 
ATOM     14  C   UNL     1       3.186  -6.169   5.221  0.00  0.00    +0.121 C 
ATOM     15  H   UNL     1      -0.717  -7.230   5.101  0.00  0.00    +0.155 HD
ENDROOT
BRANCH  14  16
ATOM     16  C   UNL     1       4.573  -6.606   4.828  0.00  0.00    -0.026 A 
ATOM     17  C   UNL     1       5.676  -5.943   5.332  0.00  0.00    +0.005 A 
ATOM     18  C   UNL     1       6.949  -6.344   4.971  0.00  0.00    +0.000 A 
ATOM     19  C   UNL     1       7.118  -7.410   4.107  0.00  0.00    +0.000 A 
ATOM     20  C   UNL     1       6.016  -8.074   3.604  0.00  0.00    +0.000 A 
ATOM     21  C   UNL     1       4.743  -7.675   3.968  0.00  0.00    +0.005 A 
ENDBRANCH  14  16
BRANCH   1  23
ATOM     22  N   UNL     1       1.154  -3.119   1.961  0.00  0.00    -0.308 N 
ATOM     23  C   UNL     1       1.375  -4.383   2.372  0.00  0.00    +0.300 C 
ATOM     24  O   UNL     1       0.920  -5.315   1.740  0.00  0.00    -0.265 OA
ATOM     25  H   UNL     1       1.518  -2.375   2.466  0.00  0.00    +0.149 HD
BRANCH  22  26
ATOM     26  C   UNL     1       0.365  -2.868   0.752  0.00  0.00    +0.104 C 
BRANCH  26  27
ATOM     27  C   UNL     1       0.267  -1.361   0.511  0.00  0.00    +0.018 C 
BRANCH  27  29
ATOM     28  C   UNL     1      -0.655   0.408  -0.993  0.00  0.00    +0.004 C 
ATOM     29  C   UNL     1      -0.557  -1.099  -0.751  0.00  0.00    -0.002 C 
ENDBRANCH  27  29
ENDBRANCH  26  27
ENDBRANCH  22  26
ENDBRANCH   1  23
TORSDOF 5
