REMARK  Name = ZINC53634803
REMARK  6 active torsions:
REMARK  status: ('A' for Active; 'I' for Inactive)
REMARK    1  A    between atoms: C_1  and  C_2
REMARK    2  A    between atoms: C_2  and  C_25
REMARK    3  A    between atoms: N_5  and  C_9
REMARK    4  A    between atoms: C_9  and  C_10
REMARK    5  A    between atoms: N_12  and  C_13
REMARK    6  A    between atoms: C_13  and  C_14
REMARK                            x       y       z     vdW  Elec       q    Type
REMARK                         _______ _______ _______ _____ _____    ______ ____
ROOT
ATOM      1  C   UNL     1      -2.712  -1.929   1.625  0.00  0.00    +0.213 C 
ENDROOT
BRANCH   1   6
ATOM      2  C   UNL     1      -0.161   1.560  -0.214  0.00  0.00    +0.050 C 
ATOM      3  C   UNL     1      -0.102   0.033  -0.145  0.00  0.00    +0.168 C 
ATOM      4  C   UNL     1      -1.497  -0.551  -0.050  0.00  0.00    +0.254 C 
ATOM      5  O   UNL     1      -2.391  -0.448  -0.863  0.00  0.00    -0.272 OA
ATOM      6  N   UNL     1      -1.538  -1.209   1.125  0.00  0.00    -0.215 N 
ATOM      7  C   UNL     1      -0.374  -1.123   1.780  0.00  0.00    +0.310 C 
ATOM      8  O   UNL     1      -0.168  -1.636   2.862  0.00  0.00    -0.252 OA
ATOM      9  N   UNL     1       0.542  -0.405   1.106  0.00  0.00    -0.279 N 
ATOM     10  H   UNL     1       1.450  -0.213   1.388  0.00  0.00    +0.152 HD
BRANCH   3  11
ATOM     11  C   UNL     1       0.629  -0.523  -1.340  0.00  0.00    +0.137 A 
ATOM     12  C   UNL     1       1.954  -0.744  -1.419  0.00  0.00    +0.047 A 
ATOM     13  C   UNL     1       2.205  -1.266  -2.709  0.00  0.00    +0.041 A 
ATOM     14  C   UNL     1       1.020  -1.332  -3.341  0.00  0.00    +0.195 A 
ATOM     15  O   UNL     1       0.068  -0.886  -2.505  0.00  0.00    -0.465 OA
ENDBRANCH   3  11
ENDBRANCH   1   6
BRANCH   1  16
ATOM     16  C   UNL     1      -2.664  -3.358   1.151  0.00  0.00    +0.231 C 
ATOM     17  O   UNL     1      -1.741  -3.738   0.462  0.00  0.00    -0.274 OA
ATOM     18  N   UNL     1      -3.648  -4.214   1.491  0.00  0.00    -0.313 N 
ATOM     19  H   UNL     1      -4.387  -3.910   2.041  0.00  0.00    +0.149 HD
BRANCH  18  20
ATOM     20  C   UNL     1      -3.602  -5.604   1.029  0.00  0.00    +0.112 C 
BRANCH  20  21
ATOM     21  C   UNL     1      -4.756  -6.388   1.656  0.00  0.00    +0.036 C 
ATOM     22  C   UNL     1      -4.587  -6.407   3.174  0.00  0.00    +0.010 C 
ATOM     23  C   UNL     1      -5.621  -7.372   3.764  0.00  0.00    +0.005 C 
ATOM     24  C   UNL     1      -5.224  -8.797   3.381  0.00  0.00    +0.035 C 
ATOM     25  C   UNL     1      -4.979  -8.896   1.898  0.00  0.00    -0.044 A 
ATOM     26  C   UNL     1      -4.760  -7.791   1.107  0.00  0.00    -0.040 A 
ATOM     27  C   UNL     1      -4.533  -7.954  -0.253  0.00  0.00    +0.004 A 
ATOM     28  C   UNL     1      -4.529  -9.213  -0.818  0.00  0.00    +0.000 A 
ATOM     29  C   UNL     1      -4.752 -10.322  -0.024  0.00  0.00    +0.000 A 
ATOM     30  C   UNL     1      -4.977 -10.162   1.327  0.00  0.00    +0.004 A 
ENDBRANCH  20  21
ENDBRANCH  18  20
ENDBRANCH   1  16
TORSDOF 5
