REMARK  Name = ZINC11842726
REMARK  9 active torsions:
REMARK  status: ('A' for Active; 'I' for Inactive)
REMARK    1  A    between atoms: C_1  and  O_2
REMARK    2  A    between atoms: O_2  and  C_3
REMARK    3  A    between atoms: C_7  and  C_11
REMARK    4  A    between atoms: C_8  and  O_9
REMARK    5  A    between atoms: O_9  and  C_10
REMARK    6  A    between atoms: C_11  and  N_12
REMARK    7  A    between atoms: C_18  and  C_20
REMARK    8  A    between atoms: C_20  and  C_21
REMARK    9  A    between atoms: N_23  and  C_24
REMARK                            x       y       z     vdW  Elec       q    Type
REMARK                         _______ _______ _______ _____ _____    ______ ____
ROOT
ATOM      1  N   UNL     1       0.498  -5.151  -2.299  0.00  0.00    +0.391 N 
ATOM      2  C   UNL     1       0.231  -4.907  -3.725  0.00  0.00    -0.058 C 
ATOM      3  C   UNL     1      -1.127  -5.515  -4.083  0.00  0.00    +0.085 C 
ATOM      4  N   UNL     1      -1.186  -6.902  -3.628  0.00  0.00    -0.318 N 
ATOM      5  C   UNL     1      -0.341  -7.399  -2.718  0.00  0.00    +0.200 C 
ATOM      6  O   UNL     1      -0.469  -8.555  -2.375  0.00  0.00    -0.278 OA
ATOM      7  C   UNL     1       0.760  -6.583  -2.103  0.00  0.00    +0.028 C 
ATOM      8  H   UNL     1      -1.865  -7.486  -4.001  0.00  0.00    +0.149 HD
ATOM      9  H   UNL     1      -0.303  -4.876  -1.751  0.00  0.00    -0.080 HD
ENDROOT
BRANCH   1  10
ATOM     10  C   UNL     1       1.672  -4.375  -1.879  0.00  0.00    -0.038 C 
BRANCH  10  15
ATOM     11  C   UNL     1       0.401  -0.927  -0.967  0.00  0.00    +0.162 A 
ATOM     12  C   UNL     1       0.767  -0.198  -2.087  0.00  0.00    +0.049 A 
ATOM     13  C   UNL     1       1.424  -0.821  -3.132  0.00  0.00    +0.004 A 
ATOM     14  C   UNL     1       1.716  -2.170  -3.064  0.00  0.00    +0.005 A 
ATOM     15  C   UNL     1       1.353  -2.904  -1.950  0.00  0.00    -0.019 A 
ATOM     16  C   UNL     1       0.700  -2.285  -0.896  0.00  0.00    +0.163 A 
BRANCH  11  18
ATOM     17  C   UNL     1      -0.518   1.078  -0.080  0.00  0.00    +0.277 C 
ATOM     18  O   UNL     1      -0.244  -0.317   0.063  0.00  0.00    -0.491 OA
ENDBRANCH  11  18
BRANCH  16  19
ATOM     19  O   UNL     1       0.348  -3.003   0.204  0.00  0.00    -0.491 OA
ATOM     20  C   UNL     1      -1.000  -3.475   0.266  0.00  0.00    +0.277 C 
ENDBRANCH  16  19
ENDBRANCH  10  15
ENDBRANCH   1  10
BRANCH   7  21
ATOM     21  C   UNL     1       0.839  -6.883  -0.605  0.00  0.00    +0.089 C 
BRANCH  21  22
ATOM     22  C   UNL     1       1.297  -8.304  -0.401  0.00  0.00    +0.212 C 
ATOM     23  O   UNL     1       1.665  -8.965  -1.349  0.00  0.00    -0.276 OA
ATOM     24  N   UNL     1       1.299  -8.841   0.835  0.00  0.00    -0.312 N 
ATOM     25  H   UNL     1       1.006  -8.312   1.594  0.00  0.00    +0.149 HD
BRANCH  24  26
ATOM     26  C   UNL     1       1.745 -10.222   1.034  0.00  0.00    +0.073 C 
ATOM     27  C   UNL     1       0.577 -11.177   0.781  0.00  0.00    +0.022 C 
ATOM     28  C   UNL     1       1.042 -12.619   0.988  0.00  0.00    +0.002 C 
ATOM     29  C   UNL     1       1.541 -12.793   2.424  0.00  0.00    +0.000 C 
ATOM     30  C   UNL     1       2.710 -11.839   2.676  0.00  0.00    +0.002 C 
ATOM     31  C   UNL     1       2.244 -10.396   2.470  0.00  0.00    +0.022 C 
ENDBRANCH  24  26
ENDBRANCH  21  22
ENDBRANCH   7  21
TORSDOF 7
