REMARK  Name = ZINC58416581
REMARK  8 active torsions:
REMARK  status: ('A' for Active; 'I' for Inactive)
REMARK    1  A    between atoms: C_1  and  C_2
REMARK    2  A    between atoms: C_2  and  C_4
REMARK    3  A    between atoms: C_2  and  O_25
REMARK    4  A    between atoms: C_4  and  N_5
REMARK    5  A    between atoms: N_5  and  C_6
REMARK    6  A    between atoms: N_5  and  C_19
REMARK    7  A    between atoms: C_6  and  C_7
REMARK    8  A    between atoms: N_9  and  C_10
REMARK                            x       y       z     vdW  Elec       q    Type
REMARK                         _______ _______ _______ _____ _____    ______ ____
ROOT
ATOM      1  C   UNL     1       1.859  -2.700   0.588  0.00  0.00    +0.201 C 
ENDROOT
BRANCH   1   2
ATOM      2  C   UNL     1       2.964  -2.933   1.587  0.00  0.00    +0.235 C 
ATOM      3  O   UNL     1       2.842  -2.542   2.728  0.00  0.00    -0.274 OA
ATOM      4  N   UNL     1       4.087  -3.577   1.211  0.00  0.00    -0.282 N 
ATOM      5  H   UNL     1       4.157  -3.948   0.318  0.00  0.00    +0.155 HD
BRANCH   4   6
ATOM      6  C   UNL     1       5.149  -3.709   2.108  0.00  0.00    +0.062 A 
ATOM      7  C   UNL     1       4.901  -3.876   3.436  0.00  0.00    +0.025 A 
ATOM      8  C   UNL     1       5.938  -4.011   4.357  0.00  0.00    +0.004 A 
ATOM      9  C   UNL     1       7.236  -3.982   3.972  0.00  0.00    +0.031 A 
ATOM     10  C   UNL     1       7.574  -3.811   2.602  0.00  0.00    +0.102 A 
ATOM     11  C   UNL     1       6.493  -3.676   1.633  0.00  0.00    +0.121 A 
ATOM     12  N   UNL     1       6.926  -3.529   0.381  0.00  0.00    -0.189 NA
ATOM     13  S   UNL     1       8.532  -3.571   0.469  0.00  0.00    +0.117 S 
ATOM     14  N   UNL     1       8.786  -3.759   2.046  0.00  0.00    -0.191 NA
ENDBRANCH   4   6
ENDBRANCH   1   2
BRANCH   1  15
ATOM     15  N   UNL     1       0.757  -1.986   1.237  0.00  0.00    -0.319 N 
BRANCH  15  16
ATOM     16  C   UNL     1      -0.271  -2.702   1.855  0.00  0.00    +0.030 A 
ATOM     17  C   UNL     1      -1.320  -2.027   2.466  0.00  0.00    +0.023 A 
ATOM     18  C   UNL     1      -2.335  -2.738   3.076  0.00  0.00    +0.002 A 
ATOM     19  C   UNL     1      -2.307  -4.121   3.080  0.00  0.00    +0.000 A 
ATOM     20  C   UNL     1      -1.264  -4.796   2.473  0.00  0.00    +0.002 A 
ATOM     21  C   UNL     1      -0.249  -4.091   1.856  0.00  0.00    +0.023 A 
ENDBRANCH  15  16
BRANCH  15  22
ATOM     22  C   UNL     1       0.732  -0.522   1.238  0.00  0.00    +0.136 C 
BRANCH  22  24
ATOM     23  C   UNL     1      -0.040   1.506  -0.002  0.00  0.00    +0.039 C 
ATOM     24  C   UNL     1      -0.014  -0.024  -0.002  0.00  0.00    +0.129 C 
BRANCH  24  25
ATOM     25  O   UNL     1       0.652  -0.488  -1.178  0.00  0.00    -0.391 OA
ATOM     26  H   UNL     1       1.568  -0.188  -1.256  0.00  0.00    +0.210 HD
ENDBRANCH  24  25
ENDBRANCH  22  24
ENDBRANCH  15  22
ENDBRANCH   1  15
TORSDOF 7
