REMARK  Name = ZINC12856879
REMARK  9 active torsions:
REMARK  status: ('A' for Active; 'I' for Inactive)
REMARK    1  A    between atoms: C_1  and  C_2
REMARK    2  A    between atoms: C_3  and  C_28
REMARK    3  A    between atoms: C_4  and  C_18
REMARK    4  A    between atoms: N_9  and  C_10
REMARK    5  A    between atoms: C_21  and  C_24
REMARK    6  A    between atoms: C_24  and  O_26
REMARK    7  A    between atoms: O_26  and  C_27
REMARK    8  A    between atoms: C_28  and  O_30
REMARK    9  A    between atoms: O_30  and  C_31
REMARK                            x       y       z     vdW  Elec       q    Type
REMARK                         _______ _______ _______ _____ _____    ______ ____
ROOT
ATOM      1  C   UNL     1      -0.134   3.054  -3.114  0.00  0.00    +0.061 C 
ATOM      2  C   UNL     1      -0.197   1.567  -3.352  0.00  0.00    +0.024 C 
ATOM      3  C   UNL     1       0.163   1.070  -4.555  0.00  0.00    +0.078 C 
ATOM      4  C   UNL     1       0.080  -0.430  -4.753  0.00  0.00    +0.143 C 
ATOM      5  N   UNL     1      -0.386  -1.229  -3.607  0.00  0.00    -0.288 N 
ATOM      6  C   UNL     1      -0.707  -0.588  -2.466  0.00  0.00    +0.307 C 
ATOM      7  O   UNL     1      -1.093  -1.238  -1.514  0.00  0.00    -0.252 OA
ATOM      8  N   UNL     1      -0.614   0.743  -2.346  0.00  0.00    -0.254 N 
ATOM      9  H   UNL     1      -0.461  -2.194  -3.672  0.00  0.00    +0.151 HD
ENDROOT
BRANCH   8  10
ATOM     10  C   UNL     1      -0.985   1.349  -1.065  0.00  0.00    +0.105 C 
ATOM     11  C   UNL     1      -2.475   1.098  -0.784  0.00  0.00    +0.047 C 
ATOM     12  C   UNL     1      -2.801   1.445   0.689  0.00  0.00    +0.168 C 
ATOM     13  S   UNL     1      -1.196   1.145   1.539  0.00  0.00    -0.029 S 
ATOM     14  O   UNL     1      -1.323   0.007   2.381  0.00  0.00    -0.174 OA
ATOM     15  O   UNL     1      -0.725   2.370   2.085  0.00  0.00    -0.174 OA
ATOM     16  C   UNL     1      -0.159   0.700   0.083  0.00  0.00    +0.188 C 
ENDBRANCH   8  10
BRANCH   4  17
ATOM     17  C   UNL     1      -0.847  -0.695  -5.912  0.00  0.00    -0.022 A 
ATOM     18  C   UNL     1      -2.208  -0.813  -5.692  0.00  0.00    +0.006 A 
ATOM     19  C   UNL     1      -3.062  -1.050  -6.749  0.00  0.00    +0.015 A 
ATOM     20  C   UNL     1      -2.549  -1.182  -8.041  0.00  0.00    +0.059 A 
ATOM     21  C   UNL     1      -1.174  -1.067  -8.254  0.00  0.00    +0.015 A 
ATOM     22  C   UNL     1      -0.332  -0.824  -7.189  0.00  0.00    +0.006 A 
BRANCH  20  23
ATOM     23  C   UNL     1      -3.457  -1.443  -9.177  0.00  0.00    +0.339 C 
ATOM     24  O   UNL     1      -3.008  -1.558 -10.299  0.00  0.00    -0.245 OA
BRANCH  23  25
ATOM     25  O   UNL     1      -4.783  -1.553  -8.967  0.00  0.00    -0.464 OA
ATOM     26  C   UNL     1      -5.615  -1.810 -10.129  0.00  0.00    +0.280 C 
ENDBRANCH  23  25
ENDBRANCH  20  23
ENDBRANCH   4  17
BRANCH   3  27
ATOM     27  C   UNL     1       0.600   1.922  -5.597  0.00  0.00    +0.339 C 
ATOM     28  O   UNL     1       0.759   3.110  -5.385  0.00  0.00    -0.245 OA
BRANCH  27  29
ATOM     29  O   UNL     1       0.839   1.418  -6.825  0.00  0.00    -0.465 OA
ATOM     30  C   UNL     1       1.277   2.335  -7.829  0.00  0.00    +0.280 C 
ENDBRANCH  27  29
ENDBRANCH   3  27
TORSDOF 6
