REMARK  Name = ZINC63098823
REMARK  4 active torsions:
REMARK  status: ('A' for Active; 'I' for Inactive)
REMARK    1  A    between atoms: C_1  and  C_2
REMARK    2  A    between atoms: N_10  and  N_11
REMARK    3  A    between atoms: C_12  and  C_14
REMARK    4  A    between atoms: C_14  and  C_17
REMARK                            x       y       z     vdW  Elec       q    Type
REMARK                         _______ _______ _______ _____ _____    ______ ____
ROOT
ATOM      1  N   UNL     1      -3.650  -2.429   2.362  0.00  0.00    -0.234 N 
ATOM      2  C   UNL     1      -3.538  -3.362   3.329  0.00  0.00    +0.240 C 
ATOM      3  O   UNL     1      -2.454  -3.608   3.812  0.00  0.00    -0.273 OA
ATOM      4  H   UNL     1      -4.503  -2.284   1.925  0.00  0.00    +0.173 HD
ENDROOT
BRANCH   1  13
ATOM      5  C   UNL     1      -3.096   2.646  -0.697  0.00  0.00    +0.044 C 
ATOM      6  C   UNL     1      -2.767   1.167  -0.908  0.00  0.00    +0.210 C 
ATOM      7  C   UNL     1      -3.988   0.353  -0.520  0.00  0.00    +0.265 C 
ATOM      8  O   UNL     1      -5.063   0.522  -1.058  0.00  0.00    -0.271 OA
ATOM      9  N   UNL     1      -3.821  -0.562   0.447  0.00  0.00    -0.145 NA
ATOM     10  C   UNL     1      -2.645  -0.726   1.014  0.00  0.00    +0.218 C 
ATOM     11  N   UNL     1      -1.533  -0.011   0.687  0.00  0.00    -0.253 N 
ATOM     12  N   UNL     1      -1.520   0.869  -0.183  0.00  0.00    -0.197 NA
ATOM     13  N   UNL     1      -2.533  -1.669   1.991  0.00  0.00    -0.235 N 
ATOM     14  H   UNL     1      -1.679  -1.815   2.429  0.00  0.00    +0.173 HD
ATOM     15  H   UNL     1      -0.708  -0.202   1.160  0.00  0.00    +0.191 HD
ENDBRANCH   1  13
BRANCH   2  16
ATOM     16  C   UNL     1      -4.762  -4.100   3.808  0.00  0.00    +0.073 C 
ATOM     17  C   UNL     1      -5.074  -4.055   5.305  0.00  0.00    +0.022 C 
ATOM     18  C   UNL     1      -5.936  -3.264   4.319  0.00  0.00    +0.022 C 
BRANCH  16  19
ATOM     19  C   UNL     1      -5.085  -5.373   3.068  0.00  0.00    -0.032 A 
ATOM     20  C   UNL     1      -6.236  -5.457   2.306  0.00  0.00    +0.006 A 
ATOM     21  C   UNL     1      -6.532  -6.624   1.627  0.00  0.00    +0.015 A 
ATOM     22  C   UNL     1      -5.676  -7.708   1.709  0.00  0.00    +0.018 A 
ATOM     23  C   UNL     1      -4.525  -7.623   2.471  0.00  0.00    +0.015 A 
ATOM     24  C   UNL     1      -4.227  -6.454   3.146  0.00  0.00    +0.006 A 
ATOM     25 BR   UNL     1      -6.081  -9.305   0.781  0.00  0.00    -0.050 Br
ENDBRANCH  16  19
ENDBRANCH   2  16
TORSDOF 3
