REMARK  Name = ZINC08913836
REMARK  8 active torsions:
REMARK  status: ('A' for Active; 'I' for Inactive)
REMARK    1  A    between atoms: C_1  and  C_2
REMARK    2  A    between atoms: C_5  and  N_9
REMARK    3  A    between atoms: C_6  and  C_8
REMARK    4  A    between atoms: C_10  and  C_12
REMARK    5  A    between atoms: C_13  and  C_30
REMARK    6  A    between atoms: C_17  and  S_28
REMARK    7  A    between atoms: C_20  and  C_22
REMARK    8  A    between atoms: S_28  and  C_29
REMARK                            x       y       z     vdW  Elec       q    Type
REMARK                         _______ _______ _______ _____ _____    ______ ____
ROOT
ATOM      1  C   UNL     1       0.104  -6.246  -1.407  0.00  0.00    +0.060 C 
ATOM      2  C   UNL     1       0.166  -6.786  -2.632  0.00  0.00    +0.018 C 
ATOM      3  N   UNL     1       0.208  -8.145  -2.831  0.00  0.00    -0.287 N 
ATOM      4  C   UNL     1       0.450  -8.946  -1.724  0.00  0.00    +0.219 A 
ATOM      5  N   UNL     1       0.756 -10.213  -1.654  0.00  0.00    -0.187 NA
ATOM      6  C   UNL     1       0.906 -10.568  -0.370  0.00  0.00    +0.210 A 
ATOM      7  N   UNL     1       0.692  -9.517   0.393  0.00  0.00    -0.141 NA
ATOM      8  N   UNL     1       0.392  -8.456  -0.461  0.00  0.00    -0.220 N 
ATOM      9  C   UNL     1       0.070  -7.068  -0.146  0.00  0.00    +0.179 C 
ATOM     10  C   UNL     1       0.189  -5.873  -3.831  0.00  0.00    +0.061 C 
ATOM     11  H   UNL     1       0.073  -8.529  -3.712  0.00  0.00    +0.155 HD
ENDROOT
BRANCH   9  12
ATOM     12  C   UNL     1      -1.308  -7.002   0.460  0.00  0.00    -0.000 A 
ATOM     13  C   UNL     1      -1.490  -6.490   1.736  0.00  0.00    +0.009 A 
ATOM     14  C   UNL     1      -2.776  -6.449   2.253  0.00  0.00    +0.020 A 
ATOM     15  C   UNL     1      -3.826  -6.916   1.484  0.00  0.00    +0.111 A 
ATOM     16  N   UNL     1      -3.615  -7.396   0.275  0.00  0.00    -0.263 NA
ATOM     17  C   UNL     1      -2.407  -7.445  -0.251  0.00  0.00    +0.116 A 
ENDBRANCH   9  12
BRANCH   1  19
ATOM     18  N   UNL     1      -1.094  -4.175  -1.396  0.00  0.00    -0.281 N 
ATOM     19  C   UNL     1       0.076  -4.836  -1.293  0.00  0.00    +0.248 C 
ATOM     20  O   UNL     1       1.109  -4.219  -1.101  0.00  0.00    -0.270 OA
ATOM     21  H   UNL     1      -1.926  -4.669  -1.467  0.00  0.00    +0.155 HD
BRANCH  18  26
ATOM     22  C   UNL     1      -1.156   1.497  -1.418  0.00  0.00    +0.044 C 
ATOM     23  C   UNL     1      -1.140  -0.010  -1.412  0.00  0.00    -0.050 A 
ATOM     24  C   UNL     1      -0.005  -0.689  -1.816  0.00  0.00    +0.005 A 
ATOM     25  C   UNL     1       0.014  -2.070  -1.812  0.00  0.00    +0.024 A 
ATOM     26  C   UNL     1      -1.109  -2.776  -1.401  0.00  0.00    +0.037 A 
ATOM     27  C   UNL     1      -2.247  -2.091  -0.995  0.00  0.00    -0.029 A 
ATOM     28  C   UNL     1      -2.257  -0.710  -0.996  0.00  0.00    +0.008 A 
ATOM     29  C   UNL     1      -3.468  -2.854  -0.548  0.00  0.00    +0.045 C 
ENDBRANCH  18  26
ENDBRANCH   1  19
BRANCH   6  30
ATOM     30  S   UNL     1       1.321 -12.181   0.204  0.00  0.00    -0.088 S 
ATOM     31  C   UNL     1       1.480 -13.160  -1.314  0.00  0.00    +0.093 C 
ENDBRANCH   6  30
TORSDOF 4
