REMARK  Name = ZINC32177537
REMARK  8 active torsions:
REMARK  status: ('A' for Active; 'I' for Inactive)
REMARK    1  A    between atoms: C_1  and  C_2
REMARK    2  A    between atoms: C_5  and  N_9
REMARK    3  A    between atoms: C_7  and  C_8
REMARK    4  A    between atoms: C_13  and  C_15
REMARK    5  A    between atoms: C_15  and  S_16
REMARK    6  A    between atoms: S_16  and  C_17
REMARK    7  A    between atoms: C_20  and  C_23
REMARK    8  A    between atoms: N_21  and  C_22
REMARK                            x       y       z     vdW  Elec       q    Type
REMARK                         _______ _______ _______ _____ _____    ______ ____
ROOT
ATOM      1  N   UNL     1      -0.011   0.966   0.007  0.00  0.00    -0.269 N 
ATOM      2  C   UNL     1       1.052   1.775  -0.173  0.00  0.00    +0.310 C 
ATOM      3  O   UNL     1       0.884   2.954  -0.416  0.00  0.00    -0.252 OA
ATOM      4  N   UNL     1       2.301   1.276  -0.085  0.00  0.00    -0.239 N 
ATOM      5  C   UNL     1       3.364   2.085  -0.265  0.00  0.00    +0.231 C 
ATOM      6  O   UNL     1       3.196   3.261  -0.507  0.00  0.00    -0.274 OA
ATOM      7  H   UNL     1       0.138  -0.116   0.144  0.00  0.00    +0.156 HD
ATOM      8  H   UNL     1       2.453   0.209   0.135  0.00  0.00    +0.159 HD
ENDROOT
BRANCH   1  13
ATOM      9  C   UNL     1      -5.252   3.138   0.066  0.00  0.00    +0.044 C 
ATOM     10  C   UNL     1      -3.860   2.561   0.050  0.00  0.00    -0.047 A 
ATOM     11  C   UNL     1      -2.800   3.301   0.543  0.00  0.00    +0.005 A 
ATOM     12  C   UNL     1      -1.524   2.773   0.536  0.00  0.00    +0.023 A 
ATOM     13  C   UNL     1      -1.304   1.502   0.022  0.00  0.00    +0.035 A 
ATOM     14  C   UNL     1      -2.369   0.761  -0.473  0.00  0.00    +0.027 A 
ATOM     15  C   UNL     1      -3.644   1.293  -0.457  0.00  0.00    -0.046 A 
ATOM     16  C   UNL     1      -4.801   0.490  -0.993  0.00  0.00    +0.044 C 
ENDBRANCH   1  13
BRANCH   5  17
ATOM     17  C   UNL     1       4.760   1.527  -0.166  0.00  0.00    +0.173 C 
BRANCH  17  18
ATOM     18  S   UNL     1       5.960   2.851  -0.455  0.00  0.00    -0.077 S 
BRANCH  18  19
ATOM     19  C   UNL     1       7.462   1.945  -0.285  0.00  0.00    +0.192 A 
ATOM     20  N   UNL     1       7.575   0.664  -0.021  0.00  0.00    -0.122 NA
ATOM     21  N   UNL     1       8.817   0.338   0.032  0.00  0.00    -0.133 NA
ATOM     22  C   UNL     1       9.564   1.381  -0.193  0.00  0.00    +0.137 A 
ATOM     23  N   UNL     1       8.728   2.442  -0.409  0.00  0.00    -0.309 N 
ATOM     24  C   UNL     1       9.111   3.824  -0.708  0.00  0.00    +0.152 C 
BRANCH  22  25
ATOM     25  C   UNL     1      11.071   1.413  -0.217  0.00  0.00    +0.057 C 
ATOM     26  C   UNL     1      11.806   0.073  -0.158  0.00  0.00    +0.012 C 
ATOM     27  C   UNL     1      11.806   1.000   1.060  0.00  0.00    +0.012 C 
ENDBRANCH  22  25
ENDBRANCH  18  19
ENDBRANCH  17  18
ENDBRANCH   5  17
TORSDOF 5
