REMARK  Name = ZINC50077833
REMARK  9 active torsions:
REMARK  status: ('A' for Active; 'I' for Inactive)
REMARK    1  A    between atoms: C_1  and  N_2
REMARK    2  A    between atoms: C_6  and  N_13
REMARK    3  A    between atoms: N_9  and  C_12
REMARK    4  A    between atoms: N_16  and  C_17
REMARK    5  A    between atoms: C_17  and  C_18
REMARK    6  A    between atoms: C_18  and  C_20
REMARK    7  A    between atoms: C_18  and  N_25
REMARK    8  A    between atoms: N_25  and  C_26
REMARK    9  A    between atoms: N_25  and  C_27
REMARK                            x       y       z     vdW  Elec       q    Type
REMARK                         _______ _______ _______ _____ _____    ______ ____
ROOT
ATOM      1  N   UNL     1      -3.816  -4.084  -0.176  0.00  0.00    -0.269 N 
ATOM      2  C   UNL     1      -5.129  -3.830  -0.011  0.00  0.00    +0.304 C 
ATOM      3  O   UNL     1      -5.527  -2.681   0.022  0.00  0.00    -0.253 OA
ATOM      4  N   UNL     1      -6.002  -4.849   0.119  0.00  0.00    -0.300 N 
ATOM      5  H   UNL     1      -3.506  -5.000  -0.258  0.00  0.00    +0.156 HD
ATOM      6  H   UNL     1      -5.685  -5.765   0.094  0.00  0.00    +0.150 HD
ENDROOT
BRANCH   1  12
ATOM      7  C   UNL     1       0.976   0.553  -0.114  0.00  0.00    +0.154 C 
ATOM      8  N   UNL     1      -0.399   0.262  -0.530  0.00  0.00    -0.295 N 
ATOM      9  C   UNL     1      -1.075  -0.941  -0.329  0.00  0.00    +0.070 A 
ATOM     10  C   UNL     1      -0.722  -2.142   0.268  0.00  0.00    +0.030 A 
ATOM     11  C   UNL     1      -1.630  -3.180   0.317  0.00  0.00    +0.025 A 
ATOM     12  C   UNL     1      -2.899  -3.026  -0.229  0.00  0.00    +0.037 A 
ATOM     13  C   UNL     1      -3.259  -1.828  -0.827  0.00  0.00    +0.051 A 
ATOM     14  C   UNL     1      -2.349  -0.783  -0.878  0.00  0.00    +0.071 A 
ATOM     15  N   UNL     1      -2.407   0.509  -1.396  0.00  0.00    -0.295 N 
ATOM     16  C   UNL     1      -1.226   1.112  -1.167  0.00  0.00    +0.330 A 
ATOM     17  O   UNL     1      -0.947   2.252  -1.489  0.00  0.00    -0.246 OA
ATOM     18  C   UNL     1      -3.561   1.111  -2.070  0.00  0.00    +0.154 C 
ENDBRANCH   1  12
BRANCH   4  19
ATOM     19  C   UNL     1      -7.429  -4.573   0.299  0.00  0.00    +0.095 C 
BRANCH  19  20
ATOM     20  C   UNL     1      -8.175  -5.885   0.547  0.00  0.00    -0.020 C 
BRANCH  20  21
ATOM     21  C   UNL     1      -7.673  -6.517   1.819  0.00  0.00    -0.052 A 
ATOM     22  C   UNL     1      -6.749  -7.544   1.775  0.00  0.00    +0.009 A 
ATOM     23  C   UNL     1      -6.318  -8.090   2.938  0.00  0.00    +0.045 A 
ATOM     24  S   UNL     1      -7.226  -7.145   4.150  0.00  0.00    -0.105 S 
ATOM     25  C   UNL     1      -8.115  -6.082   3.025  0.00  0.00    +0.047 A 
ENDBRANCH  20  21
BRANCH  20  26
ATOM     26  N   UNL     1      -9.614  -5.615   0.669  0.00  0.00    +0.382 N 
ATOM     27  C   UNL     1     -10.125  -5.093  -0.605  0.00  0.00    -0.096 C 
ATOM     28  C   UNL     1     -10.319  -6.859   1.007  0.00  0.00    -0.096 C 
ATOM     29  H   UNL     1      -9.768  -4.933   1.397  0.00  0.00    -0.082 HD
ENDBRANCH  20  26
ENDBRANCH  19  20
ENDBRANCH   4  19
TORSDOF 5
