REMARK  Name = ZINC05362680
REMARK  10 active torsions:
REMARK  status: ('A' for Active; 'I' for Inactive)
REMARK    1  A    between atoms: C_1  and  C_2
REMARK    2  A    between atoms: C_2  and  C_4
REMARK    3  A    between atoms: C_2  and  S_11
REMARK    4  A    between atoms: S_11  and  C_12
REMARK    5  A    between atoms: C_15  and  C_18
REMARK    6  A    between atoms: N_16  and  N_17
REMARK    7  A    between atoms: C_21  and  C_24
REMARK    8  A    between atoms: C_24  and  C_25
REMARK    9  A    between atoms: C_24  and  C_26
REMARK   10  A    between atoms: C_24  and  C_27
REMARK                            x       y       z     vdW  Elec       q    Type
REMARK                         _______ _______ _______ _____ _____    ______ ____
ROOT
ATOM      1  C   UNL     1       1.675   1.838   2.550  0.00  0.00    +0.209 A 
ATOM      2  N   UNL     1       1.992   2.665   1.579  0.00  0.00    -0.121 NA
ATOM      3  N   UNL     1       3.184   3.113   1.754  0.00  0.00    -0.127 NA
ATOM      4  C   UNL     1       3.700   2.600   2.846  0.00  0.00    +0.182 A 
ATOM      5  N   UNL     1       2.747   1.772   3.393  0.00  0.00    -0.224 N 
ENDROOT
BRANCH   4   6
ATOM      6  C   UNL     1       5.048   2.867   3.390  0.00  0.00    +0.021 A 
ATOM      7  C   UNL     1       5.583   2.037   4.376  0.00  0.00    +0.012 A 
ATOM      8  C   UNL     1       6.845   2.288   4.876  0.00  0.00    +0.005 A 
ATOM      9  C   UNL     1       7.574   3.366   4.409  0.00  0.00    -0.042 A 
ATOM     10  C   UNL     1       7.048   4.197   3.436  0.00  0.00    +0.005 A 
ATOM     11  C   UNL     1       5.790   3.954   2.924  0.00  0.00    +0.012 A 
BRANCH   9  12
ATOM     12  C   UNL     1       8.949   3.638   4.964  0.00  0.00    -0.013 C 
ATOM     13  C   UNL     1       8.975   5.027   5.606  0.00  0.00    +0.015 C 
ATOM     14  C   UNL     1       9.292   2.583   6.017  0.00  0.00    +0.015 C 
ATOM     15  C   UNL     1       9.976   3.582   3.831  0.00  0.00    +0.015 C 
ENDBRANCH   9  12
ENDBRANCH   4   6
BRANCH   5  16
ATOM     16  N   UNL     1       2.852   1.036   4.538  0.00  0.00    -0.295 N 
ATOM     17  H   UNL     1       3.226   0.119   4.346  0.00  0.00    +0.163 HD
ATOM     18  H   UNL     1       3.411   1.517   5.227  0.00  0.00    +0.163 HD
ENDBRANCH   5  16
BRANCH   1  19
ATOM     19  S   UNL     1       0.147   0.980   2.733  0.00  0.00    -0.072 S 
BRANCH  19  21
ATOM     20  C   UNL     1      -0.013   1.086   0.008  0.00  0.00    +0.029 C 
ATOM     21  C   UNL     1      -0.729   1.579   1.267  0.00  0.00    +0.137 C 
BRANCH  21  22
ATOM     22  C   UNL     1      -2.143   1.058   1.278  0.00  0.00    +0.229 C 
ATOM     23  O   UNL     1      -2.427   0.089   1.950  0.00  0.00    -0.274 OA
ATOM     24  N   UNL     1      -3.091   1.667   0.539  0.00  0.00    -0.301 N 
ATOM     25  C   UNL     1      -2.887   2.848  -0.312  0.00  0.00    +0.108 C 
ATOM     26  C   UNL     1      -4.252   3.202  -0.939  0.00  0.00    +0.020 C 
ATOM     27  C   UNL     1      -5.263   2.551   0.042  0.00  0.00    +0.020 C 
ATOM     28  C   UNL     1      -4.507   1.264   0.458  0.00  0.00    +0.108 C 
ENDBRANCH  21  22
ENDBRANCH  19  21
ENDBRANCH   1  19
TORSDOF 6
