REMARK  Name = ZINC41154349
REMARK  5 active torsions:
REMARK  status: ('A' for Active; 'I' for Inactive)
REMARK    1  A    between atoms: C_3  and  N_8
REMARK    2  A    between atoms: N_11  and  C_12
REMARK    3  A    between atoms: C_12  and  C_13
REMARK    4  A    between atoms: C_13  and  C_14
REMARK    5  A    between atoms: C_16  and  C_19
REMARK                            x       y       z     vdW  Elec       q    Type
REMARK                         _______ _______ _______ _____ _____    ______ ____
ROOT
ATOM      1  N   UNL     1       3.584   2.125  -0.021  0.00  0.00    -0.269 N 
ATOM      2  C   UNL     1       4.758   1.470   0.066  0.00  0.00    +0.304 C 
ATOM      3  O   UNL     1       4.779   0.255   0.060  0.00  0.00    -0.253 OA
ATOM      4  N   UNL     1       5.911   2.163   0.160  0.00  0.00    -0.299 N 
ATOM      5  H   UNL     1       3.572   3.093  -0.094  0.00  0.00    +0.156 HD
ATOM      6  H   UNL     1       5.895   3.133   0.165  0.00  0.00    +0.150 HD
ENDROOT
BRANCH   1   9
ATOM      7  C   UNL     1       1.086  -0.460   0.753  0.00  0.00    +0.003 A 
ATOM      8  C   UNL     1       2.275   0.244   0.739  0.00  0.00    +0.023 A 
ATOM      9  C   UNL     1       2.381   1.410  -0.006  0.00  0.00    +0.036 A 
ATOM     10  C   UNL     1       1.292   1.866  -0.737  0.00  0.00    +0.043 A 
ATOM     11  C   UNL     1       0.105   1.158  -0.720  0.00  0.00    +0.043 A 
ATOM     12  C   UNL     1       0.003  -0.005   0.025  0.00  0.00    +0.020 A 
ATOM     13 CL   UNL     1      -1.258   1.726  -1.632  0.00  0.00    -0.083 Cl
ENDBRANCH   1   9
BRANCH   4  14
ATOM     14  C   UNL     1       7.188   1.451   0.254  0.00  0.00    +0.115 C 
BRANCH  14  15
ATOM     15  C   UNL     1       8.331   2.463   0.349  0.00  0.00    +0.117 C 
BRANCH  15  16
ATOM     16  C   UNL     1       9.644   1.731   0.447  0.00  0.00    +0.229 A 
ATOM     17  N   UNL     1      10.391   1.373  -0.558  0.00  0.00    -0.191 NA
ATOM     18  C   UNL     1      11.492   0.738  -0.111  0.00  0.00    +0.209 A 
ATOM     19  N   UNL     1      11.444   0.693   1.200  0.00  0.00    -0.056 NA
ATOM     20  O   UNL     1      10.242   1.344   1.581  0.00  0.00    -0.338 OA
BRANCH  18  21
ATOM     21  C   UNL     1      12.572   0.187  -0.954  0.00  0.00    +0.060 A 
ATOM     22  C   UNL     1      13.712  -0.472  -0.576  0.00  0.00    +0.019 A 
ATOM     23  C   UNL     1      14.584  -0.900  -1.551  0.00  0.00    +0.008 A 
ATOM     24  C   UNL     1      14.289  -0.658  -2.855  0.00  0.00    +0.046 A 
ATOM     25  S   UNL     1      12.727   0.198  -2.733  0.00  0.00    -0.093 S 
ENDBRANCH  18  21
ENDBRANCH  15  16
ENDBRANCH  14  15
ENDBRANCH   4  14
TORSDOF 5
