REMARK  Name = ZINC36543434
REMARK  11 active torsions:
REMARK  status: ('A' for Active; 'I' for Inactive)
REMARK    1  A    between atoms: C_1  and  C_2
REMARK    2  A    between atoms: C_2  and  C_3
REMARK    3  A    between atoms: C_2  and  C_4
REMARK    4  A    between atoms: C_2  and  N_5
REMARK    5  A    between atoms: C_6  and  C_8
REMARK    6  A    between atoms: C_8  and  C_10
REMARK    7  A    between atoms: C_8  and  N_17
REMARK    8  A    between atoms: C_14  and  O_16
REMARK    9  A    between atoms: N_17  and  C_18
REMARK   10  A    between atoms: C_25  and  C_27
REMARK   11  A    between atoms: C_32  and  O_33
REMARK                            x       y       z     vdW  Elec       q    Type
REMARK                         _______ _______ _______ _____ _____    ______ ____
ROOT
ATOM      1  N   UNL     1       4.104  -0.479  -2.597  0.00  0.00    -0.250 N 
ATOM      2  C   UNL     1       4.860  -1.559  -2.878  0.00  0.00    +0.255 C 
ATOM      3  O   UNL     1       4.364  -2.669  -2.860  0.00  0.00    -0.269 OA
ENDROOT
BRANCH   1   4
ATOM      4  C   UNL     1       4.694   0.787  -2.521  0.00  0.00    +0.056 A 
ATOM      5  C   UNL     1       5.205   1.246  -1.314  0.00  0.00    +0.025 A 
ATOM      6  C   UNL     1       5.787   2.497  -1.243  0.00  0.00    +0.002 A 
ATOM      7  C   UNL     1       5.861   3.292  -2.372  0.00  0.00    +0.002 A 
ATOM      8  C   UNL     1       5.354   2.839  -3.575  0.00  0.00    +0.022 A 
ATOM      9  C   UNL     1       4.775   1.587  -3.655  0.00  0.00    +0.062 A 
ATOM     10 CL   UNL     1       4.144   1.015  -5.168  0.00  0.00    -0.082 Cl
ENDBRANCH   1   4
BRANCH   2  11
ATOM     11  C   UNL     1       6.288  -1.394  -3.208  0.00  0.00    +0.079 A 
ATOM     12  C   UNL     1       7.137  -0.714  -2.331  0.00  0.00    +0.017 A 
ATOM     13  C   UNL     1       8.471  -0.564  -2.645  0.00  0.00    +0.001 A 
ATOM     14  C   UNL     1       8.974  -1.083  -3.826  0.00  0.00    +0.004 A 
ATOM     15  C   UNL     1       8.145  -1.756  -4.702  0.00  0.00    +0.046 A 
ATOM     16  C   UNL     1       6.802  -1.923  -4.399  0.00  0.00    +0.129 A 
BRANCH  16  17
ATOM     17  O   UNL     1       5.988  -2.589  -5.256  0.00  0.00    -0.506 OA
ATOM     18  H   UNL     1       5.569  -2.025  -5.920  0.00  0.00    +0.292 HD
ENDBRANCH  16  17
ENDBRANCH   2  11
BRANCH   1  19
ATOM     19  C   UNL     1       2.664  -0.631  -2.370  0.00  0.00    +0.198 C 
BRANCH  19  20
ATOM     20  C   UNL     1       1.911   0.301  -3.282  0.00  0.00    -0.014 A 
ATOM     21  C   UNL     1       1.000  -0.207  -4.190  0.00  0.00    +0.006 A 
ATOM     22  C   UNL     1       0.306   0.646  -5.029  0.00  0.00    +0.004 A 
ATOM     23  C   UNL     1       0.523   2.009  -4.962  0.00  0.00    +0.045 A 
ATOM     24  C   UNL     1       1.436   2.521  -4.052  0.00  0.00    +0.117 A 
ATOM     25  C   UNL     1       2.126   1.663  -3.207  0.00  0.00    +0.051 A 
BRANCH  24  26
ATOM     26  O   UNL     1       1.650   3.861  -3.984  0.00  0.00    -0.507 OA
ATOM     27  H   UNL     1       1.071   4.322  -3.361  0.00  0.00    +0.292 HD
ENDBRANCH  24  26
ENDBRANCH  19  20
BRANCH  19  29
ATOM     28  N   UNL     1       1.072  -0.370  -0.495  0.00  0.00    -0.309 N 
ATOM     29  C   UNL     1       2.344  -0.299  -0.935  0.00  0.00    +0.239 C 
ATOM     30  O   UNL     1       3.231   0.033  -0.177  0.00  0.00    -0.273 OA
ATOM     31  H   UNL     1       0.363  -0.635  -1.101  0.00  0.00    +0.149 HD
BRANCH  28  33
ATOM     32  C   UNL     1       1.173   1.398   1.193  0.00  0.00    +0.031 C 
ATOM     33  C   UNL     1       0.761  -0.046   0.900  0.00  0.00    +0.026 C 
ATOM     34  C   UNL     1       1.526  -0.993   1.826  0.00  0.00    +0.031 C 
ATOM     35  C   UNL     1      -0.742  -0.205   1.137  0.00  0.00    +0.031 C 
ENDBRANCH  28  33
ENDBRANCH  19  29
ENDBRANCH   1  19
TORSDOF 8
