REMARK  Name = ZINC63182408
REMARK  5 active torsions:
REMARK  status: ('A' for Active; 'I' for Inactive)
REMARK    1  A    between atoms: C_9  and  C_12
REMARK    2  A    between atoms: C_15  and  C_17
REMARK    3  A    between atoms: C_17  and  C_18
REMARK    4  A    between atoms: C_18  and  C_19
REMARK    5  A    between atoms: C_27  and  C_29
REMARK                            x       y       z     vdW  Elec       q    Type
REMARK                         _______ _______ _______ _____ _____    ______ ____
ROOT
ATOM      1  C   UNL     1      -2.304  -3.134  -0.656  0.00  0.00    +0.043 C 
ENDROOT
BRANCH   1   2
ATOM      2  C   UNL     1      -3.603  -2.435  -0.962  0.00  0.00    -0.034 C 
ATOM      3  C   UNL     1      -3.822  -1.101  -0.990  0.00  0.00    +0.002 A 
ATOM      4  C   UNL     1      -2.948   0.055  -0.751  0.00  0.00    +0.048 A 
ATOM      5  C   UNL     1      -3.466   1.302  -0.854  0.00  0.00    +0.124 A 
ATOM      6  C   UNL     1      -4.814   1.515  -1.182  0.00  0.00    +0.040 A 
ATOM      7  C   UNL     1      -5.677   0.503  -1.414  0.00  0.00    +0.029 A 
ATOM      8  C   UNL     1      -5.239  -0.848  -1.334  0.00  0.00    +0.043 A 
ATOM      9  N   UNL     1      -5.872  -1.982  -1.512  0.00  0.00    -0.374 N 
ATOM     10  C   UNL     1      -4.925  -3.083  -1.307  0.00  0.00    +0.137 C 
ATOM     11  F   UNL     1      -2.665   2.367  -0.635  0.00  0.00    -0.205 F 
ATOM     12  H   UNL     1      -6.809  -2.076  -1.744  0.00  0.00    +0.161 HD
BRANCH  10  13
ATOM     13  C   UNL     1      -4.791  -3.898  -2.568  0.00  0.00    -0.021 A 
ATOM     14  C   UNL     1      -4.818  -3.273  -3.800  0.00  0.00    +0.009 A 
ATOM     15  C   UNL     1      -4.695  -4.019  -4.957  0.00  0.00    +0.039 A 
ATOM     16  C   UNL     1      -4.543  -5.393  -4.881  0.00  0.00    +0.123 A 
ATOM     17  C   UNL     1      -4.516  -6.018  -3.646  0.00  0.00    +0.039 A 
ATOM     18  C   UNL     1      -4.634  -5.269  -2.490  0.00  0.00    +0.009 A 
ATOM     19  F   UNL     1      -4.423  -6.124  -6.011  0.00  0.00    -0.205 F 
ENDBRANCH  10  13
ENDBRANCH   1   2
BRANCH   1  20
ATOM     20  C   UNL     1      -1.193  -2.095  -0.486  0.00  0.00    +0.101 C 
BRANCH  20  31
ATOM     21  C   UNL     1       3.833  -4.685   0.201  0.00  0.00    +0.002 A 
ATOM     22  C   UNL     1       4.877  -3.965   0.751  0.00  0.00    +0.004 A 
ATOM     23  C   UNL     1       4.723  -2.622   1.039  0.00  0.00    +0.047 A 
ATOM     24  C   UNL     1       3.516  -1.990   0.777  0.00  0.00    +0.143 A 
ATOM     25  C   UNL     1       2.466  -2.718   0.225  0.00  0.00    +0.078 A 
ATOM     26  C   UNL     1       2.627  -4.064  -0.063  0.00  0.00    +0.027 A 
ATOM     27  N   UNL     1       1.239  -2.084  -0.036  0.00  0.00    -0.264 N 
ATOM     28  C   UNL     1       1.210  -0.611  -0.005  0.00  0.00    +0.168 C 
ATOM     29  C   UNL     1       2.047  -0.156   1.199  0.00  0.00    +0.276 C 
ATOM     30  O   UNL     1       3.374  -0.668   1.058  0.00  0.00    -0.476 OA
ATOM     31  C   UNL     1       0.128  -2.797  -0.304  0.00  0.00    +0.220 C 
ATOM     32  O   UNL     1       0.191  -4.005  -0.399  0.00  0.00    -0.275 OA
BRANCH  29  33
ATOM     33  C   UNL     1       2.086   1.350   1.246  0.00  0.00    +0.253 C 
ATOM     34  O   UNL     1       3.137   1.935   1.087  0.00  0.00    -0.272 OA
ATOM     35  N   UNL     1       0.954   2.047   1.465  0.00  0.00    -0.326 N 
ATOM     36  H   UNL     1       0.113   1.580   1.592  0.00  0.00    +0.145 HD
ATOM     37  H   UNL     1       0.979   3.016   1.495  0.00  0.00    +0.145 HD
ENDBRANCH  29  33
ENDBRANCH  20  31
ENDBRANCH   1  20
TORSDOF 5
