REMARK  Name = ZINC13033521
REMARK  10 active torsions:
REMARK  status: ('A' for Active; 'I' for Inactive)
REMARK    1  A    between atoms: C_1  and  O_2
REMARK    2  A    between atoms: O_2  and  C_3
REMARK    3  A    between atoms: C_7  and  C_17
REMARK    4  A    between atoms: C_14  and  O_15
REMARK    5  A    between atoms: O_15  and  C_16
REMARK    6  A    between atoms: C_17  and  N_71
REMARK    7  A    between atoms: C_18  and  C_19
REMARK    8  A    between atoms: C_18  and  N_71
REMARK    9  A    between atoms: N_23  and  C_24
REMARK   10  A    between atoms: C_30  and  N_71
REMARK                            x       y       z     vdW  Elec       q    Type
REMARK                         _______ _______ _______ _____ _____    ______ ____
ROOT
ATOM      1  N   UNL     1      -5.322   4.146  -1.275  0.00  0.00    +0.389 N 
ATOM      2  H   UNL     1      -4.441   4.461  -1.698  0.00  0.00    -0.080 HD
ENDROOT
BRANCH   1   3
ATOM      3  C   UNL     1      -5.663   2.812  -1.814  0.00  0.00    -0.068 C 
ATOM      4  C   UNL     1      -5.305   2.779  -3.301  0.00  0.00    -0.015 C 
ATOM      5  C   UNL     1      -5.635   1.399  -3.874  0.00  0.00    -0.002 C 
ATOM      6  C   UNL     1      -7.129   1.120  -3.704  0.00  0.00    -0.000 C 
ATOM      7  C   UNL     1      -7.488   1.153  -2.217  0.00  0.00    -0.002 C 
ATOM      8  C   UNL     1      -7.158   2.533  -1.643  0.00  0.00    -0.015 C 
ENDBRANCH   1   3
BRANCH   1   9
ATOM      9  C   UNL     1      -5.151   4.069   0.191  0.00  0.00    -0.037 C 
BRANCH   9  14
ATOM     10  C   UNL     1       0.925   3.870   1.402  0.00  0.00    +0.162 A 
ATOM     11  C   UNL     1      -0.286   4.473   1.138  0.00  0.00    +0.059 A 
ATOM     12  C   UNL     1      -1.428   3.682   0.956  0.00  0.00    +0.002 A 
ATOM     13  C   UNL     1      -2.728   4.289   0.675  0.00  0.00    +0.017 A 
ATOM     14  C   UNL     1      -3.798   3.475   0.488  0.00  0.00    +0.001 A 
ATOM     15  C   UNL     1      -3.651   2.076   0.585  0.00  0.00    +0.251 A 
ATOM     16  O   UNL     1      -4.628   1.364   0.425  0.00  0.00    -0.268 OA
ATOM     17  N   UNL     1      -2.462   1.508   0.849  0.00  0.00    -0.322 N 
ATOM     18  H   UNL     1      -2.397   0.542   0.908  0.00  0.00    +0.169 HD
ATOM     19  C   UNL     1      -1.333   2.279   1.036  0.00  0.00    +0.053 A 
ATOM     20  C   UNL     1      -0.105   1.688   1.308  0.00  0.00    +0.075 A 
ATOM     21  C   UNL     1       1.016   2.477   1.487  0.00  0.00    +0.163 A 
BRANCH  10  23
ATOM     22  C   UNL     1       1.874   6.050   1.479  0.00  0.00    +0.277 C 
ATOM     23  O   UNL     1       2.037   4.634   1.579  0.00  0.00    -0.491 OA
ENDBRANCH  10  23
BRANCH  21  24
ATOM     24  O   UNL     1       2.215   1.895   1.748  0.00  0.00    -0.491 OA
ATOM     25  C   UNL     1       2.241   0.469   1.822  0.00  0.00    +0.277 C 
ENDBRANCH  21  24
ENDBRANCH   9  14
ENDBRANCH   1   9
BRANCH   1  26
ATOM     26  C   UNL     1      -6.388   5.113  -1.609  0.00  0.00    +0.001 C 
BRANCH  26  27
ATOM     27  C   UNL     1      -6.284   5.462  -3.071  0.00  0.00    +0.135 A 
ATOM     28  N   UNL     1      -7.030   4.994  -4.042  0.00  0.00    -0.115 NA
ATOM     29  N   UNL     1      -6.633   5.531  -5.144  0.00  0.00    -0.023 NA
ATOM     30  N   UNL     1      -5.652   6.329  -4.901  0.00  0.00    -0.044 NA
ATOM     31  N   UNL     1      -5.411   6.318  -3.634  0.00  0.00    -0.228 N 
BRANCH  31  32
ATOM     32  C   UNL     1      -4.378   7.090  -2.937  0.00  0.00    +0.111 C 
ATOM     33  C   UNL     1      -4.623   8.584  -3.157  0.00  0.00    +0.027 C 
ATOM     34  C   UNL     1      -3.545   9.390  -2.430  0.00  0.00    +0.002 C 
ATOM     35  C   UNL     1      -2.168   9.012  -2.980  0.00  0.00    +0.000 C 
ATOM     36  C   UNL     1      -1.923   7.518  -2.761  0.00  0.00    +0.002 C 
ATOM     37  C   UNL     1      -3.001   6.712  -3.488  0.00  0.00    +0.027 C 
ENDBRANCH  31  32
ENDBRANCH  26  27
ENDBRANCH   1  26
TORSDOF 8
