REMARK  Name = ZINC58982645
REMARK  5 active torsions:
REMARK  status: ('A' for Active; 'I' for Inactive)
REMARK    1  A    between atoms: C_1  and  C_2
REMARK    2  A    between atoms: C_2  and  C_3
REMARK    3  A    between atoms: C_2  and  N_9
REMARK    4  A    between atoms: C_11  and  C_15
REMARK    5  A    between atoms: C_15  and  N_17
REMARK                            x       y       z     vdW  Elec       q    Type
REMARK                         _______ _______ _______ _____ _____    ______ ____
ROOT
ATOM      1  N   UNL     1       0.782  -0.446   1.128  0.00  0.00    -0.294 N 
ATOM      2  C   UNL     1       0.219  -1.399   2.091  0.00  0.00    +0.121 C 
ATOM      3  C   UNL     1       1.428  -1.956   2.875  0.00  0.00    +0.103 C 
ATOM      4  C   UNL     1       2.452  -0.806   2.733  0.00  0.00    +0.110 C 
ATOM      5  C   UNL     1       2.035  -0.095   1.464  0.00  0.00    +0.217 C 
ATOM      6  O   UNL     1       2.730   0.680   0.842  0.00  0.00    -0.276 OA
ENDROOT
BRANCH   1   8
ATOM      7  C   UNL     1      -0.011   1.582   0.014  0.00  0.00    +0.033 C 
ATOM      8  C   UNL     1       0.071   0.056  -0.051  0.00  0.00    +0.103 C 
BRANCH   8   9
ATOM      9  C   UNL     1       0.812  -0.356  -1.296  0.00  0.00    -0.027 A 
ATOM     10  C   UNL     1       1.536  -1.534  -1.313  0.00  0.00    +0.005 A 
ATOM     11  C   UNL     1       2.216  -1.911  -2.456  0.00  0.00    +0.000 A 
ATOM     12  C   UNL     1       2.171  -1.111  -3.583  0.00  0.00    +0.000 A 
ATOM     13  C   UNL     1       1.447   0.067  -3.566  0.00  0.00    +0.000 A 
ATOM     14  C   UNL     1       0.764   0.442  -2.425  0.00  0.00    +0.005 A 
ENDBRANCH   8   9
ENDBRANCH   1   8
BRANCH   3  15
ATOM     15  C   UNL     1       1.946  -3.221   2.241  0.00  0.00    +0.244 C 
ATOM     16  O   UNL     1       1.411  -3.664   1.244  0.00  0.00    -0.273 OA
BRANCH  15  17
ATOM     17  N   UNL     1       2.988  -3.853   2.773  0.00  0.00    -0.147 NA
ATOM     18  C   UNL     1       3.516  -4.904   2.153  0.00  0.00    +0.198 A 
ATOM     19  N   UNL     1       3.013  -5.494   1.036  0.00  0.00    -0.326 N 
ATOM     20  H   UNL     1       2.213  -5.220   0.561  0.00  0.00    +0.169 HD
ATOM     21  C   UNL     1       3.842  -6.556   0.693  0.00  0.00    +0.065 A 
ATOM     22  C   UNL     1       3.812  -7.487  -0.336  0.00  0.00    +0.028 A 
ATOM     23  C   UNL     1       4.799  -8.450  -0.422  0.00  0.00    +0.002 A 
ATOM     24  C   UNL     1       5.818  -8.490   0.514  0.00  0.00    +0.002 A 
ATOM     25  C   UNL     1       5.856  -7.569   1.542  0.00  0.00    +0.028 A 
ATOM     26  C   UNL     1       4.870  -6.598   1.637  0.00  0.00    +0.065 A 
ATOM     27  N   UNL     1       4.647  -5.556   2.532  0.00  0.00    -0.326 N 
ATOM     28  H   UNL     1       5.202  -5.334   3.296  0.00  0.00    +0.169 HD
ENDBRANCH  15  17
ENDBRANCH   3  15
TORSDOF 4
