REMARK  Name = ZINC41907523
REMARK  4 active torsions:
REMARK  status: ('A' for Active; 'I' for Inactive)
REMARK    1  A    between atoms: C_1  and  C_2
REMARK    2  A    between atoms: C_2  and  C_4
REMARK    3  A    between atoms: C_10  and  C_12
REMARK    4  A    between atoms: C_12  and  C_15
REMARK                            x       y       z     vdW  Elec       q    Type
REMARK                         _______ _______ _______ _____ _____    ______ ____
ROOT
ATOM      1  C   UNL     1       1.712  -3.474  -2.240  0.00  0.00    +0.115 A 
ATOM      2  C   UNL     1       0.576  -3.003  -1.611  0.00  0.00    +0.079 A 
ATOM      3  S   UNL     1      -0.184  -2.132  -2.834  0.00  0.00    -0.060 S 
ATOM      4  C   UNL     1       1.008  -2.411  -4.132  0.00  0.00    +0.165 A 
ATOM      5  N   UNL     1       1.909  -3.152  -3.524  0.00  0.00    -0.222 NA
ATOM      6  N   UNL     1       0.991  -1.958  -5.444  0.00  0.00    -0.264 N 
ATOM      7  C   UNL     1      -0.030  -1.195  -5.880  0.00  0.00    +0.229 C 
ATOM      8  O   UNL     1      -0.980  -0.981  -5.157  0.00  0.00    -0.274 OA
ATOM      9  H   UNL     1       1.715  -2.190  -6.046  0.00  0.00    +0.157 HD
ENDROOT
BRANCH   1  11
ATOM     10  C   UNL     1       3.916  -4.799  -2.220  0.00  0.00    +0.093 C 
ATOM     11  C   UNL     1       2.679  -4.300  -1.518  0.00  0.00    +0.179 C 
ATOM     12  O   UNL     1       2.486  -4.582  -0.353  0.00  0.00    -0.291 OA
ENDBRANCH   1  11
BRANCH   7  13
ATOM     13  C   UNL     1       0.007  -0.608  -7.268  0.00  0.00    +0.072 C 
ATOM     14  C   UNL     1      -1.256  -0.732  -8.122  0.00  0.00    +0.022 C 
ATOM     15  C   UNL     1      -0.026  -1.581  -8.448  0.00  0.00    +0.022 C 
BRANCH  13  16
ATOM     16  C   UNL     1       0.831   0.645  -7.422  0.00  0.00    -0.032 A 
ATOM     17  C   UNL     1       1.434   0.931  -8.632  0.00  0.00    +0.006 A 
ATOM     18  C   UNL     1       2.189   2.080  -8.774  0.00  0.00    +0.015 A 
ATOM     19  C   UNL     1       2.342   2.943  -7.704  0.00  0.00    +0.018 A 
ATOM     20  C   UNL     1       1.738   2.657  -6.493  0.00  0.00    +0.015 A 
ATOM     21  C   UNL     1       0.979   1.510  -6.354  0.00  0.00    +0.006 A 
ATOM     22 BR   UNL     1       3.376   4.515  -7.897  0.00  0.00    -0.050 Br
ENDBRANCH  13  16
ENDBRANCH   7  13
TORSDOF 3
