REMARK  Name = ZINC27667676
REMARK  16 active torsions:
REMARK  status: ('A' for Active; 'I' for Inactive)
REMARK    1  A    between atoms: C_1  and  C_2
REMARK    2  A    between atoms: C_2  and  C_3
REMARK    3  A    between atoms: C_2  and  C_4
REMARK    4  A    between atoms: C_4  and  C_6
REMARK    5  A    between atoms: C_4  and  N_26
REMARK    6  A    between atoms: N_8  and  C_9
REMARK    7  A    between atoms: C_9  and  C_10
REMARK    8  A    between atoms: C_10  and  C_12
REMARK    9  A    between atoms: C_10  and  N_20
REMARK   10  A    between atoms: C_15  and  O_18
REMARK   11  A    between atoms: O_18  and  C_19
REMARK   12  A    between atoms: C_27  and  C_29
REMARK   13  A    between atoms: C_31  and  O_37
REMARK   14  A    between atoms: C_33  and  O_35
REMARK   15  A    between atoms: O_35  and  C_36
REMARK   16  A    between atoms: O_37  and  C_38
REMARK                            x       y       z     vdW  Elec       q    Type
REMARK                         _______ _______ _______ _____ _____    ______ ____
ROOT
ATOM      1  C   UNL     1      -0.844   1.379   1.247  0.00  0.00    +0.234 C 
ATOM      2  O   UNL     1      -1.933   1.905   1.151  0.00  0.00    -0.274 OA
ATOM      3  N   UNL     1      -0.301   1.172   2.463  0.00  0.00    -0.315 N 
ATOM      4  H   UNL     1       0.686   0.695   2.550  0.00  0.00    +0.149 HD
ENDROOT
BRANCH   1   5
ATOM      5  C   UNL     1      -0.099   0.957   0.007  0.00  0.00    +0.162 C 
BRANCH   5   6
ATOM      6  N   UNL     1      -0.895   1.289  -1.177  0.00  0.00    -0.300 N 
ATOM      7  C   UNL     1      -0.719   0.600  -2.322  0.00  0.00    +0.245 C 
ATOM      8  O   UNL     1       0.100  -0.297  -2.372  0.00  0.00    -0.270 OA
ATOM      9  H   UNL     1      -1.636   2.101  -1.133  0.00  0.00    +0.150 HD
BRANCH   7  10
ATOM     10  C   UNL     1      -1.522   0.935  -3.518  0.00  0.00    +0.044 A 
ATOM     11  C   UNL     1      -2.467   1.960  -3.461  0.00  0.00    +0.059 A 
ATOM     12  C   UNL     1      -3.212   2.274  -4.585  0.00  0.00    +0.124 A 
ATOM     13  C   UNL     1      -3.030   1.563  -5.763  0.00  0.00    +0.091 A 
ATOM     14  C   UNL     1      -2.096   0.539  -5.821  0.00  0.00    +0.124 A 
ATOM     15  C   UNL     1      -1.341   0.222  -4.704  0.00  0.00    +0.059 A 
BRANCH  14  16
ATOM     16  O   UNL     1      -1.920  -0.154  -6.977  0.00  0.00    -0.495 OA
ATOM     17  C   UNL     1      -2.731   0.226  -8.091  0.00  0.00    +0.277 C 
ENDBRANCH  14  16
BRANCH  12  18
ATOM     18  O   UNL     1      -4.129   3.277  -4.533  0.00  0.00    -0.495 OA
ATOM     19  C   UNL     1      -4.867   3.543  -5.727  0.00  0.00    +0.277 C 
ENDBRANCH  12  18
ENDBRANCH   7  10
ENDBRANCH   5   6
BRANCH   5  21
ATOM     20  C   UNL     1       1.998   1.264  -1.316  0.00  0.00    +0.009 C 
ATOM     21  C   UNL     1       1.241   1.692  -0.057  0.00  0.00    +0.012 C 
ATOM     22  C   UNL     1       0.994   3.201  -0.099  0.00  0.00    +0.009 C 
ENDBRANCH   5  21
ENDBRANCH   1   5
BRANCH   3  23
ATOM     23  C   UNL     1      -1.026   1.582   3.668  0.00  0.00    +0.093 C 
BRANCH  23  24
ATOM     24  C   UNL     1      -0.262   1.111   4.908  0.00  0.00    -0.020 C 
BRANCH  24  25
ATOM     25  N   UNL     1      -0.950   1.584   6.116  0.00  0.00    +0.385 N 
ATOM     26  C   UNL     1      -1.077   3.047   6.110  0.00  0.00    -0.078 C 
ATOM     27  C   UNL     1      -1.922   3.492   7.306  0.00  0.00    -0.019 C 
ATOM     28  C   UNL     1      -1.251   3.025   8.601  0.00  0.00    -0.004 C 
ATOM     29  C   UNL     1      -1.087   1.503   8.561  0.00  0.00    -0.019 C 
ATOM     30  C   UNL     1      -0.266   1.116   7.329  0.00  0.00    -0.078 C 
ATOM     31  H   UNL     1      -1.964   1.159   6.118  0.00  0.00    -0.081 HD
ENDBRANCH  24  25
BRANCH  24  32
ATOM     32  C   UNL     1      -0.205  -0.395   4.920  0.00  0.00    -0.059 A 
ATOM     33  C   UNL     1      -1.294  -1.124   5.362  0.00  0.00    +0.005 A 
ATOM     34  C   UNL     1      -1.247  -2.504   5.368  0.00  0.00    +0.046 A 
ATOM     35  C   UNL     1      -0.101  -3.160   4.942  0.00  0.00    +0.120 A 
ATOM     36  C   UNL     1       0.992  -2.427   4.504  0.00  0.00    +0.046 A 
ATOM     37  C   UNL     1       0.938  -1.046   4.494  0.00  0.00    +0.005 A 
BRANCH  35  38
ATOM     38  O   UNL     1      -0.050  -4.518   4.954  0.00  0.00    -0.495 OA
ATOM     39  C   UNL     1      -1.212  -5.207   5.417  0.00  0.00    +0.277 C 
ENDBRANCH  35  38
ENDBRANCH  24  32
ENDBRANCH  23  24
ENDBRANCH   3  23
TORSDOF 11
