REMARK  Name = ZINC20856470
REMARK  8 active torsions:
REMARK  status: ('A' for Active; 'I' for Inactive)
REMARK    1  A    between atoms: C_1  and  C_2
REMARK    2  A    between atoms: C_2  and  C_4
REMARK    3  A    between atoms: C_2  and  O_16
REMARK    4  A    between atoms: N_6  and  C_7
REMARK    5  A    between atoms: C_10  and  C_13
REMARK    6  A    between atoms: C_13  and  C_15
REMARK    7  A    between atoms: O_16  and  C_17
REMARK    8  A    between atoms: C_17  and  C_19
REMARK                            x       y       z     vdW  Elec       q    Type
REMARK                         _______ _______ _______ _____ _____    ______ ____
ROOT
ATOM      1  O   UNL     1      -8.875  -0.009  -0.242  0.00  0.00    -0.449 OA
ENDROOT
BRANCH   1   3
ATOM      2  C   UNL     1     -10.019  -2.077  -0.829  0.00  0.00    +0.062 C 
ATOM      3  C   UNL     1     -10.008  -0.554  -0.968  0.00  0.00    +0.259 C 
BRANCH   3   4
ATOM      4  C   UNL     1     -11.286   0.011  -0.401  0.00  0.00    +0.258 C 
ATOM      5  O   UNL     1     -11.244   0.795   0.523  0.00  0.00    -0.271 OA
ATOM      6  N   UNL     1     -12.474  -0.355  -0.922  0.00  0.00    -0.282 N 
ATOM      7  H   UNL     1     -12.509  -0.997  -1.814  0.00  0.00    +0.155 HD
BRANCH   6   8
ATOM      8  C   UNL     1     -13.657   0.080  -0.330  0.00  0.00    +0.034 A 
ATOM      9  C   UNL     1     -14.771   0.347  -1.121  0.00  0.00    +0.024 A 
ATOM     10  C   UNL     1     -15.940   0.771  -0.542  0.00  0.00    +0.013 A 
ATOM     11  C   UNL     1     -16.008   0.945   0.846  0.00  0.00    +0.017 A 
ATOM     12  C   UNL     1     -14.883   0.679   1.637  0.00  0.00    +0.013 A 
ATOM     13  C   UNL     1     -13.721   0.251   1.050  0.00  0.00    +0.024 A 
BRANCH  11  14
ATOM     14  C   UNL     1     -17.256   1.403   1.471  0.00  0.00    +0.160 C 
ATOM     15  O   UNL     1     -17.313   1.552   2.673  0.00  0.00    -0.292 OA
ATOM     16  C   UNL     1     -18.465   1.687   0.617  0.00  0.00    +0.091 C 
ENDBRANCH  11  14
ENDBRANCH   6   8
ENDBRANCH   3   4
ENDBRANCH   1   3
BRANCH   1  17
ATOM     17  C   UNL     1      -7.720   0.125  -0.923  0.00  0.00    +0.340 C 
ATOM     18  O   UNL     1      -7.662  -0.203  -2.092  0.00  0.00    -0.245 OA
BRANCH  17  19
ATOM     19  C   UNL     1      -6.526   0.671  -0.251  0.00  0.00    +0.060 A 
ATOM     20  C   UNL     1      -6.611   1.045   1.095  0.00  0.00    +0.017 A 
ATOM     21  C   UNL     1      -5.542   1.558   1.781  0.00  0.00    +0.027 A 
ATOM     22  C   UNL     1      -4.342   1.702   1.083  0.00  0.00    +0.047 A 
ATOM     23  C   UNL     1      -4.242   1.327  -0.283  0.00  0.00    +0.004 A 
ATOM     24  C   UNL     1      -5.336   0.804  -0.973  0.00  0.00    +0.025 A 
ATOM     25  C   UNL     1      -2.877   1.609  -0.677  0.00  0.00    -0.019 A 
ATOM     26  C   UNL     1      -2.249   2.112   0.407  0.00  0.00    +0.020 A 
ATOM     27  N   UNL     1      -3.120   2.171   1.463  0.00  0.00    -0.358 N 
ATOM     28  H   UNL     1      -2.962   2.522   2.494  0.00  0.00    +0.166 HD
ATOM     29  C   UNL     1      -0.798   2.536   0.414  0.00  0.00    +0.053 C 
ATOM     30  C   UNL     1      -0.103   1.921  -0.806  0.00  0.00    +0.006 C 
ATOM     31  C   UNL     1      -0.926   2.216  -2.063  0.00  0.00    +0.005 C 
ATOM     32  C   UNL     1      -2.225   1.402  -2.021  0.00  0.00    +0.037 C 
ENDBRANCH  17  19
ENDBRANCH   1  17
TORSDOF 6
