REMARK  Name = ZINC20872957
REMARK  14 active torsions:
REMARK  status: ('A' for Active; 'I' for Inactive)
REMARK    1  A    between atoms: C_1  and  C_2
REMARK    2  A    between atoms: C_2  and  C_3
REMARK    3  A    between atoms: C_2  and  C_4
REMARK    4  A    between atoms: C_2  and  N_5
REMARK    5  A    between atoms: C_6  and  C_8
REMARK    6  A    between atoms: C_8  and  O_9
REMARK    7  A    between atoms: O_9  and  C_10
REMARK    8  A    between atoms: C_19  and  C_20
REMARK    9  A    between atoms: C_20  and  N_21
REMARK   10  A    between atoms: N_21  and  C_22
REMARK   11  A    between atoms: C_22  and  C_23
REMARK   12  A    between atoms: C_23  and  N_24
REMARK   13  A    between atoms: N_24  and  C_25
REMARK   14  A    between atoms: C_28  and  N_31
REMARK                            x       y       z     vdW  Elec       q    Type
REMARK                         _______ _______ _______ _____ _____    ______ ____
ROOT
ATOM      1  C   UNL     1       1.067   5.942   0.023  0.00  0.00    +0.123 A 
ATOM      2  C   UNL     1       2.292   5.268   0.007  0.00  0.00    +0.046 A 
ATOM      3  C   UNL     1       2.342   3.909   0.000  0.00  0.00    +0.012 A 
ATOM      4  C   UNL     1       1.148   3.167   0.008  0.00  0.00    -0.017 A 
ATOM      5  C   UNL     1       1.163   1.762   0.000  0.00  0.00    +0.008 A 
ATOM      6  C   UNL     1      -0.013   1.076   0.008  0.00  0.00    +0.001 A 
ATOM      7  C   UNL     1      -1.235   1.746   0.018  0.00  0.00    +0.001 A 
ATOM      8  C   UNL     1      -1.288   3.105   0.031  0.00  0.00    +0.009 A 
ATOM      9  C   UNL     1      -0.095   3.849   0.024  0.00  0.00    -0.013 A 
ATOM     10  C   UNL     1      -0.112   5.253   0.031  0.00  0.00    -0.015 A 
ENDROOT
BRANCH   1  11
ATOM     11  O   UNL     1       1.050   7.301   0.029  0.00  0.00    -0.483 OA
BRANCH  11  12
ATOM     12  C   UNL     1       2.315   7.966   0.020  0.00  0.00    +0.324 C 
BRANCH  12  14
ATOM     13  N   UNL     1       3.156  10.292   0.023  0.00  0.00    -0.308 N 
ATOM     14  C   UNL     1       2.098   9.457   0.029  0.00  0.00    +0.251 C 
ATOM     15  O   UNL     1       0.972   9.906   0.042  0.00  0.00    -0.272 OA
ATOM     16  H   UNL     1       4.178   9.885   0.012  0.00  0.00    +0.149 HD
BRANCH  13  18
ATOM     17  C   UNL     1       2.171  12.137   1.290  0.00  0.00    +0.031 C 
ATOM     18  C   UNL     1       2.946  11.742   0.032  0.00  0.00    +0.026 C 
ATOM     19  C   UNL     1       4.300  12.454   0.022  0.00  0.00    +0.031 C 
ATOM     20  C   UNL     1       2.147  12.149  -1.208  0.00  0.00    +0.031 C 
ENDBRANCH  13  18
ENDBRANCH  12  14
ENDBRANCH  11  12
ENDBRANCH   1  11
BRANCH  10  21
ATOM     21  C   UNL     1      -1.423   5.995   0.047  0.00  0.00    -0.042 C 
BRANCH  21  22
ATOM     22  N   UNL     1      -1.836   6.229   1.437  0.00  0.00    +0.383 N 
ATOM     23  H   UNL     1      -1.955   5.264   1.952  0.00  0.00    -0.085 HD
ATOM     24  H   UNL     1      -1.070   6.828   1.951  0.00  0.00    -0.085 HD
BRANCH  22  25
ATOM     25  C   UNL     1      -3.114   6.952   1.492  0.00  0.00    -0.063 C 
BRANCH  25  26
ATOM     26  C   UNL     1      -3.510   7.177   2.952  0.00  0.00    +0.082 C 
BRANCH  26  27
ATOM     27  N   UNL     1      -4.784   7.898   3.007  0.00  0.00    -0.346 N 
ATOM     28  H   UNL     1      -5.294   8.187   2.075  0.00  0.00    +0.146 HD
BRANCH  27  29
ATOM     29  C   UNL     1      -5.352   8.220   4.242  0.00  0.00    +0.027 A 
ATOM     30  C   UNL     1      -4.713   7.852   5.419  0.00  0.00    +0.025 A 
ATOM     31  C   UNL     1      -5.275   8.177   6.638  0.00  0.00    +0.034 A 
ATOM     32  C   UNL     1      -6.478   8.858   6.688  0.00  0.00    +0.126 A 
ATOM     33  C   UNL     1      -7.119   9.221   5.518  0.00  0.00    +0.034 A 
ATOM     34  C   UNL     1      -6.560   8.904   4.295  0.00  0.00    +0.025 A 
BRANCH  32  35
ATOM     35  N   UNL     1      -7.079   9.199   7.996  0.00  0.00    +0.056 N 
ATOM     36  O   UNL     1      -8.138   9.799   8.042  0.00  0.00    -0.126 OA
ATOM     37  O   UNL     1      -6.515   8.880   9.028  0.00  0.00    -0.126 OA
ENDBRANCH  32  35
ENDBRANCH  27  29
ENDBRANCH  26  27
ENDBRANCH  25  26
ENDBRANCH  22  25
ENDBRANCH  21  22
ENDBRANCH  10  21
TORSDOF 11
