REMARK  Name = ZINC04083416
REMARK  9 active torsions:
REMARK  status: ('A' for Active; 'I' for Inactive)
REMARK    1  A    between atoms: C_1  and  C_2
REMARK    2  A    between atoms: C_2  and  O_4
REMARK    3  A    between atoms: O_4  and  C_5
REMARK    4  A    between atoms: C_11  and  C_37
REMARK    5  A    between atoms: C_19  and  O_36
REMARK    6  A    between atoms: C_23  and  C_35
REMARK    7  A    between atoms: N_28  and  O_34
REMARK    8  A    between atoms: C_29  and  C_32
REMARK    9  A    between atoms: C_29  and  C_33
REMARK                            x       y       z     vdW  Elec       q    Type
REMARK                         _______ _______ _______ _____ _____    ______ ____
ROOT
ATOM      1  C   UNL     1      -2.375  -0.505  -4.091  0.00  0.00    +0.183 C 
ATOM      2  C   UNL     1      -3.857  -0.626  -3.656  0.00  0.00    +0.045 C 
ATOM      3  C   UNL     1      -3.869  -0.506  -2.108  0.00  0.00    +0.008 C 
ATOM      4  C   UNL     1      -2.582   0.265  -1.809  0.00  0.00    +0.002 C 
ATOM      5  C   UNL     1      -1.580  -0.410  -2.793  0.00  0.00    +0.008 C 
ATOM      6  C   UNL     1      -0.328   0.444  -2.825  0.00  0.00    +0.011 C 
ATOM      7  C   UNL     1       0.294   0.398  -1.419  0.00  0.00    +0.005 C 
ATOM      8  C   UNL     1      -0.691   0.879  -0.360  0.00  0.00    -0.001 C 
ATOM      9  C   UNL     1      -2.014   0.095  -0.413  0.00  0.00    -0.001 C 
ATOM     10  C   UNL     1      -2.978   0.665   0.628  0.00  0.00    +0.035 C 
ATOM     11  C   UNL     1      -2.363   0.527   2.022  0.00  0.00    +0.119 C 
ATOM     12  C   UNL     1      -1.042   1.297   2.077  0.00  0.00    +0.028 C 
ATOM     13  C   UNL     1      -0.077   0.729   1.032  0.00  0.00    -0.024 C 
ATOM     14  C   UNL     1       1.246   1.494   1.091  0.00  0.00    +0.011 C 
ATOM     15  C   UNL     1       0.993   2.973   0.791  0.00  0.00    +0.054 C 
ATOM     16  C   UNL     1       0.022   3.543   1.826  0.00  0.00    +0.146 C 
ATOM     17  C   UNL     1      -1.299   2.776   1.780  0.00  0.00    +0.060 C 
ATOM     18  N   UNL     1       0.616   3.421   3.175  0.00  0.00    -0.152 NA
ATOM     19  C   UNL     1       1.225   4.759   3.415  0.00  0.00    +0.068 C 
ATOM     20  C   UNL     1       0.211   5.691   2.704  0.00  0.00    +0.186 C 
ATOM     21  O   UNL     1      -0.212   4.930   1.558  0.00  0.00    -0.355 OA
ATOM     22  C   UNL     1       1.299   5.068   4.912  0.00  0.00    +0.032 C 
ATOM     23  C   UNL     1       2.607   4.857   2.768  0.00  0.00    +0.032 C 
ATOM     24  C   UNL     1       0.175  -0.752   1.322  0.00  0.00    +0.012 C 
ATOM     25  C   UNL     1      -1.235  -1.815  -2.294  0.00  0.00    +0.015 C 
ENDROOT
BRANCH  18  26
ATOM     26  O   UNL     1       1.631   2.369   3.208  0.00  0.00    -0.309 OA
ATOM     27  H   UNL     1       1.852   2.113   2.320  0.00  0.00    +0.237 HD
ENDBRANCH  18  26
BRANCH  11  28
ATOM     28  O   UNL     1      -3.264   1.060   2.995  0.00  0.00    -0.391 OA
ATOM     29  H   UNL     1      -4.125   0.619   3.016  0.00  0.00    +0.210 HD
ENDBRANCH  11  28
BRANCH   1  30
ATOM     30  O   UNL     1      -1.973  -1.682  -4.842  0.00  0.00    -0.461 OA
BRANCH  30  32
ATOM     31  C   UNL     1      -1.668  -2.795  -7.024  0.00  0.00    +0.136 C 
ATOM     32  C   UNL     1      -2.067  -1.613  -6.179  0.00  0.00    +0.304 C 
ATOM     33  O   UNL     1      -2.471  -0.603  -6.705  0.00  0.00    -0.251 OA
ENDBRANCH  30  32
ENDBRANCH   1  30
TORSDOF 4
