REMARK  Name = ZINC50062304
REMARK  9 active torsions:
REMARK  status: ('A' for Active; 'I' for Inactive)
REMARK    1  A    between atoms: C_1  and  C_2
REMARK    2  A    between atoms: C_4  and  C_27
REMARK    3  A    between atoms: C_5  and  C_9
REMARK    4  A    between atoms: C_6  and  C_8
REMARK    5  A    between atoms: C_9  and  C_10
REMARK    6  A    between atoms: C_10  and  N_11
REMARK    7  A    between atoms: N_14  and  C_15
REMARK    8  A    between atoms: N_21  and  C_26
REMARK    9  A    between atoms: N_24  and  C_25
REMARK                            x       y       z     vdW  Elec       q    Type
REMARK                         _______ _______ _______ _____ _____    ______ ____
ROOT
ATOM      1  N   UNL     1       1.545  -6.229   0.123  0.00  0.00    -0.299 N 
ATOM      2  C   UNL     1       2.713  -6.902   0.119  0.00  0.00    +0.304 C 
ATOM      3  O   UNL     1       3.760  -6.303   0.274  0.00  0.00    -0.253 OA
ATOM      4  N   UNL     1       2.720  -8.238  -0.058  0.00  0.00    -0.269 N 
ATOM      5  H   UNL     1       0.710  -6.707  -0.001  0.00  0.00    +0.150 HD
ATOM      6  H   UNL     1       1.883  -8.726  -0.104  0.00  0.00    +0.156 HD
ENDROOT
BRANCH   4   7
ATOM      7  C   UNL     1       3.938  -8.922  -0.174  0.00  0.00    +0.037 A 
ATOM      8  C   UNL     1       4.054 -10.218   0.316  0.00  0.00    +0.025 A 
ATOM      9  C   UNL     1       5.251 -10.898   0.204  0.00  0.00    +0.030 A 
ATOM     10  C   UNL     1       6.340 -10.287  -0.399  0.00  0.00    +0.070 A 
ATOM     11  C   UNL     1       6.226  -8.985  -0.891  0.00  0.00    +0.071 A 
ATOM     12  C   UNL     1       5.022  -8.307  -0.782  0.00  0.00    +0.051 A 
ATOM     13  N   UNL     1       7.465  -8.649  -1.431  0.00  0.00    -0.295 N 
ATOM     14  C   UNL     1       8.296  -9.697  -1.274  0.00  0.00    +0.330 A 
ATOM     15  O   UNL     1       9.457  -9.731  -1.638  0.00  0.00    -0.246 OA
ATOM     16  N   UNL     1       7.647 -10.701  -0.655  0.00  0.00    -0.295 N 
ATOM     17  C   UNL     1       8.217 -12.005  -0.309  0.00  0.00    +0.154 C 
ATOM     18  C   UNL     1       7.807  -7.372  -2.062  0.00  0.00    +0.154 C 
ENDBRANCH   4   7
BRANCH   1  19
ATOM     19  C   UNL     1       1.536  -4.777   0.315  0.00  0.00    +0.110 C 
BRANCH  19  20
ATOM     20  C   UNL     1       0.095  -4.266   0.279  0.00  0.00    +0.054 C 
BRANCH  20  25
ATOM     21  C   UNL     1       0.058   1.463   1.036  0.00  0.00    +0.044 C 
ATOM     22  C   UNL     1       0.068  -0.031   0.838  0.00  0.00    -0.050 A 
ATOM     23  C   UNL     1       0.159  -0.559  -0.436  0.00  0.00    +0.007 A 
ATOM     24  C   UNL     1       0.168  -1.930  -0.617  0.00  0.00    -0.047 A 
ATOM     25  C   UNL     1       0.086  -2.772   0.476  0.00  0.00    -0.040 A 
ATOM     26  C   UNL     1      -0.004  -2.244   1.750  0.00  0.00    -0.047 A 
ATOM     27  C   UNL     1      -0.009  -0.873   1.932  0.00  0.00    +0.007 A 
ATOM     28  C   UNL     1      -0.094  -3.162   2.942  0.00  0.00    +0.044 C 
ATOM     29  C   UNL     1       0.266  -2.506  -2.006  0.00  0.00    +0.044 C 
ENDBRANCH  20  25
ENDBRANCH  19  20
ENDBRANCH   1  19
TORSDOF 4
