REMARK  Name = ZINC05017526
REMARK  8 active torsions:
REMARK  status: ('A' for Active; 'I' for Inactive)
REMARK    1  A    between atoms: C_1  and  O_2
REMARK    2  A    between atoms: O_2  and  C_3
REMARK    3  A    between atoms: C_6  and  C_9
REMARK    4  A    between atoms: C_11  and  C_23
REMARK    5  A    between atoms: C_12  and  C_17
REMARK    6  A    between atoms: C_17  and  N_51
REMARK    7  A    between atoms: C_23  and  O_25
REMARK    8  A    between atoms: O_25  and  C_26
REMARK                            x       y       z     vdW  Elec       q    Type
REMARK                         _______ _______ _______ _____ _____    ______ ____
ROOT
ATOM      1  C   UNL     1      -0.067   1.309  -0.237  0.00  0.00    +0.143 C 
ATOM      2  C   UNL     1       1.183   2.163  -0.179  0.00  0.00    +0.076 C 
ATOM      3  C   UNL     1       2.359   1.541   0.052  0.00  0.00    +0.008 C 
ATOM      4  N   UNL     1       2.418   0.188   0.228  0.00  0.00    -0.274 N 
ATOM      5  C   UNL     1       1.347  -0.614   0.187  0.00  0.00    +0.304 C 
ATOM      6  O   UNL     1       1.499  -1.808   0.355  0.00  0.00    -0.252 OA
ATOM      7  N   UNL     1       0.105  -0.140  -0.035  0.00  0.00    -0.288 N 
ATOM      8  H   UNL     1       3.286  -0.215   0.392  0.00  0.00    +0.156 HD
ATOM      9  H   UNL     1      -0.658  -0.739  -0.060  0.00  0.00    +0.151 HD
ENDROOT
BRANCH   1  13
ATOM     10  C   UNL     1      -1.890   1.899  -4.057  0.00  0.00    +0.120 A 
ATOM     11  C   UNL     1      -2.277   2.676  -2.975  0.00  0.00    +0.046 A 
ATOM     12  C   UNL     1      -1.686   2.483  -1.741  0.00  0.00    +0.009 A 
ATOM     13  C   UNL     1      -0.710   1.517  -1.584  0.00  0.00    -0.022 A 
ATOM     14  C   UNL     1      -0.318   0.745  -2.662  0.00  0.00    +0.009 A 
ATOM     15  C   UNL     1      -0.910   0.930  -3.897  0.00  0.00    +0.046 A 
BRANCH  10  17
ATOM     16  C   UNL     1      -2.021   1.251  -6.341  0.00  0.00    +0.277 C 
ATOM     17  O   UNL     1      -2.469   2.087  -5.272  0.00  0.00    -0.495 OA
ENDBRANCH  10  17
ENDBRANCH   1  13
BRANCH   2  18
ATOM     18  C   UNL     1       1.120   3.564  -0.362  0.00  0.00    +0.338 C 
ATOM     19  O   UNL     1       2.146   4.215  -0.433  0.00  0.00    -0.245 OA
BRANCH  18  20
ATOM     20  O   UNL     1      -0.077   4.179  -0.457  0.00  0.00    -0.465 OA
ATOM     21  C   UNL     1      -0.066   5.596  -0.641  0.00  0.00    +0.280 C 
ENDBRANCH  18  20
ENDBRANCH   2  18
BRANCH   3  22
ATOM     22  C   UNL     1       3.627   2.353   0.117  0.00  0.00    -0.026 C 
BRANCH  22  28
ATOM     23  C   UNL     1       4.583   1.267  -1.824  0.00  0.00    -0.078 C 
ATOM     24  C   UNL     1       4.990   1.482  -3.283  0.00  0.00    -0.019 C 
ATOM     25  C   UNL     1       6.132   2.500  -3.345  0.00  0.00    -0.004 C 
ATOM     26  C   UNL     1       5.678   3.806  -2.687  0.00  0.00    -0.019 C 
ATOM     27  C   UNL     1       5.251   3.523  -1.245  0.00  0.00    -0.078 C 
ATOM     28  N   UNL     1       4.133   2.556  -1.256  0.00  0.00    +0.383 N 
ATOM     29  H   UNL     1       3.375   2.930  -1.839  0.00  0.00    -0.081 HD
ENDBRANCH  22  28
ENDBRANCH   3  22
TORSDOF 6
