REMARK  Name = ZINC23618250
REMARK  7 active torsions:
REMARK  status: ('A' for Active; 'I' for Inactive)
REMARK    1  A    between atoms: C_3  and  C_6
REMARK    2  A    between atoms: C_6  and  C_7
REMARK    3  A    between atoms: C_9  and  S_13
REMARK    4  A    between atoms: S_13  and  C_14
REMARK    5  A    between atoms: C_17  and  S_23
REMARK    6  A    between atoms: C_19  and  N_20
REMARK    7  A    between atoms: S_23  and  N_26
REMARK                            x       y       z     vdW  Elec       q    Type
REMARK                         _______ _______ _______ _____ _____    ______ ____
ROOT
ATOM      1  C   UNL     1       3.937   5.570   4.107  0.00  0.00    +0.046 A 
ATOM      2  C   UNL     1       3.320   5.629   2.863  0.00  0.00    +0.019 A 
ATOM      3  C   UNL     1       2.700   6.793   2.456  0.00  0.00    +0.030 A 
ATOM      4  C   UNL     1       2.692   7.901   3.284  0.00  0.00    +0.108 A 
ATOM      5  C   UNL     1       3.305   7.846   4.523  0.00  0.00    +0.062 A 
ATOM      6  C   UNL     1       3.922   6.683   4.939  0.00  0.00    +0.142 A 
ENDROOT
BRANCH   6   7
ATOM      7  N   UNL     1       4.572   6.623   6.268  0.00  0.00    +0.058 N 
ATOM      8  O   UNL     1       4.558   7.591   6.991  0.00  0.00    -0.126 OA
ATOM      9  O   UNL     1       5.116   5.606   6.629  0.00  0.00    -0.126 OA
ENDBRANCH   6   7
BRANCH   4  10
ATOM     10  S   UNL     1       1.900   9.385   2.760  0.00  0.00    +0.061 S 
ATOM     11  O   UNL     1       2.504  10.446   3.488  0.00  0.00    -0.153 OA
ATOM     12  O   UNL     1       1.875   9.352   1.340  0.00  0.00    -0.153 OA
BRANCH  10  13
ATOM     13  N   UNL     1       0.324   9.303   3.263  0.00  0.00    -0.177 NA
ATOM     14  C   UNL     1      -0.706   8.705   2.403  0.00  0.00    +0.109 C 
ATOM     15  C   UNL     1      -1.439   7.617   3.194  0.00  0.00    +0.017 C 
ATOM     16  C   UNL     1      -1.977   8.215   4.496  0.00  0.00    +0.003 C 
ATOM     17  C   UNL     1      -0.810   8.726   5.345  0.00  0.00    +0.017 C 
ATOM     18  C   UNL     1      -0.069   9.821   4.580  0.00  0.00    +0.109 C 
ENDBRANCH  10  13
ENDBRANCH   4  10
BRANCH   1  19
ATOM     19  S   UNL     1       4.730   4.087   4.631  0.00  0.00    -0.048 S 
BRANCH  19  22
ATOM     20  C   UNL     1       8.292   5.412   3.863  0.00  0.00    +0.157 A 
ATOM     21  N   UNL     1       6.962   5.501   3.865  0.00  0.00    -0.205 NA
ATOM     22  C   UNL     1       6.446   4.419   4.410  0.00  0.00    +0.189 A 
ATOM     23  N   UNL     1       7.466   3.610   4.768  0.00  0.00    -0.253 N 
ATOM     24  H   UNL     1       7.397   2.741   5.193  0.00  0.00    +0.191 HD
ATOM     25  N   UNL     1       8.646   4.275   4.399  0.00  0.00    -0.156 NA
BRANCH  20  26
ATOM     26  C   UNL     1       9.237   6.455   3.323  0.00  0.00    +0.120 C 
BRANCH  26  29
ATOM     27  C   UNL     1       9.261   6.257  -0.481  0.00  0.00    +0.008 A 
ATOM     28  C   UNL     1       8.833   6.639   0.777  0.00  0.00    +0.011 A 
ATOM     29  C   UNL     1       9.502   6.185   1.865  0.00  0.00    -0.003 A 
ATOM     30  S   UNL     1      10.781   5.185   1.121  0.00  0.00    -0.101 S 
ATOM     31  C   UNL     1      10.336   5.439  -0.589  0.00  0.00    +0.045 A 
ENDBRANCH  26  29
ENDBRANCH  20  26
ENDBRANCH  19  22
ENDBRANCH   1  19
TORSDOF 7
