REMARK  Name = ZINC45258251
REMARK  9 active torsions:
REMARK  status: ('A' for Active; 'I' for Inactive)
REMARK    1  A    between atoms: C_1  and  C_2
REMARK    2  A    between atoms: C_5  and  S_27
REMARK    3  A    between atoms: C_7  and  C_8
REMARK    4  A    between atoms: C_8  and  O_10
REMARK    5  A    between atoms: O_10  and  C_11
REMARK    6  A    between atoms: C_11  and  C_13
REMARK    7  A    between atoms: C_11  and  C_14
REMARK    8  A    between atoms: N_16  and  C_17
REMARK    9  A    between atoms: S_27  and  N_30
REMARK                            x       y       z     vdW  Elec       q    Type
REMARK                         _______ _______ _______ _____ _____    ______ ____
ROOT
ATOM      1  O   UNL     1       0.495  -0.663   3.628  0.00  0.00    -0.449 OA
ENDROOT
BRANCH   1   2
ATOM      2  C   UNL     1       0.274   0.009   2.482  0.00  0.00    +0.340 C 
ATOM      3  O   UNL     1       0.155   1.217   2.499  0.00  0.00    -0.245 OA
BRANCH   2  10
ATOM      4  C   UNL     1      -0.056   1.478   0.011  0.00  0.00    +0.044 C 
ATOM      5  C   UNL     1       0.017  -0.027   0.005  0.00  0.00    -0.036 A 
ATOM      6  C   UNL     1      -0.068  -0.718  -1.186  0.00  0.00    +0.006 A 
ATOM      7  C   UNL     1      -0.000  -2.100  -1.194  0.00  0.00    +0.029 A 
ATOM      8  C   UNL     1       0.152  -2.799  -0.009  0.00  0.00    +0.106 A 
ATOM      9  C   UNL     1       0.238  -2.120   1.189  0.00  0.00    +0.043 A 
ATOM     10  C   UNL     1       0.177  -0.725   1.203  0.00  0.00    +0.064 A 
BRANCH   8  11
ATOM     11  S   UNL     1       0.235  -4.558  -0.031  0.00  0.00    +0.056 S 
ATOM     12  O   UNL     1      -0.169  -5.000   1.258  0.00  0.00    -0.153 OA
ATOM     13  O   UNL     1      -0.417  -4.981  -1.220  0.00  0.00    -0.153 OA
BRANCH  11  14
ATOM     14  N   UNL     1       1.831  -4.971  -0.194  0.00  0.00    -0.204 NA
ATOM     15  H   UNL     1       2.507  -4.279  -0.256  0.00  0.00    +0.144 HD
ATOM     16  H   UNL     1       2.089  -5.905  -0.227  0.00  0.00    +0.144 HD
ENDBRANCH  11  14
ENDBRANCH   8  11
ENDBRANCH   2  10
ENDBRANCH   1   2
BRANCH   1  17
ATOM     17  C   UNL     1       0.578   0.110   4.827  0.00  0.00    +0.259 C 
ATOM     18  C   UNL     1       2.030   0.529   5.065  0.00  0.00    +0.062 C 
BRANCH  17  19
ATOM     19  C   UNL     1       0.096  -0.716   5.992  0.00  0.00    +0.258 C 
ATOM     20  O   UNL     1      -0.195  -1.882   5.829  0.00  0.00    -0.271 OA
ATOM     21  N   UNL     1      -0.011  -0.159   7.215  0.00  0.00    -0.282 N 
ATOM     22  H   UNL     1       0.151   0.790   7.331  0.00  0.00    +0.155 HD
BRANCH  21  23
ATOM     23  C   UNL     1      -0.357  -0.950   8.316  0.00  0.00    +0.034 A 
ATOM     24  C   UNL     1      -1.260  -2.007   8.153  0.00  0.00    +0.024 A 
ATOM     25  C   UNL     1      -1.614  -2.791   9.205  0.00  0.00    +0.010 A 
ATOM     26  C   UNL     1      -1.069  -2.546  10.477  0.00  0.00    -0.018 A 
ATOM     27  C   UNL     1      -1.416  -3.341  11.583  0.00  0.00    +0.008 A 
ATOM     28  C   UNL     1      -0.870  -3.076  12.801  0.00  0.00    +0.001 A 
ATOM     29  C   UNL     1       0.031  -2.027  12.972  0.00  0.00    +0.001 A 
ATOM     30  C   UNL     1       0.391  -1.235  11.925  0.00  0.00    +0.008 A 
ATOM     31  C   UNL     1      -0.152  -1.478  10.651  0.00  0.00    -0.016 A 
ATOM     32  C   UNL     1       0.200  -0.685   9.547  0.00  0.00    +0.031 A 
ENDBRANCH  21  23
ENDBRANCH  17  19
ENDBRANCH   1  17
TORSDOF 7
