REMARK  Name = ZINC36374574
REMARK  11 active torsions:
REMARK  status: ('A' for Active; 'I' for Inactive)
REMARK    1  A    between atoms: C_1  and  C_2
REMARK    2  A    between atoms: C_2  and  C_3
REMARK    3  A    between atoms: C_2  and  C_4
REMARK    4  A    between atoms: C_8  and  C_32
REMARK    5  A    between atoms: C_11  and  O_31
REMARK    6  A    between atoms: C_13  and  C_29
REMARK    7  A    between atoms: C_13  and  O_30
REMARK    8  A    between atoms: C_16  and  O_18
REMARK    9  A    between atoms: O_18  and  C_19
REMARK   10  A    between atoms: C_19  and  C_21
REMARK   11  A    between atoms: C_22  and  C_23
REMARK                            x       y       z     vdW  Elec       q    Type
REMARK                         _______ _______ _______ _____ _____    ______ ____
ROOT
ATOM      1  C   UNL     1       0.785  -0.888  -1.588  0.00  0.00    +0.033 C 
ATOM      2  C   UNL     1       1.165  -2.343  -1.874  0.00  0.00    +0.008 C 
ATOM      3  C   UNL     1       1.929  -2.380  -3.194  0.00  0.00    +0.007 C 
ATOM      4  C   UNL     1       3.214  -1.553  -3.110  0.00  0.00    -0.023 C 
ATOM      5  C   UNL     1       4.212  -2.250  -2.189  0.00  0.00    +0.010 C 
ATOM      6  C   UNL     1       5.530  -1.483  -2.161  0.00  0.00    +0.035 C 
ATOM      7  C   UNL     1       5.330  -0.042  -1.722  0.00  0.00    +0.146 C 
ATOM      8  C   UNL     1       4.223   0.675  -2.477  0.00  0.00    +0.096 C 
ATOM      9  C   UNL     1       2.943  -0.133  -2.633  0.00  0.00    +0.070 C 
ATOM     10  C   UNL     1       2.075  -0.082  -1.384  0.00  0.00    +0.186 C 
ATOM     11  C   UNL     1       3.925   2.000  -1.750  0.00  0.00    +0.044 C 
ATOM     12  C   UNL     1       3.796  -1.517  -4.536  0.00  0.00    +0.011 C 
ENDROOT
BRANCH   1  14
ATOM     13  C   UNL     1      -0.524   0.621  -0.090  0.00  0.00    +0.007 C 
ATOM     14  C   UNL     1      -0.062  -0.819  -0.317  0.00  0.00    -0.011 C 
ATOM     15  C   UNL     1      -1.283  -1.729  -0.468  0.00  0.00    +0.007 C 
ENDBRANCH   1  14
BRANCH   8  16
ATOM     16  O   UNL     1       4.721   1.040  -3.779  0.00  0.00    -0.386 OA
ATOM     17  H   UNL     1       5.489   1.627  -3.756  0.00  0.00    +0.210 HD
ENDBRANCH   8  16
BRANCH   7  18
ATOM     18  O   UNL     1       5.129   0.032  -0.311  0.00  0.00    -0.389 OA
ATOM     19  H   UNL     1       5.866  -0.314   0.210  0.00  0.00    +0.210 HD
ENDBRANCH   7  18
BRANCH  10  20
ATOM     20  O   UNL     1       2.753  -0.598  -0.242  0.00  0.00    -0.458 OA
BRANCH  20  21
ATOM     21  C   UNL     1       2.698   0.138   0.887  0.00  0.00    +0.332 C 
ATOM     22  O   UNL     1       2.172   1.235   0.873  0.00  0.00    -0.246 OA
BRANCH  21  23
ATOM     23  C   UNL     1       3.271  -0.382   2.128  0.00  0.00    +0.092 C 
ATOM     24  C   UNL     1       3.216   0.354   3.257  0.00  0.00    +0.015 C 
BRANCH  24  25
ATOM     25  C   UNL     1       3.793  -0.169   4.506  0.00  0.00    -0.025 A 
ATOM     26  C   UNL     1       4.404  -1.427   4.525  0.00  0.00    +0.008 A 
ATOM     27  C   UNL     1       4.942  -1.910   5.699  0.00  0.00    +0.001 A 
ATOM     28  C   UNL     1       4.878  -1.154   6.856  0.00  0.00    +0.000 A 
ATOM     29  C   UNL     1       4.275   0.092   6.846  0.00  0.00    +0.001 A 
ATOM     30  C   UNL     1       3.738   0.591   5.679  0.00  0.00    +0.008 A 
ENDBRANCH  24  25
ENDBRANCH  21  23
ENDBRANCH  20  21
ENDBRANCH  10  20
TORSDOF 7
