REMARK  Name = ZINC44865067
REMARK  8 active torsions:
REMARK  status: ('A' for Active; 'I' for Inactive)
REMARK    1  A    between atoms: C_1  and  C_2
REMARK    2  A    between atoms: C_2  and  C_3
REMARK    3  A    between atoms: C_3  and  C_4
REMARK    4  A    between atoms: C_4  and  C_6
REMARK    5  A    between atoms: C_4  and  C_10
REMARK    6  A    between atoms: N_7  and  O_8
REMARK    7  A    between atoms: N_12  and  C_13
REMARK    8  A    between atoms: N_12  and  C_14
REMARK                            x       y       z     vdW  Elec       q    Type
REMARK                         _______ _______ _______ _____ _____    ______ ____
ROOT
ATOM      1  C   UNL     1      -1.401  -2.098  -0.012  0.00  0.00    +0.141 C 
ENDROOT
BRANCH   1   2
ATOM      2  C   UNL     1      -0.620  -2.765   1.091  0.00  0.00    +0.144 C 
ATOM      3  N   UNL     1      -0.479  -2.174   2.231  0.00  0.00    -0.076 NA
ATOM      4  N   UNL     1      -0.056  -4.004   0.884  0.00  0.00    -0.343 N 
ATOM      5  H   UNL     1      -0.162  -4.448   0.028  0.00  0.00    +0.144 HD
ATOM      6  H   UNL     1       0.447  -4.433   1.594  0.00  0.00    +0.144 HD
BRANCH   3   7
ATOM      7  O   UNL     1       0.255  -2.800   3.267  0.00  0.00    -0.408 OA
ATOM      8  H   UNL     1       0.306  -2.281   4.082  0.00  0.00    +0.328 HD
ENDBRANCH   3   7
ENDBRANCH   1   2
BRANCH   1   9
ATOM      9  C   UNL     1      -2.825  -2.590   0.013  0.00  0.00    +0.225 C 
ATOM     10  O   UNL     1      -3.239  -3.201   0.975  0.00  0.00    -0.275 OA
ATOM     11  N   UNL     1      -3.639  -2.350  -1.034  0.00  0.00    -0.307 N 
ATOM     12  C   UNL     1      -5.046  -2.756  -0.976  0.00  0.00    +0.131 C 
ATOM     13  C   UNL     1      -3.118  -1.683  -2.230  0.00  0.00    +0.131 C 
ENDBRANCH   1   9
BRANCH   1  14
ATOM     14  C   UNL     1      -1.381  -0.582   0.193  0.00  0.00    +0.020 C 
BRANCH  14  16
ATOM     15  C   UNL     1       0.068   1.453   0.226  0.00  0.00    +0.004 C 
ATOM     16  C   UNL     1       0.048  -0.063   0.021  0.00  0.00    -0.002 C 
ENDBRANCH  14  16
ENDBRANCH   1  14
TORSDOF 5
