REMARK  Name = ZINC49178385
REMARK  7 active torsions:
REMARK  status: ('A' for Active; 'I' for Inactive)
REMARK    1  A    between atoms: C_1  and  C_2
REMARK    2  A    between atoms: C_2  and  C_3
REMARK    3  A    between atoms: C_3  and  C_4
REMARK    4  A    between atoms: C_4  and  C_5
REMARK    5  A    between atoms: C_5  and  C_7
REMARK    6  A    between atoms: C_5  and  N_17
REMARK    7  A    between atoms: N_9  and  C_10
REMARK                            x       y       z     vdW  Elec       q    Type
REMARK                         _______ _______ _______ _____ _____    ______ ____
ROOT
ATOM      1  C   UNL     1      -2.855  -2.593   0.014  0.00  0.00    +0.161 C 
ENDROOT
BRANCH   1   2
ATOM      2  N   UNL     1      -3.500  -2.224   1.277  0.00  0.00    -0.288 N 
ATOM      3  C   UNL     1      -2.980  -2.644   2.447  0.00  0.00    +0.298 C 
ATOM      4  O   UNL     1      -1.975  -3.329   2.455  0.00  0.00    -0.253 OA
ATOM      5  N   UNL     1      -3.573  -2.304   3.608  0.00  0.00    -0.313 N 
ATOM      6  H   UNL     1      -4.301  -1.677   1.270  0.00  0.00    +0.151 HD
ATOM      7  H   UNL     1      -4.375  -1.757   3.602  0.00  0.00    +0.146 HD
ATOM      8  H   UNL     1      -3.199  -2.606   4.451  0.00  0.00    +0.146 HD
ENDBRANCH   1   2
BRANCH   1   9
ATOM      9  C   UNL     1      -2.829  -4.094  -0.117  0.00  0.00    +0.238 C 
ATOM     10  O   UNL     1      -2.955  -4.791   0.868  0.00  0.00    -0.273 OA
ATOM     11  N   UNL     1      -2.666  -4.662  -1.328  0.00  0.00    -0.284 N 
ATOM     12  H   UNL     1      -2.632  -4.108  -2.123  0.00  0.00    +0.155 HD
BRANCH  11  13
ATOM     13  C   UNL     1      -2.545  -6.052  -1.438  0.00  0.00    +0.034 A 
ATOM     14  C   UNL     1      -1.707  -6.603  -2.398  0.00  0.00    +0.024 A 
ATOM     15  C   UNL     1      -1.589  -7.975  -2.505  0.00  0.00    +0.016 A 
ATOM     16  C   UNL     1      -2.305  -8.800  -1.656  0.00  0.00    +0.013 A 
ATOM     17  C   UNL     1      -3.141  -8.254  -0.699  0.00  0.00    +0.016 A 
ATOM     18  C   UNL     1      -3.258  -6.883  -0.584  0.00  0.00    +0.024 A 
ATOM     19  I   UNL     1      -2.124 -10.881  -1.821  0.00  0.00    -0.044 I 
ENDBRANCH  11  13
ENDBRANCH   1   9
BRANCH   1  20
ATOM     20  C   UNL     1      -1.423  -2.055  -0.003  0.00  0.00    +0.032 C 
BRANCH  20  21
ATOM     21  C   UNL     1      -1.452  -0.525   0.004  0.00  0.00    +0.002 C 
BRANCH  21  23
ATOM     22  C   UNL     1      -0.050   1.543  -0.006  0.00  0.00    +0.004 C 
ATOM     23  C   UNL     1      -0.020   0.013  -0.014  0.00  0.00    -0.003 C 
ENDBRANCH  21  23
ENDBRANCH  20  21
ENDBRANCH   1  20
TORSDOF 6
