REMARK  Name = ZINC13983921
REMARK  8 active torsions:
REMARK  status: ('A' for Active; 'I' for Inactive)
REMARK    1  A    between atoms: C_1  and  N_2
REMARK    2  A    between atoms: N_2  and  C_3
REMARK    3  A    between atoms: N_2  and  S_9
REMARK    4  A    between atoms: S_9  and  C_12
REMARK    5  A    between atoms: C_15  and  N_18
REMARK    6  A    between atoms: C_19  and  C_21
REMARK    7  A    between atoms: C_21  and  O_22
REMARK    8  A    between atoms: O_22  and  C_23
REMARK                            x       y       z     vdW  Elec       q    Type
REMARK                         _______ _______ _______ _____ _____    ______ ____
ROOT
ATOM      1  C   UNL     1      -9.398   5.793  -0.148  0.00  0.00    +0.106 A 
ATOM      2  C   UNL     1      -9.589   4.426  -0.057  0.00  0.00    +0.030 A 
ATOM      3  C   UNL     1      -8.501   3.579   0.018  0.00  0.00    +0.025 A 
ATOM      4  C   UNL     1      -7.214   4.101   0.002  0.00  0.00    +0.034 A 
ATOM      5  C   UNL     1      -7.025   5.474  -0.083  0.00  0.00    +0.025 A 
ATOM      6  C   UNL     1      -8.117   6.315  -0.163  0.00  0.00    +0.030 A 
ENDROOT
BRANCH   4   7
ATOM      7  N   UNL     1      -6.109   3.245   0.078  0.00  0.00    -0.283 N 
ATOM      8  C   UNL     1      -6.153   2.034  -0.512  0.00  0.00    +0.255 C 
ATOM      9  O   UNL     1      -7.178   1.652  -1.037  0.00  0.00    -0.272 OA
ATOM     10  H   UNL     1      -5.205   3.560   0.619  0.00  0.00    +0.155 HD
BRANCH   8  11
ATOM     11  C   UNL     1      -4.929   1.155  -0.521  0.00  0.00    +0.324 C 
BRANCH  11  12
ATOM     12  O   UNL     1      -5.225  -0.067  -1.200  0.00  0.00    -0.482 OA
BRANCH  12  13
ATOM     13  C   UNL     1      -4.221  -0.977  -1.297  0.00  0.00    +0.129 A 
ATOM     14  C   UNL     1      -2.996  -0.711  -0.753  0.00  0.00    +0.046 A 
ATOM     15  C   UNL     1      -1.956  -1.631  -0.848  0.00  0.00    +0.004 A 
ATOM     16  C   UNL     1      -2.131  -2.827  -1.476  0.00  0.00    +0.009 A 
ATOM     17  C   UNL     1      -3.378  -3.141  -2.043  0.00  0.00    -0.014 A 
ATOM     18  C   UNL     1      -4.438  -2.205  -1.954  0.00  0.00    +0.024 A 
ATOM     19  C   UNL     1      -5.684  -2.519  -2.520  0.00  0.00    +0.012 A 
ATOM     20  C   UNL     1      -5.857  -3.715  -3.147  0.00  0.00    +0.001 A 
ATOM     21  C   UNL     1      -4.814  -4.636  -3.236  0.00  0.00    +0.001 A 
ATOM     22  C   UNL     1      -3.594  -4.366  -2.698  0.00  0.00    +0.008 A 
ENDBRANCH  12  13
ENDBRANCH  11  12
ENDBRANCH   8  11
ENDBRANCH   4   7
BRANCH   1  23
ATOM     23  S   UNL     1     -10.789   6.870  -0.243  0.00  0.00    +0.061 S 
ATOM     24  O   UNL     1     -10.336   8.063  -0.870  0.00  0.00    -0.153 OA
ATOM     25  O   UNL     1     -11.865   6.099  -0.759  0.00  0.00    -0.153 OA
BRANCH  23  27
ATOM     26  C   UNL     1     -10.603   8.458   1.938  0.00  0.00    +0.132 C 
ATOM     27  N   UNL     1     -11.200   7.278   1.308  0.00  0.00    -0.177 NA
BRANCH  27  28
ATOM     28  C   UNL     1     -12.160   6.458   2.051  0.00  0.00    +0.080 C 
ATOM     29  C   UNL     1     -13.364   7.315   2.446  0.00  0.00    +0.020 C 
ATOM     30  C   UNL     1     -14.368   6.459   3.221  0.00  0.00    +0.002 C 
ATOM     31  C   UNL     1     -13.700   5.907   4.482  0.00  0.00    +0.000 C 
ATOM     32  C   UNL     1     -12.495   5.050   4.087  0.00  0.00    +0.002 C 
ATOM     33  C   UNL     1     -11.492   5.906   3.312  0.00  0.00    +0.020 C 
ENDBRANCH  27  28
ENDBRANCH  23  27
ENDBRANCH   1  23
TORSDOF 7
