REMARK  Name = ZINC04593629
REMARK  12 active torsions:
REMARK  status: ('A' for Active; 'I' for Inactive)
REMARK    1  A    between atoms: C_1  and  C_2
REMARK    2  A    between atoms: C_4  and  C_10
REMARK    3  A    between atoms: C_6  and  C_9
REMARK    4  A    between atoms: C_7  and  O_8
REMARK    5  A    between atoms: C_10  and  C_11
REMARK    6  A    between atoms: C_10  and  C_20
REMARK    7  A    between atoms: C_10  and  C_24
REMARK    8  A    between atoms: C_13  and  C_19
REMARK    9  A    between atoms: C_14  and  O_18
REMARK   10  A    between atoms: C_15  and  C_17
REMARK   11  A    between atoms: C_20  and  O_22
REMARK   12  A    between atoms: O_22  and  C_23
REMARK                            x       y       z     vdW  Elec       q    Type
REMARK                         _______ _______ _______ _____ _____    ______ ____
ROOT
ATOM      1  C   UNL     1      -2.513   0.977   0.019  0.00  0.00    +0.211 C 
ENDROOT
BRANCH   1   5
ATOM      2  C   UNL     1       1.758   2.309  -2.221  0.00  0.00    +0.047 C 
ATOM      3  C   UNL     1       0.825   2.385  -1.041  0.00  0.00    -0.008 A 
ATOM      4  C   UNL     1      -0.359   1.674  -1.048  0.00  0.00    +0.012 A 
ATOM      5  C   UNL     1      -1.219   1.749   0.032  0.00  0.00    -0.017 A 
ATOM      6  C   UNL     1      -0.890   2.526   1.127  0.00  0.00    +0.012 A 
ATOM      7  C   UNL     1       0.293   3.240   1.140  0.00  0.00    -0.008 A 
ATOM      8  C   UNL     1       1.154   3.171   0.055  0.00  0.00    +0.123 A 
ATOM      9  C   UNL     1       0.647   4.091   2.331  0.00  0.00    +0.047 C 
BRANCH   8  10
ATOM     10  O   UNL     1       2.319   3.871   0.065  0.00  0.00    -0.506 OA
ATOM     11  H   UNL     1       2.245   4.763  -0.303  0.00  0.00    +0.292 HD
ENDBRANCH   8  10
ENDBRANCH   1   5
BRANCH   1  12
ATOM     12  C   UNL     1      -3.670   1.934   0.153  0.00  0.00    -0.017 A 
ATOM     13  C   UNL     1      -3.441   3.297   0.153  0.00  0.00    +0.012 A 
ATOM     14  C   UNL     1      -4.500   4.176   0.271  0.00  0.00    -0.008 A 
ATOM     15  C   UNL     1      -5.793   3.690   0.401  0.00  0.00    +0.123 A 
ATOM     16  C   UNL     1      -6.019   2.321   0.406  0.00  0.00    -0.008 A 
ATOM     17  C   UNL     1      -4.957   1.446   0.282  0.00  0.00    +0.012 A 
ATOM     18  C   UNL     1      -7.422   1.789   0.548  0.00  0.00    +0.047 C 
ATOM     19  C   UNL     1      -4.251   5.663   0.264  0.00  0.00    +0.047 C 
BRANCH  15  20
ATOM     20  O   UNL     1      -6.836   4.552   0.522  0.00  0.00    -0.506 OA
ATOM     21  H   UNL     1      -7.046   4.790   1.436  0.00  0.00    +0.292 HD
ENDBRANCH  15  20
ENDBRANCH   1  12
BRANCH   1  22
ATOM     22  C   UNL     1      -2.530  -0.011   1.187  0.00  0.00    +0.413 C 
ATOM     23  F   UNL     1      -2.418   0.690   2.392  0.00  0.00    -0.169 F 
ATOM     24  F   UNL     1      -3.732  -0.728   1.174  0.00  0.00    -0.169 F 
ATOM     25  F   UNL     1      -1.456  -0.899   1.062  0.00  0.00    -0.169 F 
ENDBRANCH   1  22
BRANCH   1  26
ATOM     26  C   UNL     1      -2.634   0.222  -1.280  0.00  0.00    +0.331 C 
ATOM     27  O   UNL     1      -2.725  -0.983  -1.272  0.00  0.00    -0.249 OA
BRANCH  26  28
ATOM     28  O   UNL     1      -2.642   0.888  -2.445  0.00  0.00    -0.467 OA
ATOM     29  C   UNL     1      -2.761   0.096  -3.656  0.00  0.00    +0.280 C 
ENDBRANCH  26  28
ENDBRANCH   1  26
TORSDOF 7
