REMARK  Name = ZINC07174837
REMARK  9 active torsions:
REMARK  status: ('A' for Active; 'I' for Inactive)
REMARK    1  A    between atoms: C_1  and  C_2
REMARK    2  A    between atoms: C_2  and  C_4
REMARK    3  A    between atoms: C_2  and  S_19
REMARK    4  A    between atoms: N_6  and  C_7
REMARK    5  A    between atoms: S_19  and  C_20
REMARK    6  A    between atoms: C_23  and  C_26
REMARK    7  A    between atoms: C_26  and  C_27
REMARK    8  A    between atoms: C_26  and  C_28
REMARK    9  A    between atoms: C_26  and  C_29
REMARK                            x       y       z     vdW  Elec       q    Type
REMARK                         _______ _______ _______ _____ _____    ______ ____
ROOT
ATOM      1  C   UNL     1       1.297   1.669   0.214  0.00  0.00    +0.230 C 
ATOM      2  O   UNL     1       1.601   2.667  -0.405  0.00  0.00    -0.274 OA
ATOM      3  N   UNL     1       2.210   1.056   0.994  0.00  0.00    -0.285 N 
ATOM      4  H   UNL     1       1.988   0.223   1.438  0.00  0.00    +0.155 HD
ENDROOT
BRANCH   3   5
ATOM      5  C   UNL     1       3.480   1.623   1.164  0.00  0.00    +0.035 A 
ATOM      6  C   UNL     1       4.132   1.509   2.386  0.00  0.00    +0.025 A 
ATOM      7  C   UNL     1       5.384   2.066   2.560  0.00  0.00    +0.029 A 
ATOM      8  C   UNL     1       5.993   2.740   1.512  0.00  0.00    +0.067 A 
ATOM      9  C   UNL     1       5.340   2.855   0.283  0.00  0.00    +0.069 A 
ATOM     10  C   UNL     1       4.086   2.291   0.110  0.00  0.00    +0.051 A 
ATOM     11  N   UNL     1       6.188   3.573  -0.557  0.00  0.00    -0.306 N 
ATOM     12  H   UNL     1       6.005   3.811  -1.480  0.00  0.00    +0.170 HD
ATOM     13  C   UNL     1       7.305   3.880   0.128  0.00  0.00    +0.325 A 
ATOM     14  O   UNL     1       8.250   4.505  -0.316  0.00  0.00    -0.247 OA
ATOM     15  N   UNL     1       7.218   3.392   1.380  0.00  0.00    -0.306 N 
ATOM     16  H   UNL     1       7.893   3.479   2.071  0.00  0.00    +0.170 HD
ENDBRANCH   3   5
BRANCH   1  18
ATOM     17  C   UNL     1      -0.946   1.649   1.270  0.00  0.00    +0.029 C 
ATOM     18  C   UNL     1      -0.101   1.115   0.113  0.00  0.00    +0.134 C 
BRANCH  18  19
ATOM     19  S   UNL     1      -0.840   1.626  -1.463  0.00  0.00    -0.113 S 
BRANCH  19  20
ATOM     20  C   UNL     1       0.057   0.712  -2.672  0.00  0.00    +0.009 A 
ATOM     21  C   UNL     1       1.000  -0.230  -2.275  0.00  0.00    +0.015 A 
ATOM     22  C   UNL     1       1.697  -0.949  -3.225  0.00  0.00    +0.005 A 
ATOM     23  C   UNL     1       1.466  -0.726  -4.571  0.00  0.00    -0.042 A 
ATOM     24  C   UNL     1       0.534   0.215  -4.969  0.00  0.00    +0.005 A 
ATOM     25  C   UNL     1      -0.172   0.933  -4.024  0.00  0.00    +0.015 A 
BRANCH  23  26
ATOM     26  C   UNL     1       2.233  -1.509  -5.605  0.00  0.00    -0.013 C 
ATOM     27  C   UNL     1       3.031  -0.545  -6.486  0.00  0.00    +0.015 C 
ATOM     28  C   UNL     1       3.193  -2.474  -4.906  0.00  0.00    +0.015 C 
ATOM     29  C   UNL     1       1.255  -2.302  -6.473  0.00  0.00    +0.015 C 
ENDBRANCH  23  26
ENDBRANCH  19  20
ENDBRANCH  18  19
ENDBRANCH   1  18
TORSDOF 5
