REMARK  Name = ZINC01452612
REMARK  7 active torsions:
REMARK  status: ('A' for Active; 'I' for Inactive)
REMARK    1  A    between atoms: C_1  and  C_2
REMARK    2  A    between atoms: C_6  and  C_8
REMARK    3  A    between atoms: N_10  and  C_11
REMARK    4  A    between atoms: C_11  and  C_13
REMARK    5  A    between atoms: C_11  and  N_17
REMARK    6  A    between atoms: N_17  and  C_18
REMARK    7  A    between atoms: C_22  and  N_24
REMARK                            x       y       z     vdW  Elec       q    Type
REMARK                         _______ _______ _______ _____ _____    ______ ____
ROOT
ATOM      1  C   UNL     1       1.186   5.988   0.134  0.00  0.00    +0.210 C 
ENDROOT
BRANCH   1   4
ATOM      2  C   UNL     1       2.417   6.166  -1.961  0.00  0.00    +0.246 C 
ATOM      3  O   UNL     1       3.045   5.176  -1.642  0.00  0.00    -0.270 OA
ATOM      4  N   UNL     1       1.464   6.653  -1.141  0.00  0.00    -0.290 N 
ATOM      5  H   UNL     1       0.963   7.443  -1.396  0.00  0.00    +0.151 HD
BRANCH   2  11
ATOM      6  C   UNL     1       5.007   6.427  -6.218  0.00  0.00    +0.044 C 
ATOM      7  C   UNL     1       3.942   6.966  -5.298  0.00  0.00    -0.050 A 
ATOM      8  C   UNL     1       3.224   8.094  -5.659  0.00  0.00    +0.003 A 
ATOM      9  C   UNL     1       2.245   8.595  -4.820  0.00  0.00    +0.001 A 
ATOM     10  C   UNL     1       1.978   7.974  -3.618  0.00  0.00    +0.013 A 
ATOM     11  C   UNL     1       2.698   6.837  -3.248  0.00  0.00    +0.037 A 
ATOM     12  C   UNL     1       3.688   6.338  -4.097  0.00  0.00    +0.016 A 
ENDBRANCH   2  11
ENDBRANCH   1   4
BRANCH   1  13
ATOM     13  C   UNL     1       1.064   7.038   1.240  0.00  0.00    +0.225 C 
ATOM     14 CL   UNL     1       0.721   6.220   2.810  0.00  0.00    -0.080 Cl
ATOM     15 CL   UNL     1       2.608   7.960   1.367  0.00  0.00    -0.080 Cl
ATOM     16 CL   UNL     1      -0.282   8.172   0.847  0.00  0.00    -0.080 Cl
ENDBRANCH   1  13
BRANCH   1  17
ATOM     17  N   UNL     1      -0.069   5.239   0.031  0.00  0.00    -0.323 N 
ATOM     18  H   UNL     1      -0.917   5.710   0.036  0.00  0.00    +0.148 HD
BRANCH  17  19
ATOM     19  C   UNL     1      -0.044   3.846  -0.073  0.00  0.00    +0.031 A 
ATOM     20  C   UNL     1       1.167   3.180  -0.207  0.00  0.00    +0.023 A 
ATOM     21  C   UNL     1       1.188   1.803  -0.310  0.00  0.00    +0.004 A 
ATOM     22  C   UNL     1       0.004   1.088  -0.280  0.00  0.00    +0.033 A 
ATOM     23  C   UNL     1      -1.204   1.749  -0.152  0.00  0.00    +0.128 A 
ATOM     24  C   UNL     1      -1.231   3.125  -0.043  0.00  0.00    +0.055 A 
BRANCH  23  25
ATOM     25  N   UNL     1      -2.468   0.980  -0.127  0.00  0.00    +0.056 N 
ATOM     26  O   UNL     1      -2.444  -0.235  -0.219  0.00  0.00    -0.126 OA
ATOM     27  O   UNL     1      -3.532   1.561  -0.015  0.00  0.00    -0.126 OA
ENDBRANCH  23  25
ENDBRANCH  17  19
ENDBRANCH   1  17
TORSDOF 6
