REMARK  Name = ZINC49937962
REMARK  4 active torsions:
REMARK  status: ('A' for Active; 'I' for Inactive)
REMARK    1  A    between atoms: C_1  and  O_2
REMARK    2  A    between atoms: O_2  and  C_3
REMARK    3  A    between atoms: C_6  and  C_9
REMARK    4  A    between atoms: C_26  and  C_28
REMARK                            x       y       z     vdW  Elec       q    Type
REMARK                         _______ _______ _______ _____ _____    ______ ____
ROOT
ATOM      1  C   UNL     1       2.303  -2.561   4.024  0.00  0.00    +0.215 C 
ATOM      2  C   UNL     1       1.393  -2.938   5.192  0.00  0.00    +0.113 C 
ATOM      3  C   UNL     1       2.267  -3.739   6.144  0.00  0.00    +0.065 C 
ATOM      4  C   UNL     1       3.119  -4.772   5.545  0.00  0.00    +0.039 A 
ATOM      5  C   UNL     1       3.691  -5.784   6.315  0.00  0.00    +0.013 A 
ATOM      6  C   UNL     1       4.492  -6.730   5.711  0.00  0.00    +0.001 A 
ATOM      7  C   UNL     1       4.728  -6.674   4.346  0.00  0.00    +0.004 A 
ATOM      8  C   UNL     1       4.164  -5.678   3.573  0.00  0.00    +0.046 A 
ATOM      9  C   UNL     1       3.351  -4.719   4.158  0.00  0.00    +0.130 A 
ATOM     10  O   UNL     1       2.787  -3.750   3.397  0.00  0.00    -0.483 OA
ATOM     11  N   UNL     1       2.283  -3.451   7.403  0.00  0.00    -0.215 NA
ATOM     12  C   UNL     1       1.640  -2.393   7.958  0.00  0.00    +0.249 A 
ATOM     13  N   UNL     1       1.556  -2.016   9.229  0.00  0.00    -0.198 NA
ATOM     14  C   UNL     1       0.852  -0.893   9.323  0.00  0.00    +0.247 A 
ATOM     15  N   UNL     1       0.461  -0.524   8.131  0.00  0.00    -0.156 NA
ATOM     16  N   UNL     1       0.938  -1.487   7.233  0.00  0.00    -0.221 N 
ATOM     17  C   UNL     1       0.784  -1.652   5.779  0.00  0.00    +0.155 C 
ENDROOT
BRANCH   1  21
ATOM     18  C   UNL     1       0.099  -0.249   1.186  0.00  0.00    +0.120 A 
ATOM     19  C   UNL     1       1.462  -0.043   1.341  0.00  0.00    +0.046 A 
ATOM     20  C   UNL     1       2.172  -0.791   2.259  0.00  0.00    +0.011 A 
ATOM     21  C   UNL     1       1.526  -1.745   3.023  0.00  0.00    -0.006 A 
ATOM     22  C   UNL     1       0.167  -1.953   2.870  0.00  0.00    +0.011 A 
ATOM     23  C   UNL     1      -0.549  -1.203   1.958  0.00  0.00    +0.046 A 
BRANCH  18  25
ATOM     24  C   UNL     1       0.130   1.450  -0.477  0.00  0.00    +0.277 C 
ATOM     25  O   UNL     1      -0.602   0.486   0.283  0.00  0.00    -0.495 OA
ENDBRANCH  18  25
ENDBRANCH   1  21
BRANCH  17  26
ATOM     26  C   UNL     1       1.427  -0.471   5.099  0.00  0.00    -0.004 A 
ATOM     27  C   UNL     1       2.782  -0.223   5.254  0.00  0.00    +0.009 A 
ATOM     28  C   UNL     1       3.331   0.875   4.609  0.00  0.00    +0.020 A 
ATOM     29  C   UNL     1       2.514   1.681   3.839  0.00  0.00    +0.111 A 
ATOM     30  N   UNL     1       1.228   1.415   3.714  0.00  0.00    -0.263 NA
ATOM     31  C   UNL     1       0.674   0.376   4.308  0.00  0.00    +0.116 A 
ENDBRANCH  17  26
TORSDOF 3
