REMARK  Name = ZINC09159389
REMARK  10 active torsions:
REMARK  status: ('A' for Active; 'I' for Inactive)
REMARK    1  A    between atoms: C_1  and  O_2
REMARK    2  A    between atoms: O_2  and  C_3
REMARK    3  A    between atoms: C_6  and  N_9
REMARK    4  A    between atoms: C_10  and  C_12
REMARK    5  A    between atoms: C_12  and  N_67
REMARK    6  A    between atoms: C_15  and  O_34
REMARK    7  A    between atoms: C_22  and  C_24
REMARK    8  A    between atoms: C_27  and  O_30
REMARK    9  A    between atoms: O_30  and  C_31
REMARK   10  A    between atoms: C_31  and  C_32
REMARK                            x       y       z     vdW  Elec       q    Type
REMARK                         _______ _______ _______ _____ _____    ______ ____
ROOT
ATOM      1  C   UNL     1      -7.564  -2.435   0.022  0.00  0.00    -0.075 C 
ATOM      2  C   UNL     1      -8.469  -1.916  -1.099  0.00  0.00    +0.016 C 
ATOM      3  C   UNL     1      -8.854  -0.466  -0.800  0.00  0.00    +0.066 C 
ATOM      4  C   UNL     1      -9.803   0.056  -1.880  0.00  0.00    +0.035 C 
ATOM      5  C   UNL     1     -10.174   1.508  -1.568  0.00  0.00    +0.003 C 
ATOM      6  C   UNL     1     -10.859   1.581  -0.202  0.00  0.00    +0.000 C 
ATOM      7  C   UNL     1      -9.914   1.048   0.877  0.00  0.00    +0.005 C 
ATOM      8  C   UNL     1      -9.554  -0.404   0.561  0.00  0.00    +0.011 C 
ATOM      9  C   UNL     1      -8.616  -0.957   1.634  0.00  0.00    -0.031 C 
ATOM     10  N   UNL     1      -8.294  -2.364   1.306  0.00  0.00    +0.390 N 
ATOM     11  H   UNL     1      -9.170  -2.893   1.220  0.00  0.00    -0.080 HD
ENDROOT
BRANCH   9  12
ATOM     12  C   UNL     1      -7.361  -0.123   1.683  0.00  0.00    -0.060 A 
ATOM     13  C   UNL     1      -6.132  -0.712   1.453  0.00  0.00    +0.005 A 
ATOM     14  C   UNL     1      -4.980   0.050   1.498  0.00  0.00    +0.046 A 
ATOM     15  C   UNL     1      -5.059   1.407   1.774  0.00  0.00    +0.121 A 
ATOM     16  C   UNL     1      -6.293   1.994   2.010  0.00  0.00    +0.046 A 
ATOM     17  C   UNL     1      -7.442   1.229   1.960  0.00  0.00    +0.005 A 
BRANCH  15  18
ATOM     18  O   UNL     1      -3.927   2.159   1.818  0.00  0.00    -0.488 OA
BRANCH  18  19
ATOM     19  C   UNL     1      -4.083   3.549   2.109  0.00  0.00    +0.256 C 
BRANCH  19  20
ATOM     20  C   UNL     1      -2.732   4.216   2.116  0.00  0.00    +0.006 C 
ATOM     21  C   UNL     1      -2.564   5.363   1.507  0.00  0.00    +0.007 C 
ENDBRANCH  19  20
ENDBRANCH  18  19
ENDBRANCH  15  18
ENDBRANCH   9  12
BRANCH   3  22
ATOM     22  O   UNL     1      -7.676   0.344  -0.768  0.00  0.00    -0.388 OA
ATOM     23  H   UNL     1      -7.178   0.346  -1.597  0.00  0.00    +0.210 HD
ENDBRANCH   3  22
BRANCH  10  24
ATOM     24  C   UNL     1      -7.478  -2.959   2.384  0.00  0.00    +0.020 C 
BRANCH  24  26
ATOM     25  N   UNL     1      -6.805  -5.231   3.091  0.00  0.00    -0.287 N 
ATOM     26  C   UNL     1      -7.472  -4.456   2.213  0.00  0.00    +0.201 C 
ATOM     27  O   UNL     1      -8.067  -4.963   1.286  0.00  0.00    -0.278 OA
ATOM     28  H   UNL     1      -6.388  -4.833   3.871  0.00  0.00    +0.155 HD
BRANCH  25  32
ATOM     29  C   UNL     1      -6.534  -9.343   2.454  0.00  0.00    +0.120 A 
ATOM     30  C   UNL     1      -5.470  -8.658   3.021  0.00  0.00    +0.047 A 
ATOM     31  C   UNL     1      -5.559  -7.296   3.232  0.00  0.00    +0.027 A 
ATOM     32  C   UNL     1      -6.714  -6.613   2.877  0.00  0.00    +0.034 A 
ATOM     33  C   UNL     1      -7.781  -7.301   2.314  0.00  0.00    +0.027 A 
ATOM     34  C   UNL     1      -7.688  -8.661   2.098  0.00  0.00    +0.047 A 
BRANCH  29  36
ATOM     35  C   UNL     1      -7.578 -11.325   1.656  0.00  0.00    +0.277 C 
ATOM     36  O   UNL     1      -6.445 -10.684   2.245  0.00  0.00    -0.495 OA
ENDBRANCH  29  36
ENDBRANCH  25  32
ENDBRANCH  24  26
ENDBRANCH  10  24
TORSDOF 9
