REMARK  Name = ZINC19655252
REMARK  8 active torsions:
REMARK  status: ('A' for Active; 'I' for Inactive)
REMARK    1  A    between atoms: C_1  and  C_2
REMARK    2  A    between atoms: C_5  and  C_8
REMARK    3  A    between atoms: C_5  and  N_23
REMARK    4  A    between atoms: C_8  and  N_9
REMARK    5  A    between atoms: C_10  and  C_12
REMARK    6  A    between atoms: C_12  and  N_13
REMARK    7  A    between atoms: N_13  and  C_14
REMARK    8  A    between atoms: N_13  and  C_15
REMARK                            x       y       z     vdW  Elec       q    Type
REMARK                         _______ _______ _______ _____ _____    ______ ____
ROOT
ATOM      1  C   UNL     1      -2.821   3.227   2.590  0.00  0.00    +0.092 C 
ENDROOT
BRANCH   1   6
ATOM      2  C   UNL     1      -1.416   5.340   6.415  0.00  0.00    +0.007 C 
ATOM      3  C   UNL     1      -0.892   4.857   5.061  0.00  0.00    -0.014 C 
ATOM      4  C   UNL     1      -1.087   3.344   4.949  0.00  0.00    +0.002 C 
ATOM      5  C   UNL     1      -0.563   2.862   3.595  0.00  0.00    -0.010 C 
ATOM      6  C   UNL     1      -1.332   3.560   2.472  0.00  0.00    -0.050 C 
ATOM      7  C   UNL     1      -1.137   5.073   2.584  0.00  0.00    -0.010 C 
ATOM      8  C   UNL     1      -1.662   5.556   3.938  0.00  0.00    +0.002 C 
BRANCH   6   9
ATOM      9  N   UNL     1      -0.829   3.096   1.172  0.00  0.00    +0.384 N 
ATOM     10  C   UNL     1      -0.794   1.629   1.113  0.00  0.00    -0.078 C 
ATOM     11  C   UNL     1      -0.133   1.185  -0.193  0.00  0.00    -0.019 C 
ATOM     12  C   UNL     1      -0.925   1.744  -1.378  0.00  0.00    -0.004 C 
ATOM     13  C   UNL     1      -0.986   3.270  -1.267  0.00  0.00    -0.019 C 
ATOM     14  C   UNL     1      -1.624   3.654   0.070  0.00  0.00    -0.078 C 
ATOM     15  H   UNL     1       0.203   3.461   1.057  0.00  0.00    -0.081 HD
ENDBRANCH   6   9
ENDBRANCH   1   6
BRANCH   1  16
ATOM     16  N   UNL     1      -2.993   1.774   2.654  0.00  0.00    -0.318 N 
ATOM     17  C   UNL     1      -4.230   1.239   2.620  0.00  0.00    +0.196 C 
ATOM     18  O   UNL     1      -5.200   1.962   2.536  0.00  0.00    -0.278 OA
ATOM     19  H   UNL     1      -2.112   1.119   2.731  0.00  0.00    +0.149 HD
BRANCH  17  20
ATOM     20  C   UNL     1      -4.407  -0.256   2.686  0.00  0.00    +0.019 C 
BRANCH  20  21
ATOM     21  N   UNL     1      -5.838  -0.583   2.632  0.00  0.00    +0.387 N 
ATOM     22  C   UNL     1      -6.411  -0.220   1.329  0.00  0.00    -0.095 C 
ATOM     23  H   UNL     1      -6.350   0.011   3.403  0.00  0.00    -0.081 HD
BRANCH  21  24
ATOM     24  C   UNL     1      -6.065  -2.003   2.930  0.00  0.00    -0.046 C 
ATOM     25  C   UNL     1      -5.458  -2.872   1.816  0.00  0.00    +0.009 C 
ATOM     26  C   UNL     1      -5.963  -4.329   1.949  0.00  0.00    +0.164 C 
ATOM     27  S   UNL     1      -7.603  -4.116   2.753  0.00  0.00    -0.033 S 
ATOM     28  O   UNL     1      -7.579  -4.747   4.026  0.00  0.00    -0.174 OA
ATOM     29  O   UNL     1      -8.622  -4.456   1.823  0.00  0.00    -0.174 OA
ATOM     30  C   UNL     1      -7.593  -2.289   2.989  0.00  0.00    +0.151 C 
ENDBRANCH  21  24
ENDBRANCH  20  21
ENDBRANCH  17  20
ENDBRANCH   1  16
TORSDOF 6
