REMARK  Name = ZINC52489034
REMARK  7 active torsions:
REMARK  status: ('A' for Active; 'I' for Inactive)
REMARK    1  A    between atoms: C_1  and  C_2
REMARK    2  A    between atoms: C_2  and  C_4
REMARK    3  A    between atoms: C_2  and  N_16
REMARK    4  A    between atoms: C_7  and  S_10
REMARK    5  A    between atoms: S_10  and  N_13
REMARK    6  A    between atoms: N_13  and  C_14
REMARK    7  A    between atoms: N_13  and  C_15
REMARK                            x       y       z     vdW  Elec       q    Type
REMARK                         _______ _______ _______ _____ _____    ______ ____
ROOT
ATOM      1  C   UNL     1      -0.019   1.526   0.010  0.00  0.00    +0.033 C 
ATOM      2  C   UNL     1       0.002  -0.004   0.002  0.00  0.00    +0.099 C 
ENDROOT
BRANCH   2   3
ATOM      3  N   UNL     1       0.688  -0.476  -1.203  0.00  0.00    -0.322 N 
ATOM      4  C   UNL     1       2.066  -0.590  -1.215  0.00  0.00    +0.131 A 
ATOM      5  C   UNL     1       2.741  -1.042  -2.383  0.00  0.00    +0.047 A 
ATOM      6  C   UNL     1       2.203  -1.440  -3.672  0.00  0.00    +0.021 A 
ATOM      7  C   UNL     1       3.044  -1.836  -4.638  0.00  0.00    +0.048 A 
ATOM      8  S   UNL     1       4.650  -1.702  -3.874  0.00  0.00    -0.077 S 
ATOM      9  C   UNL     1       4.147  -1.117  -2.278  0.00  0.00    +0.113 A 
ATOM     10  N   UNL     1       4.772  -0.786  -1.165  0.00  0.00    -0.228 NA
ATOM     11  C   UNL     1       4.091  -0.373  -0.114  0.00  0.00    +0.224 A 
ATOM     12  N   UNL     1       2.774  -0.274  -0.143  0.00  0.00    -0.220 NA
ATOM     13  H   UNL     1       0.175  -0.710  -1.993  0.00  0.00    +0.148 HD
ENDBRANCH   2   3
BRANCH   2  14
ATOM     14  C   UNL     1      -1.412  -0.526   0.013  0.00  0.00    -0.027 A 
ATOM     15  C   UNL     1      -2.141  -0.569  -1.161  0.00  0.00    +0.007 A 
ATOM     16  C   UNL     1      -3.438  -1.047  -1.151  0.00  0.00    +0.029 A 
ATOM     17  C   UNL     1      -4.005  -1.483   0.032  0.00  0.00    +0.105 A 
ATOM     18  C   UNL     1      -3.275  -1.441   1.205  0.00  0.00    +0.029 A 
ATOM     19  C   UNL     1      -1.977  -0.966   1.195  0.00  0.00    +0.007 A 
BRANCH  17  20
ATOM     20  S   UNL     1      -5.659  -2.092   0.045  0.00  0.00    +0.060 S 
ATOM     21  O   UNL     1      -6.142  -1.928   1.371  0.00  0.00    -0.153 OA
ATOM     22  O   UNL     1      -6.311  -1.518  -1.080  0.00  0.00    -0.153 OA
BRANCH  20  23
ATOM     23  N   UNL     1      -5.582  -3.723  -0.233  0.00  0.00    -0.183 NA
ATOM     24  C   UNL     1      -5.462  -4.653   0.893  0.00  0.00    +0.131 C 
ATOM     25  C   UNL     1      -5.635  -4.235  -1.604  0.00  0.00    +0.131 C 
ENDBRANCH  20  23
ENDBRANCH  17  20
ENDBRANCH   2  14
TORSDOF 4
