REMARK  Name = ZINC19362929
REMARK  4 active torsions:
REMARK  status: ('A' for Active; 'I' for Inactive)
REMARK    1  A    between atoms: C_4  and  C_7
REMARK    2  A    between atoms: C_10  and  N_13
REMARK    3  A    between atoms: N_16  and  C_19
REMARK    4  A    between atoms: C_19  and  C_20
REMARK                            x       y       z     vdW  Elec       q    Type
REMARK                         _______ _______ _______ _____ _____    ______ ____
ROOT
ATOM      1  N   UNL     1       6.514  -3.928  -0.083  0.00  0.00    +0.383 N 
ATOM      2  C   UNL     1       6.617  -4.776   1.112  0.00  0.00    -0.063 C 
ATOM      3  C   UNL     1       7.960  -5.509   1.104  0.00  0.00    +0.066 C 
ATOM      4  N   UNL     1       8.059  -6.330  -0.110  0.00  0.00    -0.306 NA
ATOM      5  C   UNL     1       7.934  -5.498  -1.315  0.00  0.00    +0.066 C 
ATOM      6  C   UNL     1       6.591  -4.765  -1.288  0.00  0.00    -0.063 C 
ATOM      7  H   UNL     1       7.272  -3.262  -0.088  0.00  0.00    -0.081 HD
ENDROOT
BRANCH   1  11
ATOM      8  C   UNL     1       3.711  -0.707  -0.038  0.00  0.00    +0.019 C 
ATOM      9  C   UNL     1       3.817  -1.592   1.206  0.00  0.00    +0.006 C 
ATOM     10  C   UNL     1       5.152  -2.339   1.188  0.00  0.00    -0.015 C 
ATOM     11  C   UNL     1       5.232  -3.211  -0.066  0.00  0.00    -0.068 C 
ATOM     12  C   UNL     1       5.126  -2.326  -1.310  0.00  0.00    -0.015 C 
ATOM     13  C   UNL     1       3.791  -1.579  -1.292  0.00  0.00    +0.006 C 
BRANCH   8  17
ATOM     14  C   UNL     1      -0.017   1.378   0.010  0.00  0.00    +0.000 A 
ATOM     15  C   UNL     1       1.171   2.086   0.002  0.00  0.00    +0.000 A 
ATOM     16  C   UNL     1       2.377   1.411  -0.013  0.00  0.00    +0.004 A 
ATOM     17  C   UNL     1       2.396   0.029  -0.020  0.00  0.00    -0.044 A 
ATOM     18  C   UNL     1       1.208  -0.679  -0.012  0.00  0.00    +0.004 A 
ATOM     19  C   UNL     1       0.002  -0.004   0.002  0.00  0.00    +0.000 A 
ENDBRANCH   8  17
ENDBRANCH   1  11
BRANCH   4  20
ATOM     20  C   UNL     1       9.314  -7.095  -0.127  0.00  0.00    +0.088 C 
BRANCH  20  21
ATOM     21  C   UNL     1       9.273  -8.116  -1.266  0.00  0.00    +0.007 C 
ATOM     22  C   UNL     1      10.623  -8.838  -1.360  0.00  0.00    +0.009 C 
ATOM     23  C   UNL     1      10.615  -9.719  -2.611  0.00  0.00    +0.027 C 
ATOM     24  C   UNL     1       9.366 -10.551  -2.649  0.00  0.00    -0.031 C 
ATOM     25  C   UNL     1       8.309 -10.303  -1.945  0.00  0.00    -0.031 C 
ATOM     26  C   UNL     1       8.183  -9.154  -0.988  0.00  0.00    +0.031 C 
ENDBRANCH  20  21
ENDBRANCH   4  20
TORSDOF 4
