REMARK  Name = ZINC64430833
REMARK  7 active torsions:
REMARK  status: ('A' for Active; 'I' for Inactive)
REMARK    1  A    between atoms: C_1  and  C_2
REMARK    2  A    between atoms: C_6  and  N_9
REMARK    3  A    between atoms: C_7  and  C_8
REMARK    4  A    between atoms: C_13  and  C_15
REMARK    5  A    between atoms: C_15  and  N_16
REMARK    6  A    between atoms: C_22  and  N_26
REMARK    7  A    between atoms: C_27  and  C_29
REMARK                            x       y       z     vdW  Elec       q    Type
REMARK                         _______ _______ _______ _____ _____    ______ ____
ROOT
ATOM      1  N   UNL     1      -0.581  -2.748   3.195  0.00  0.00    -0.269 N 
ATOM      2  C   UNL     1      -0.662  -4.094   3.184  0.00  0.00    +0.310 C 
ATOM      3  O   UNL     1      -1.001  -4.674   2.171  0.00  0.00    -0.252 OA
ATOM      4  N   UNL     1      -0.368  -4.795   4.296  0.00  0.00    -0.239 N 
ATOM      5  C   UNL     1      -0.450  -6.141   4.286  0.00  0.00    +0.238 C 
ATOM      6  O   UNL     1      -0.787  -6.720   3.275  0.00  0.00    -0.274 OA
ATOM      7  H   UNL     1      -0.232  -2.290   3.975  0.00  0.00    +0.156 HD
ATOM      8  H   UNL     1      -0.098  -4.332   5.105  0.00  0.00    +0.159 HD
ENDROOT
BRANCH   1  14
ATOM      9  C   UNL     1      -0.394   1.382   0.534  0.00  0.00    +0.044 C 
ATOM     10  C   UNL     1      -0.926  -0.009   0.767  0.00  0.00    -0.046 A 
ATOM     11  C   UNL     1      -1.831  -0.559  -0.122  0.00  0.00    +0.004 A 
ATOM     12  C   UNL     1      -2.322  -1.834   0.088  0.00  0.00    +0.002 A 
ATOM     13  C   UNL     1      -1.910  -2.563   1.187  0.00  0.00    +0.023 A 
ATOM     14  C   UNL     1      -1.001  -2.013   2.081  0.00  0.00    +0.038 A 
ATOM     15  C   UNL     1      -0.505  -0.734   1.864  0.00  0.00    -0.026 A 
ATOM     16  C   UNL     1       0.486  -0.136   2.828  0.00  0.00    +0.046 C 
ENDBRANCH   1  14
BRANCH   5  17
ATOM     17  C   UNL     1      -0.121  -6.925   5.529  0.00  0.00    +0.201 C 
BRANCH  17  18
ATOM     18  N   UNL     1      -0.284  -8.356   5.262  0.00  0.00    -0.319 N 
ATOM     19  C   UNL     1      -1.612  -8.982   5.332  0.00  0.00    +0.106 C 
ATOM     20  C   UNL     1      -1.466 -10.304   6.097  0.00  0.00    +0.024 C 
ATOM     21  C   UNL     1      -0.549 -11.235   5.305  0.00  0.00    +0.038 C 
ATOM     22  C   UNL     1       0.734 -10.532   4.947  0.00  0.00    -0.024 A 
ATOM     23  C   UNL     1       0.822  -9.150   4.929  0.00  0.00    +0.055 A 
ATOM     24  C   UNL     1       2.023  -8.530   4.582  0.00  0.00    +0.055 A 
ATOM     25  C   UNL     1       3.129  -9.299   4.253  0.00  0.00    +0.025 A 
ATOM     26  C   UNL     1       3.036 -10.678   4.270  0.00  0.00    +0.002 A 
ATOM     27  C   UNL     1       1.847 -11.293   4.622  0.00  0.00    +0.005 A 
BRANCH  24  28
ATOM     28  N   UNL     1       2.112  -7.131   4.566  0.00  0.00    -0.284 N 
ATOM     29  C   UNL     1       3.105  -6.511   5.236  0.00  0.00    +0.214 C 
ATOM     30  O   UNL     1       3.971  -7.165   5.777  0.00  0.00    -0.276 OA
ATOM     31  C   UNL     1       3.137  -5.006   5.311  0.00  0.00    +0.109 C 
ATOM     32  H   UNL     1       1.460  -6.609   4.074  0.00  0.00    +0.155 HD
ENDBRANCH  24  28
ENDBRANCH  17  18
ENDBRANCH   5  17
TORSDOF 4
