REMARK  Name = ZINC36120585
REMARK  8 active torsions:
REMARK  status: ('A' for Active; 'I' for Inactive)
REMARK    1  A    between atoms: C_5  and  O_7
REMARK    2  A    between atoms: O_7  and  C_8
REMARK    3  A    between atoms: C_8  and  C_9
REMARK    4  A    between atoms: C_19  and  C_21
REMARK    5  A    between atoms: C_21  and  N_22
REMARK    6  A    between atoms: N_22  and  C_23
REMARK    7  A    between atoms: C_23  and  C_24
REMARK    8  A    between atoms: C_30  and  C_32
REMARK                            x       y       z     vdW  Elec       q    Type
REMARK                         _______ _______ _______ _____ _____    ______ ____
ROOT
ATOM      1  C   UNL     1       1.336  -3.561  -0.896  0.00  0.00    +0.144 C 
ATOM      2  C   UNL     1       2.265  -3.910   0.266  0.00  0.00    -0.014 A 
ATOM      3  C   UNL     1       2.001  -3.556   1.588  0.00  0.00    +0.013 A 
ATOM      4  C   UNL     1       2.871  -3.896   2.566  0.00  0.00    +0.046 A 
ATOM      5  S   UNL     1       4.140  -4.755   1.648  0.00  0.00    -0.101 S 
ATOM      6  C   UNL     1       3.416  -4.600   0.036  0.00  0.00    -0.004 A 
ATOM      7  C   UNL     1       3.937  -5.107  -1.268  0.00  0.00    +0.061 C 
ATOM      8  C   UNL     1       3.190  -4.397  -2.408  0.00  0.00    +0.114 C 
ATOM      9  N   UNL     1       1.760  -4.346  -2.063  0.00  0.00    -0.289 N 
ATOM     10  C   UNL     1       0.853  -5.012  -2.805  0.00  0.00    +0.234 C 
ATOM     11  O   UNL     1      -0.322  -4.965  -2.511  0.00  0.00    -0.274 OA
ENDROOT
BRANCH   1  12
ATOM     12  C   UNL     1       1.440  -2.067  -1.211  0.00  0.00    +0.256 C 
BRANCH  12  13
ATOM     13  O   UNL     1       2.808  -1.722  -1.438  0.00  0.00    -0.487 OA
BRANCH  13  18
ATOM     14  C   UNL     1       2.318   1.822  -2.102  0.00  0.00    +0.004 A 
ATOM     15  C   UNL     1       3.621   2.224  -2.332  0.00  0.00    +0.003 A 
ATOM     16  C   UNL     1       4.653   1.307  -2.264  0.00  0.00    +0.042 A 
ATOM     17  C   UNL     1       4.384  -0.017  -1.964  0.00  0.00    +0.165 A 
ATOM     18  C   UNL     1       3.076  -0.422  -1.732  0.00  0.00    +0.156 A 
ATOM     19  C   UNL     1       2.044   0.501  -1.802  0.00  0.00    +0.048 A 
ATOM     20  F   UNL     1       5.392  -0.913  -1.898  0.00  0.00    -0.202 F 
ENDBRANCH  13  18
ENDBRANCH  12  13
ENDBRANCH   1  12
BRANCH  10  21
ATOM     21  C   UNL     1       1.300  -5.814  -4.000  0.00  0.00    +0.204 C 
BRANCH  21  22
ATOM     22  N   UNL     1       0.135  -6.436  -4.633  0.00  0.00    -0.286 N 
ATOM     23  C   UNL     1      -0.162  -7.726  -4.378  0.00  0.00    +0.247 C 
ATOM     24  O   UNL     1      -1.101  -8.256  -4.939  0.00  0.00    -0.270 OA
BRANCH  23  25
ATOM     25  C   UNL     1       0.654  -8.496  -3.414  0.00  0.00    +0.040 A 
ATOM     26  C   UNL     1       1.045  -7.915  -2.207  0.00  0.00    +0.013 A 
ATOM     27  C   UNL     1       1.806  -8.638  -1.311  0.00  0.00    +0.004 A 
ATOM     28  C   UNL     1       2.182  -9.936  -1.607  0.00  0.00    +0.038 A 
ATOM     29  C   UNL     1       1.798 -10.519  -2.803  0.00  0.00    +0.124 A 
ATOM     30  C   UNL     1       1.030  -9.807  -3.706  0.00  0.00    +0.051 A 
ATOM     31  F   UNL     1       2.169 -11.787  -3.086  0.00  0.00    -0.205 F 
ENDBRANCH  23  25
BRANCH  22  32
ATOM     32  C   UNL     1      -0.707  -5.658  -5.545  0.00  0.00    +0.140 C 
BRANCH  32  33
ATOM     33  C   UNL     1      -0.270  -5.914  -6.988  0.00  0.00    +0.136 C 
ATOM     34  C   UNL     1      -1.126  -5.072  -7.967  0.00  0.00    +0.035 C 
ATOM     35  C   UNL     1      -0.163  -4.962  -9.181  0.00  0.00    +0.031 C 
ATOM     36  C   UNL     1       1.220  -4.903  -8.498  0.00  0.00    +0.160 C 
ATOM     37  O   UNL     1       1.081  -5.466  -7.187  0.00  0.00    -0.375 OA
ENDBRANCH  32  33
ENDBRANCH  22  32
ENDBRANCH  21  22
ENDBRANCH  10  21
TORSDOF 8
