REMARK  Name = ZINC13982492
REMARK  7 active torsions:
REMARK  status: ('A' for Active; 'I' for Inactive)
REMARK    1  A    between atoms: C_1  and  C_2
REMARK    2  A    between atoms: N_4  and  C_5
REMARK    3  A    between atoms: C_5  and  N_7
REMARK    4  A    between atoms: N_7  and  N_8
REMARK    5  A    between atoms: C_9  and  C_11
REMARK    6  A    between atoms: C_11  and  O_12
REMARK    7  A    between atoms: O_12  and  C_13
REMARK                            x       y       z     vdW  Elec       q    Type
REMARK                         _______ _______ _______ _____ _____    ______ ____
ROOT
ATOM      1  N   UNL     1       3.909  -2.193  -0.047  0.00  0.00    -0.232 N 
ATOM      2  C   UNL     1       3.713  -0.860  -0.038  0.00  0.00    +0.267 C 
ATOM      3  O   UNL     1       4.664  -0.107  -0.043  0.00  0.00    -0.271 OA
ATOM      4  H   UNL     1       3.149  -2.795  -0.043  0.00  0.00    +0.173 HD
ENDROOT
BRANCH   1   5
ATOM      5  N   UNL     1       5.212  -2.709  -0.062  0.00  0.00    -0.245 N 
ATOM      6  H   UNL     1       5.972  -2.107  -0.066  0.00  0.00    +0.172 HD
BRANCH   5   7
ATOM      7  C   UNL     1       5.408  -4.043  -0.071  0.00  0.00    +0.153 C 
ATOM      8  S   UNL     1       6.999  -4.673  -0.090  0.00  0.00    -0.017 S 
BRANCH   7  12
ATOM      9  C   UNL     1       3.366  -7.148  -0.068  0.00  0.00    +0.109 C 
ATOM     10  C   UNL     1       4.548  -6.213  -0.075  0.00  0.00    +0.215 C 
ATOM     11  O   UNL     1       5.675  -6.659  -0.088  0.00  0.00    -0.276 OA
ATOM     12  N   UNL     1       4.351  -4.879  -0.066  0.00  0.00    -0.267 N 
ATOM     13  H   UNL     1       3.450  -4.522  -0.055  0.00  0.00    +0.157 HD
ENDBRANCH   7  12
ENDBRANCH   5   7
ENDBRANCH   1   5
BRANCH   2  14
ATOM     14  C   UNL     1       2.312  -0.304  -0.022  0.00  0.00    +0.326 C 
BRANCH  14  15
ATOM     15  O   UNL     1       2.366   1.124  -0.015  0.00  0.00    -0.482 OA
BRANCH  15  16
ATOM     16  C   UNL     1       1.179   1.786   0.000  0.00  0.00    +0.135 A 
ATOM     17  C   UNL     1      -0.013   1.076   0.008  0.00  0.00    +0.048 A 
ATOM     18  C   UNL     1      -1.218   1.751   0.017  0.00  0.00    +0.019 A 
ATOM     19  C   UNL     1      -1.238   3.134   0.030  0.00  0.00    +0.019 A 
ATOM     20  C   UNL     1      -0.051   3.845   0.022  0.00  0.00    +0.034 A 
ATOM     21  C   UNL     1       1.157   3.174   0.008  0.00  0.00    +0.061 A 
ATOM     22 BR   UNL     1       2.779   4.146  -0.003  0.00  0.00    -0.046 Br
ATOM     23 BR   UNL     1      -2.889   4.054   0.050  0.00  0.00    -0.050 Br
ENDBRANCH  15  16
ENDBRANCH  14  15
ENDBRANCH   2  14
TORSDOF 6
