REMARK  Name = ZINC02337211
REMARK  11 active torsions:
REMARK  status: ('A' for Active; 'I' for Inactive)
REMARK    1  A    between atoms: C_1  and  C_2
REMARK    2  A    between atoms: C_4  and  N_11
REMARK    3  A    between atoms: C_5  and  O_9
REMARK    4  A    between atoms: O_9  and  C_10
REMARK    5  A    between atoms: C_12  and  C_14
REMARK    6  A    between atoms: C_14  and  S_15
REMARK    7  A    between atoms: S_15  and  C_16
REMARK    8  A    between atoms: C_20  and  C_24
REMARK    9  A    between atoms: C_21  and  C_23
REMARK   10  A    between atoms: N_27  and  C_28
REMARK   11  A    between atoms: C_28  and  C_29
REMARK                            x       y       z     vdW  Elec       q    Type
REMARK                         _______ _______ _______ _____ _____    ______ ____
ROOT
ATOM      1  S   UNL     1      -0.846   1.693   1.497  0.00  0.00    -0.078 S 
ENDROOT
BRANCH   1   2
ATOM      2  C   UNL     1       0.195   0.996   2.735  0.00  0.00    +0.173 A 
ATOM      3  N   UNL     1       1.238   0.275   2.377  0.00  0.00    -0.216 NA
ATOM      4  C   UNL     1       2.043  -0.259   3.288  0.00  0.00    +0.117 A 
ATOM      5  C   UNL     1       1.822  -0.094   4.668  0.00  0.00    +0.075 A 
ATOM      6  C   UNL     1       2.795  -0.748   5.527  0.00  0.00    -0.026 A 
ATOM      7  C   UNL     1       3.800  -1.439   4.970  0.00  0.00    -0.008 A 
ATOM      8  S   UNL     1       3.508  -1.258   3.221  0.00  0.00    -0.073 S 
ATOM      9  C   UNL     1       4.912  -2.188   5.658  0.00  0.00    +0.052 C 
ATOM     10  C   UNL     1       2.675  -0.651   7.026  0.00  0.00    +0.045 C 
ATOM     11  C   UNL     1       0.680   0.689   5.027  0.00  0.00    +0.263 A 
ATOM     12  O   UNL     1       0.410   0.886   6.199  0.00  0.00    -0.267 OA
ATOM     13  N   UNL     1      -0.092   1.205   4.053  0.00  0.00    -0.283 N 
BRANCH  13  14
ATOM     14  C   UNL     1      -1.263   2.008   4.414  0.00  0.00    +0.154 C 
BRANCH  14  15
ATOM     15  C   UNL     1      -2.466   1.109   4.550  0.00  0.00    -0.013 C 
ATOM     16  C   UNL     1      -3.163   1.111   5.659  0.00  0.00    +0.005 C 
ENDBRANCH  14  15
ENDBRANCH  13  14
ENDBRANCH   1   2
BRANCH   1  17
ATOM     17  C   UNL     1      -0.003   1.103   0.008  0.00  0.00    +0.173 C 
BRANCH  17  19
ATOM     18  N   UNL     1      -0.288   1.272  -2.443  0.00  0.00    -0.282 N 
ATOM     19  C   UNL     1      -0.738   1.591  -1.213  0.00  0.00    +0.228 C 
ATOM     20  O   UNL     1      -1.734   2.272  -1.089  0.00  0.00    -0.275 OA
ATOM     21  H   UNL     1       0.543   0.783  -2.544  0.00  0.00    +0.155 HD
BRANCH  18  25
ATOM     22  C   UNL     1      -3.207   4.513  -4.715  0.00  0.00    +0.045 C 
ATOM     23  C   UNL     1      -2.446   3.212  -4.706  0.00  0.00    -0.030 A 
ATOM     24  C   UNL     1      -1.723   2.844  -3.587  0.00  0.00    +0.031 A 
ATOM     25  C   UNL     1      -1.023   1.647  -3.577  0.00  0.00    +0.076 A 
ATOM     26  C   UNL     1      -1.046   0.820  -4.698  0.00  0.00    +0.143 A 
ATOM     27  C   UNL     1      -1.778   1.193  -5.814  0.00  0.00    +0.067 A 
ATOM     28  C   UNL     1      -2.474   2.389  -5.817  0.00  0.00    +0.047 A 
ATOM     29 CL   UNL     1      -3.384   2.857  -7.220  0.00  0.00    -0.083 Cl
BRANCH  26  30
ATOM     30  O   UNL     1      -0.357  -0.352  -4.695  0.00  0.00    -0.493 OA
ATOM     31  C   UNL     1      -0.427  -1.148  -5.880  0.00  0.00    +0.277 C 
ENDBRANCH  26  30
ENDBRANCH  18  25
ENDBRANCH  17  19
ENDBRANCH   1  17
TORSDOF 7
