REMARK  Name = ZINC07641232
REMARK  7 active torsions:
REMARK  status: ('A' for Active; 'I' for Inactive)
REMARK    1  A    between atoms: C_1  and  C_2
REMARK    2  A    between atoms: C_2  and  C_4
REMARK    3  A    between atoms: C_2  and  N_16
REMARK    4  A    between atoms: N_9  and  C_10
REMARK    5  A    between atoms: N_16  and  C_17
REMARK    6  A    between atoms: N_16  and  C_18
REMARK    7  A    between atoms: C_18  and  C_19
REMARK                            x       y       z     vdW  Elec       q    Type
REMARK                         _______ _______ _______ _____ _____    ______ ____
ROOT
ATOM      1  C   UNL     1      -0.574   1.386   0.329  0.00  0.00    -0.004 C 
ATOM      2  C   UNL     1      -0.066  -0.055   0.244  0.00  0.00    +0.017 C 
ENDROOT
BRANCH   2   3
ATOM      3  C   UNL     1       0.333  -0.529   1.617  0.00  0.00    +0.207 C 
ATOM      4  O   UNL     1      -0.468  -1.119   2.311  0.00  0.00    -0.277 OA
ATOM      5  N   UNL     1       1.580  -0.299   2.074  0.00  0.00    -0.242 N 
ATOM      6  C   UNL     1       1.936  -0.723   3.303  0.00  0.00    +0.306 C 
ATOM      7  O   UNL     1       1.134  -1.314   3.998  0.00  0.00    -0.252 OA
ATOM      8  N   UNL     1       3.183  -0.493   3.760  0.00  0.00    -0.296 N 
ATOM      9  H   UNL     1       2.220   0.172   1.519  0.00  0.00    +0.159 HD
ATOM     10  H   UNL     1       3.824  -0.021   3.204  0.00  0.00    +0.151 HD
BRANCH   8  11
ATOM     11  C   UNL     1       3.571  -0.954   5.095  0.00  0.00    +0.074 C 
ATOM     12  C   UNL     1       4.027  -2.413   5.018  0.00  0.00    +0.022 C 
ATOM     13  C   UNL     1       4.431  -2.894   6.413  0.00  0.00    +0.002 C 
ATOM     14  C   UNL     1       5.578  -2.029   6.939  0.00  0.00    +0.000 C 
ATOM     15  C   UNL     1       5.123  -0.570   7.015  0.00  0.00    +0.002 C 
ATOM     16  C   UNL     1       4.718  -0.088   5.621  0.00  0.00    +0.022 C 
ENDBRANCH   8  11
ENDBRANCH   2   3
BRANCH   2  17
ATOM     17  N   UNL     1      -1.130  -0.919  -0.283  0.00  0.00    +0.388 N 
ATOM     18  C   UNL     1      -0.631  -2.296  -0.398  0.00  0.00    -0.095 C 
ATOM     19  H   UNL     1      -1.921  -0.899   0.344  0.00  0.00    -0.081 HD
BRANCH  17  20
ATOM     20  C   UNL     1      -1.543  -0.436  -1.607  0.00  0.00    -0.042 C 
BRANCH  20  21
ATOM     21  C   UNL     1      -2.717  -1.246  -2.094  0.00  0.00    -0.060 A 
ATOM     22  C   UNL     1      -2.503  -2.397  -2.830  0.00  0.00    +0.005 A 
ATOM     23  C   UNL     1      -3.576  -3.144  -3.279  0.00  0.00    +0.050 A 
ATOM     24  C   UNL     1      -4.870  -2.740  -2.992  0.00  0.00    +0.166 A 
ATOM     25  C   UNL     1      -5.086  -1.581  -2.251  0.00  0.00    +0.166 A 
ATOM     26  C   UNL     1      -4.005  -0.840  -1.800  0.00  0.00    +0.051 A 
ATOM     27  O   UNL     1      -6.431  -1.400  -2.105  0.00  0.00    -0.453 OA
ATOM     28  C   UNL     1      -7.042  -2.233  -3.108  0.00  0.00    +0.466 C 
ATOM     29  O   UNL     1      -6.080  -3.286  -3.310  0.00  0.00    -0.453 OA
ENDBRANCH  20  21
ENDBRANCH  17  20
ENDBRANCH   2  17
TORSDOF 5
