REMARK  Name = ZINC04973907
REMARK  5 active torsions:
REMARK  status: ('A' for Active; 'I' for Inactive)
REMARK    1  A    between atoms: C_3  and  N_19
REMARK    2  A    between atoms: C_5  and  S_7
REMARK    3  A    between atoms: S_7  and  N_10
REMARK    4  A    between atoms: N_10  and  C_11
REMARK    5  A    between atoms: C_14  and  O_18
REMARK                            x       y       z     vdW  Elec       q    Type
REMARK                         _______ _______ _______ _____ _____    ______ ____
ROOT
ATOM      1  S   UNL     1      -0.125   5.736   0.063  0.00  0.00    +0.072 S 
ATOM      2  O   UNL     1      -1.318   6.370   0.501  0.00  0.00    -0.150 OA
ATOM      3  O   UNL     1       1.137   5.983   0.669  0.00  0.00    -0.150 OA
ENDROOT
BRANCH   1   8
ATOM      4  C   UNL     1       0.444   1.764   0.277  0.00  0.00    +0.004 A 
ATOM      5  C   UNL     1      -0.848   1.276   0.352  0.00  0.00    +0.033 A 
ATOM      6  C   UNL     1      -1.918   2.150   0.333  0.00  0.00    +0.128 A 
ATOM      7  C   UNL     1      -1.697   3.512   0.250  0.00  0.00    +0.061 A 
ATOM      8  C   UNL     1      -0.406   4.000   0.175  0.00  0.00    +0.111 A 
ATOM      9  C   UNL     1       0.665   3.125   0.189  0.00  0.00    +0.029 A 
BRANCH   6  10
ATOM     10  N   UNL     1      -3.301   1.628   0.406  0.00  0.00    +0.056 N 
ATOM     11  O   UNL     1      -3.496   0.428   0.483  0.00  0.00    -0.126 OA
ATOM     12  O   UNL     1      -4.245   2.398   0.389  0.00  0.00    -0.126 OA
ENDBRANCH   6  10
ENDBRANCH   1   8
BRANCH   1  13
ATOM     13  N   UNL     1       0.042   6.101  -1.544  0.00  0.00    -0.216 N 
ATOM     14  H   UNL     1       0.883   6.453  -1.876  0.00  0.00    +0.174 HD
BRANCH  13  15
ATOM     15  C   UNL     1      -1.029   5.902  -2.422  0.00  0.00    +0.049 A 
ATOM     16  C   UNL     1      -1.005   4.840  -3.317  0.00  0.00    +0.028 A 
ATOM     17  C   UNL     1      -2.065   4.641  -4.180  0.00  0.00    +0.048 A 
ATOM     18  C   UNL     1      -3.149   5.506  -4.160  0.00  0.00    +0.131 A 
ATOM     19  C   UNL     1      -3.171   6.571  -3.270  0.00  0.00    +0.061 A 
ATOM     20  C   UNL     1      -2.114   6.768  -2.402  0.00  0.00    +0.043 A 
ATOM     21 BR   UNL     1      -4.649   7.750  -3.244  0.00  0.00    -0.046 Br
BRANCH  18  22
ATOM     22  O   UNL     1      -4.189   5.313  -5.014  0.00  0.00    -0.506 OA
ATOM     23  H   UNL     1      -4.092   5.768  -5.862  0.00  0.00    +0.292 HD
ENDBRANCH  18  22
ENDBRANCH  13  15
ENDBRANCH   1  13
TORSDOF 5
