REMARK  Name = ZINC39465850
REMARK  7 active torsions:
REMARK  status: ('A' for Active; 'I' for Inactive)
REMARK    1  A    between atoms: C_1  and  O_2
REMARK    2  A    between atoms: O_2  and  C_3
REMARK    3  A    between atoms: C_8  and  C_9
REMARK    4  A    between atoms: C_9  and  C_10
REMARK    5  A    between atoms: P_23  and  S_26
REMARK    6  A    between atoms: S_26  and  O_29
REMARK    7  A    between atoms: O_29  and  C_30
REMARK                            x       y       z     vdW  Elec       q    Type
REMARK                         _______ _______ _______ _____ _____    ______ ____
ROOT
ATOM      1  C   UNL     1       0.626  -0.618   1.042  0.00  0.00    +0.124 A 
ATOM      2  C   UNL     1       1.202   0.136   2.050  0.00  0.00    +0.051 A 
ATOM      3  C   UNL     1       1.840  -0.485   3.113  0.00  0.00    -0.020 A 
ATOM      4  C   UNL     1       1.899  -1.862   3.163  0.00  0.00    -0.041 A 
ATOM      5  C   UNL     1       1.323  -2.619   2.155  0.00  0.00    +0.011 A 
ATOM      6  C   UNL     1       0.683  -2.003   1.099  0.00  0.00    -0.001 A 
ATOM      7  C   UNL     1       2.580  -2.578   4.302  0.00  0.00    +0.052 C 
ATOM      8  C   UNL     1       3.519  -1.615   5.027  0.00  0.00    +0.108 C 
ATOM      9  N   UNL     1       2.770  -0.398   5.378  0.00  0.00    -0.224 NA
ATOM     10  C   UNL     1       2.451   0.382   4.183  0.00  0.00    +0.130 C 
ATOM     11  C   UNL     1       1.485   1.523   4.513  0.00  0.00    +0.195 C 
ATOM     12  O   UNL     1       2.124   2.413   5.449  0.00  0.00    -0.296 OA
ATOM     13  P   UNL     1       2.810   1.772   6.777  0.00  0.00    +0.458 P 
ATOM     14  O   UNL     1       1.782   1.514   7.810  0.00  0.00    -0.243 OA
ATOM     15  N   UNL     1       3.492   0.349   6.282  0.00  0.00    -0.158 NA
ATOM     16  H   UNL     1       4.356   0.055   6.612  0.00  0.00    +0.152 HD
ENDROOT
BRANCH  13  17
ATOM     17  S   UNL     1       4.299   3.077   7.535  0.00  0.00    +0.211 S 
ATOM     18  O   UNL     1       4.743   2.516   8.763  0.00  0.00    -0.126 OA
ATOM     19  O   UNL     1       5.185   3.352   6.459  0.00  0.00    -0.126 OA
BRANCH  17  20
ATOM     20  O   UNL     1       3.612   4.391   7.880  0.00  0.00    -0.339 OA
BRANCH  20  21
ATOM     21  C   UNL     1       2.869   4.345   9.017  0.00  0.00    +0.157 A 
ATOM     22  C   UNL     1       1.531   3.982   8.958  0.00  0.00    +0.048 A 
ATOM     23  C   UNL     1       0.778   3.935  10.115  0.00  0.00    +0.004 A 
ATOM     24  C   UNL     1       1.357   4.250  11.331  0.00  0.00    +0.000 A 
ATOM     25  C   UNL     1       2.690   4.612  11.392  0.00  0.00    +0.004 A 
ATOM     26  C   UNL     1       3.449   4.654  10.239  0.00  0.00    +0.048 A 
ENDBRANCH  20  21
ENDBRANCH  17  20
ENDBRANCH  13  17
BRANCH   1  28
ATOM     27  C   UNL     1      -0.017   1.425   0.010  0.00  0.00    +0.277 C 
ATOM     28  O   UNL     1       0.002  -0.004   0.002  0.00  0.00    -0.495 OA
ENDBRANCH   1  28
BRANCH   6  29
ATOM     29  C   UNL     1       0.052  -2.832   0.009  0.00  0.00    +0.074 C 
BRANCH  29  30
ATOM     30  C   UNL     1       1.025  -2.984  -1.132  0.00  0.00    -0.043 A 
ATOM     31  C   UNL     1       1.038  -2.057  -2.157  0.00  0.00    +0.004 A 
ATOM     32  C   UNL     1       1.930  -2.196  -3.204  0.00  0.00    +0.000 A 
ATOM     33  C   UNL     1       2.808  -3.264  -3.226  0.00  0.00    +0.000 A 
ATOM     34  C   UNL     1       2.795  -4.191  -2.201  0.00  0.00    +0.000 A 
ATOM     35  C   UNL     1       1.907  -4.049  -1.151  0.00  0.00    +0.004 A 
ENDBRANCH  29  30
ENDBRANCH   6  29
TORSDOF 6
