REMARK  Name = ZINC14744359
REMARK  7 active torsions:
REMARK  status: ('A' for Active; 'I' for Inactive)
REMARK    1  A    between atoms: C_1  and  O_2
REMARK    2  A    between atoms: O_2  and  C_3
REMARK    3  A    between atoms: C_7  and  C_9
REMARK    4  A    between atoms: C_9  and  N_10
REMARK    5  A    between atoms: C_13  and  C_15
REMARK    6  A    between atoms: C_21  and  O_24
REMARK    7  A    between atoms: C_28  and  N_66
REMARK                            x       y       z     vdW  Elec       q    Type
REMARK                         _______ _______ _______ _____ _____    ______ ____
ROOT
ATOM      1  N   UNL     1      -0.076   5.617  -1.452  0.00  0.00    -0.263 N 
ATOM      2  C   UNL     1       0.985   6.156  -2.067  0.00  0.00    +0.040 A 
ATOM      3  C   UNL     1       0.542   6.712  -3.224  0.00  0.00    -0.011 A 
ATOM      4  C   UNL     1      -0.840   6.478  -3.259  0.00  0.00    +0.149 A 
ATOM      5  N   UNL     1      -1.139   5.811  -2.156  0.00  0.00    -0.166 NA
ATOM      6  C   UNL     1       1.430   7.425  -4.206  0.00  0.00    -0.038 C 
ATOM      7  C   UNL     1       3.273   6.546  -2.883  0.00  0.00    -0.072 C 
ATOM      8  C   UNL     1       2.434   6.176  -1.651  0.00  0.00    +0.037 C 
ATOM      9  N   UNL     1       2.699   7.758  -3.510  0.00  0.00    +0.385 N 
ATOM     10  H   UNL     1       2.505   8.451  -2.778  0.00  0.00    -0.081 HD
ENDROOT
BRANCH   4  11
ATOM     11  C   UNL     1      -1.780   6.893  -4.320  0.00  0.00    +0.267 C 
ATOM     12  O   UNL     1      -1.357   7.402  -5.340  0.00  0.00    -0.268 OA
ATOM     13  N   UNL     1      -3.105   6.709  -4.158  0.00  0.00    -0.294 N 
ATOM     14  C   UNL     1      -4.038   6.975  -5.261  0.00  0.00    +0.108 C 
ATOM     15  C   UNL     1      -5.122   7.940  -4.768  0.00  0.00    +0.021 C 
ATOM     16  C   UNL     1      -5.780   7.363  -3.512  0.00  0.00    +0.034 C 
ATOM     17  C   UNL     1      -4.731   7.210  -2.409  0.00  0.00    +0.132 C 
ATOM     18  C   UNL     1      -3.643   6.231  -2.877  0.00  0.00    +0.139 C 
BRANCH  17  19
ATOM     19  O   UNL     1      -5.352   6.700  -1.227  0.00  0.00    -0.390 OA
ATOM     20  H   UNL     1      -4.745   6.578  -0.485  0.00  0.00    +0.210 HD
ENDBRANCH  17  19
ENDBRANCH   4  11
BRANCH   9  21
ATOM     21  C   UNL     1       3.664   8.333  -4.471  0.00  0.00    -0.068 C 
ATOM     22  C   UNL     1       4.004   7.327  -5.590  0.00  0.00    -0.015 C 
ATOM     23  C   UNL     1       5.510   7.561  -5.865  0.00  0.00    -0.002 C 
ATOM     24  C   UNL     1       6.081   7.822  -4.449  0.00  0.00    -0.002 C 
ATOM     25  C   UNL     1       4.984   8.647  -3.745  0.00  0.00    -0.015 C 
ENDBRANCH   9  21
BRANCH   1  26
ATOM     26  C   UNL     1      -0.036   4.914  -0.167  0.00  0.00    +0.179 C 
BRANCH  26  31
ATOM     27  C   UNL     1       1.711   1.602  -0.671  0.00  0.00    +0.120 A 
ATOM     28  C   UNL     1       0.632   0.746  -0.843  0.00  0.00    +0.045 A 
ATOM     29  C   UNL     1      -0.656   1.243  -0.801  0.00  0.00    +0.004 A 
ATOM     30  C   UNL     1      -0.871   2.590  -0.577  0.00  0.00    +0.005 A 
ATOM     31  C   UNL     1       0.202   3.445  -0.405  0.00  0.00    -0.023 A 
ATOM     32  C   UNL     1       1.492   2.954  -0.452  0.00  0.00    +0.051 A 
BRANCH  27  34
ATOM     33  C   UNL     1       3.129  -0.286  -0.948  0.00  0.00    +0.277 C 
ATOM     34  O   UNL     1       2.979   1.116  -0.718  0.00  0.00    -0.495 OA
ENDBRANCH  27  34
ENDBRANCH  26  31
ENDBRANCH   1  26
TORSDOF 6
