REMARK  Name = ZINC43540666
REMARK  7 active torsions:
REMARK  status: ('A' for Active; 'I' for Inactive)
REMARK    1  A    between atoms: C_1  and  C_2
REMARK    2  A    between atoms: C_2  and  C_3
REMARK    3  A    between atoms: C_3  and  C_5
REMARK    4  A    between atoms: C_3  and  N_9
REMARK    5  A    between atoms: N_6  and  O_7
REMARK    6  A    between atoms: C_10  and  C_15
REMARK    7  A    between atoms: C_12  and  C_14
REMARK                            x       y       z     vdW  Elec       q    Type
REMARK                         _______ _______ _______ _____ _____    ______ ____
ROOT
ATOM      1  C   UNL     1       0.718  -0.497  -1.257  0.00  0.00    +0.173 C 
ENDROOT
BRANCH   1   2
ATOM      2  N   UNL     1       0.634  -1.958  -1.325  0.00  0.00    -0.258 N 
ATOM      3  C   UNL     1       0.068  -2.675  -2.319  0.00  0.00    +0.037 A 
ATOM      4  C   UNL     1       0.197  -3.986  -2.007  0.00  0.00    +0.047 A 
ATOM      5  C   UNL     1       0.864  -4.073  -0.781  0.00  0.00    +0.060 A 
ATOM      6  N   UNL     1       1.132  -2.858  -0.375  0.00  0.00    -0.176 NA
ATOM      7  C   UNL     1       1.220  -5.346  -0.057  0.00  0.00    +0.067 C 
ATOM      8  C   UNL     1      -0.590  -2.116  -3.554  0.00  0.00    +0.065 C 
ENDBRANCH   1   2
BRANCH   1   9
ATOM      9  C   UNL     1       2.165  -0.079  -1.208  0.00  0.00    +0.156 C 
ATOM     10  N   UNL     1       2.736   0.142  -0.070  0.00  0.00    -0.075 NA
ATOM     11  N   UNL     1       2.880   0.066  -2.376  0.00  0.00    -0.342 N 
ATOM     12  H   UNL     1       2.451  -0.100  -3.231  0.00  0.00    +0.144 HD
ATOM     13  H   UNL     1       3.811   0.335  -2.345  0.00  0.00    +0.144 HD
BRANCH  10  14
ATOM     14  O   UNL     1       4.095   0.535  -0.024  0.00  0.00    -0.408 OA
ATOM     15  H   UNL     1       4.433   0.678   0.870  0.00  0.00    +0.328 HD
ENDBRANCH  10  14
ENDBRANCH   1   9
BRANCH   1  17
ATOM     16  C   UNL     1      -0.019   1.526   0.010  0.00  0.00    +0.006 C 
ATOM     17  C   UNL     1       0.002  -0.004   0.002  0.00  0.00    +0.031 C 
ENDBRANCH   1  17
TORSDOF 4
