REMARK  Name = ZINC14551093
REMARK  7 active torsions:
REMARK  status: ('A' for Active; 'I' for Inactive)
REMARK    1  A    between atoms: C_1  and  C_2
REMARK    2  A    between atoms: C_2  and  C_3
REMARK    3  A    between atoms: C_3  and  C_5
REMARK    4  A    between atoms: C_3  and  N_6
REMARK    5  A    between atoms: C_7  and  C_9
REMARK    6  A    between atoms: C_22  and  C_25
REMARK    7  A    between atoms: C_28  and  N_31
REMARK                            x       y       z     vdW  Elec       q    Type
REMARK                         _______ _______ _______ _____ _____    ______ ____
ROOT
ATOM      1  C   UNL     1       3.392   1.204  -1.081  0.00  0.00    +0.037 A 
ATOM      2  C   UNL     1       3.910   2.209  -0.258  0.00  0.00    +0.015 A 
ATOM      3  C   UNL     1       3.089   2.829   0.655  0.00  0.00    +0.024 A 
ATOM      4  C   UNL     1       1.751   2.458   0.759  0.00  0.00    +0.031 A 
ATOM      5  C   UNL     1       1.226   1.459  -0.052  0.00  0.00    -0.019 A 
ATOM      6  C   UNL     1       2.051   0.836  -0.971  0.00  0.00    +0.019 A 
ATOM      7  C   UNL     1      -0.204   1.029   0.031  0.00  0.00    +0.049 C 
ATOM      8  C   UNL     1      -1.006   1.557  -1.135  0.00  0.00    -0.023 C 
ATOM      9  C   UNL     1      -2.203   1.888  -0.767  0.00  0.00    -0.030 C 
ATOM     10  C   UNL     1      -2.389   1.622   0.714  0.00  0.00    +0.033 C 
ATOM     11  C   UNL     1      -0.933   1.602   1.263  0.00  0.00    +0.029 C 
ATOM     12  C   UNL     1      -0.516   3.044   1.504  0.00  0.00    +0.105 C 
ATOM     13  N   UNL     1       0.937   3.104   1.688  0.00  0.00    -0.336 N 
ATOM     14  H   UNL     1       1.323   3.581   2.439  0.00  0.00    +0.147 HD
ENDROOT
BRANCH  12  15
ATOM     15  C   UNL     1      -0.908   3.877   0.310  0.00  0.00    -0.027 A 
ATOM     16  C   UNL     1      -0.029   4.027  -0.747  0.00  0.00    +0.008 A 
ATOM     17  C   UNL     1      -0.391   4.787  -1.843  0.00  0.00    +0.033 A 
ATOM     18  C   UNL     1      -1.626   5.405  -1.879  0.00  0.00    +0.126 A 
ATOM     19  C   UNL     1      -2.503   5.260  -0.820  0.00  0.00    +0.033 A 
ATOM     20  C   UNL     1      -2.143   4.496   0.275  0.00  0.00    +0.008 A 
BRANCH  18  21
ATOM     21  N   UNL     1      -2.011   6.223  -3.051  0.00  0.00    +0.056 N 
ATOM     22  O   UNL     1      -3.100   6.768  -3.083  0.00  0.00    -0.126 OA
ATOM     23  O   UNL     1      -1.239   6.351  -3.985  0.00  0.00    -0.126 OA
ENDBRANCH  18  21
ENDBRANCH  12  15
BRANCH   1  25
ATOM     24  N   UNL     1       5.559   0.890  -2.171  0.00  0.00    -0.309 N 
ATOM     25  C   UNL     1       4.263   0.534  -2.065  0.00  0.00    +0.244 C 
ATOM     26  O   UNL     1       3.813  -0.340  -2.780  0.00  0.00    -0.270 OA
ATOM     27  H   UNL     1       5.918   1.587  -1.600  0.00  0.00    +0.149 HD
BRANCH  24  28
ATOM     28  C   UNL     1       6.424   0.225  -3.147  0.00  0.00    +0.070 C 
ATOM     29  C   UNL     1       6.980  -1.065  -2.541  0.00  0.00    +0.028 C 
BRANCH  28  31
ATOM     30  C   UNL     1       7.034   2.388  -4.239  0.00  0.00    +0.005 C 
ATOM     31  C   UNL     1       7.582   1.153  -3.520  0.00  0.00    +0.018 C 
ENDBRANCH  28  31
ENDBRANCH  24  28
ENDBRANCH   1  25
TORSDOF 5
