REMARK  Name = ZINC26807304
REMARK  10 active torsions:
REMARK  status: ('A' for Active; 'I' for Inactive)
REMARK    1  A    between atoms: C_1  and  C_2
REMARK    2  A    between atoms: C_2  and  N_3
REMARK    3  A    between atoms: N_3  and  C_4
REMARK    4  A    between atoms: C_4  and  C_5
REMARK    5  A    between atoms: C_6  and  C_8
REMARK    6  A    between atoms: C_8  and  C_10
REMARK    7  A    between atoms: C_8  and  S_11
REMARK    8  A    between atoms: S_11  and  C_12
REMARK    9  A    between atoms: N_22  and  C_23
REMARK   10  A    between atoms: C_28  and  C_29
REMARK                            x       y       z     vdW  Elec       q    Type
REMARK                         _______ _______ _______ _____ _____    ______ ____
ROOT
ATOM      1  C   UNL     1       3.016  -2.664   0.962  0.00  0.00    +0.177 A 
ATOM      2  N   UNL     1       3.900  -1.830   0.472  0.00  0.00    -0.223 NA
ATOM      3  C   UNL     1       5.223  -2.114   0.484  0.00  0.00    +0.079 A 
ATOM      4  C   UNL     1       6.166  -1.225  -0.040  0.00  0.00    +0.029 A 
ATOM      5  C   UNL     1       7.494  -1.547  -0.010  0.00  0.00    +0.016 A 
ATOM      6  C   UNL     1       7.925  -2.751   0.535  0.00  0.00    +0.014 A 
ATOM      7  C   UNL     1       7.019  -3.647   1.059  0.00  0.00    +0.029 A 
ATOM      8  C   UNL     1       5.660  -3.338   1.038  0.00  0.00    +0.066 A 
ATOM      9  C   UNL     1       4.648  -4.255   1.581  0.00  0.00    +0.267 A 
ATOM     10  O   UNL     1       4.964  -5.323   2.072  0.00  0.00    -0.267 OA
ATOM     11  N   UNL     1       3.354  -3.865   1.521  0.00  0.00    -0.255 N 
ATOM     12  I   UNL     1       9.970  -3.204   0.561  0.00  0.00    -0.044 I 
ENDROOT
BRANCH  11  13
ATOM     13  C   UNL     1       2.352  -4.702   2.030  0.00  0.00    +0.055 A 
ATOM     14  C   UNL     1       1.746  -5.642   1.207  0.00  0.00    +0.026 A 
ATOM     15  C   UNL     1       0.763  -6.469   1.714  0.00  0.00    +0.002 A 
ATOM     16  C   UNL     1       0.372  -6.353   3.035  0.00  0.00    +0.000 A 
ATOM     17  C   UNL     1       0.970  -5.414   3.856  0.00  0.00    +0.005 A 
ATOM     18  C   UNL     1       1.958  -4.588   3.357  0.00  0.00    -0.026 A 
ATOM     19  C   UNL     1       2.609  -3.565   4.252  0.00  0.00    +0.046 C 
ENDBRANCH  11  13
BRANCH   1  20
ATOM     20  S   UNL     1       1.313  -2.213   0.905  0.00  0.00    -0.075 S 
BRANCH  20  21
ATOM     21  C   UNL     1       1.443  -0.595   0.104  0.00  0.00    +0.137 C 
ATOM     22  C   UNL     1       1.974  -0.772  -1.320  0.00  0.00    +0.029 C 
BRANCH  21  24
ATOM     23  N   UNL     1      -0.024   1.396   0.054  0.00  0.00    -0.301 N 
ATOM     24  C   UNL     1       0.083   0.053   0.057  0.00  0.00    +0.229 C 
ATOM     25  O   UNL     1      -0.915  -0.635   0.020  0.00  0.00    -0.274 OA
BRANCH  23  27
ATOM     26  C   UNL     1      -1.916   2.346   1.279  0.00  0.00    +0.024 C 
ATOM     27  C   UNL     1      -1.337   2.026  -0.101  0.00  0.00    +0.104 C 
ENDBRANCH  23  27
BRANCH  23  28
ATOM     28  C   UNL     1       1.173   2.226   0.213  0.00  0.00    +0.104 C 
ATOM     29  C   UNL     1       1.677   2.664  -1.163  0.00  0.00    +0.024 C 
ENDBRANCH  23  28
ENDBRANCH  21  24
ENDBRANCH  20  21
ENDBRANCH   1  20
TORSDOF 6
