REMARK  Name = ZINC66581560
REMARK  8 active torsions:
REMARK  status: ('A' for Active; 'I' for Inactive)
REMARK    1  A    between atoms: C_1  and  C_2
REMARK    2  A    between atoms: C_5  and  C_9
REMARK    3  A    between atoms: C_6  and  C_8
REMARK    4  A    between atoms: C_9  and  C_10
REMARK    5  A    between atoms: C_10  and  C_12
REMARK    6  A    between atoms: C_10  and  N_13
REMARK    7  A    between atoms: N_13  and  S_14
REMARK    8  A    between atoms: S_14  and  C_17
REMARK                            x       y       z     vdW  Elec       q    Type
REMARK                         _______ _______ _______ _____ _____    ______ ____
ROOT
ATOM      1  S   UNL     1      -3.749  -4.045  -0.928  0.00  0.00    +0.059 S 
ATOM      2  O   UNL     1      -4.204  -3.693  -2.228  0.00  0.00    -0.153 OA
ATOM      3  O   UNL     1      -4.343  -5.090  -0.171  0.00  0.00    -0.153 OA
ENDROOT
BRANCH   1   4
ATOM      4  C   UNL     1      -3.857  -2.587   0.055  0.00  0.00    +0.107 A 
ATOM      5  C   UNL     1      -3.960  -2.690   1.432  0.00  0.00    +0.030 A 
ATOM      6  C   UNL     1      -4.045  -1.553   2.209  0.00  0.00    +0.030 A 
ATOM      7  C   UNL     1      -4.026  -0.298   1.611  0.00  0.00    +0.066 A 
ATOM      8  C   UNL     1      -3.922  -0.194   0.223  0.00  0.00    +0.068 A 
ATOM      9  C   UNL     1      -3.831  -1.347  -0.549  0.00  0.00    +0.056 A 
ATOM     10  N   UNL     1      -3.903   1.053  -0.395  0.00  0.00    -0.316 N 
ATOM     11  H   UNL     1      -3.831   1.114  -1.360  0.00  0.00    +0.169 HD
ATOM     12  C   UNL     1      -3.985   2.176   0.347  0.00  0.00    +0.314 A 
ATOM     13  O   UNL     1      -3.969   3.267  -0.188  0.00  0.00    -0.262 OA
ATOM     14  C   UNL     1      -4.096   2.066   1.830  0.00  0.00    +0.314 A 
ATOM     15  O   UNL     1      -4.171   3.066   2.516  0.00  0.00    -0.262 OA
ATOM     16  N   UNL     1      -4.113   0.845   2.402  0.00  0.00    -0.316 N 
ATOM     17  H   UNL     1      -4.185   0.762   3.366  0.00  0.00    +0.169 HD
ENDBRANCH   1   4
BRANCH   1  18
ATOM     18  N   UNL     1      -2.143  -4.420  -1.074  0.00  0.00    -0.187 NA
ATOM     19  H   UNL     1      -1.714  -4.386  -1.944  0.00  0.00    +0.148 HD
BRANCH  18  20
ATOM     20  C   UNL     1      -1.370  -4.804   0.109  0.00  0.00    +0.078 C 
ATOM     21  C   UNL     1      -1.341  -6.330   0.226  0.00  0.00    +0.026 C 
BRANCH  20  22
ATOM     22  C   UNL     1       0.059  -4.275  -0.021  0.00  0.00    +0.055 C 
BRANCH  22  27
ATOM     23  C   UNL     1      -0.018   1.503   0.010  0.00  0.00    +0.044 C 
ATOM     24  C   UNL     1       0.002  -0.004   0.002  0.00  0.00    -0.050 A 
ATOM     25  C   UNL     1       0.006  -0.689  -1.199  0.00  0.00    +0.003 A 
ATOM     26  C   UNL     1       0.025  -2.071  -1.207  0.00  0.00    +0.004 A 
ATOM     27  C   UNL     1       0.040  -2.768  -0.013  0.00  0.00    -0.043 A 
ATOM     28  C   UNL     1       0.037  -2.084   1.188  0.00  0.00    -0.047 A 
ATOM     29  C   UNL     1       0.023  -0.702   1.195  0.00  0.00    +0.007 A 
ATOM     30  C   UNL     1       0.054  -2.845   2.489  0.00  0.00    +0.044 C 
ENDBRANCH  22  27
ENDBRANCH  20  22
ENDBRANCH  18  20
ENDBRANCH   1  18
TORSDOF 5
