REMARK  Name = ZINC12374976
REMARK  2 active torsions:
REMARK  status: ('A' for Active; 'I' for Inactive)
REMARK    1  A    between atoms: C_3  and  C_6
REMARK    2  A    between atoms: C_13  and  C_15
REMARK                            x       y       z     vdW  Elec       q    Type
REMARK                         _______ _______ _______ _____ _____    ______ ____
ROOT
ATOM      1  C   UNL     1      -2.594   1.202   0.020  0.00  0.00    +0.039 C 
ATOM      2  C   UNL     1      -3.335   1.696  -1.219  0.00  0.00    +0.065 C 
ATOM      3  C   UNL     1      -4.781   1.279  -1.193  0.00  0.00    +0.053 A 
ATOM      4  C   UNL     1      -5.427   0.968   0.007  0.00  0.00    +0.039 A 
ATOM      5  C   UNL     1      -6.779   0.596  -0.005  0.00  0.00    +0.015 A 
ATOM      6  C   UNL     1      -7.433   0.547  -1.220  0.00  0.00    +0.029 A 
ATOM      7  C   UNL     1      -6.726   0.866  -2.381  0.00  0.00    +0.071 A 
ATOM      8  N   UNL     1      -5.447   1.214  -2.331  0.00  0.00    -0.251 NA
ATOM      9  C   UNL     1      -4.694   1.028   1.283  0.00  0.00    +0.165 C 
ATOM     10  O   UNL     1      -5.168   0.571   2.301  0.00  0.00    -0.292 OA
ATOM     11  C   UNL     1      -3.328   1.683   1.279  0.00  0.00    +0.088 C 
ENDROOT
BRANCH   7  12
ATOM     12  C   UNL     1      -7.416   0.813  -3.691  0.00  0.00    +0.000 A 
ATOM     13  C   UNL     1      -8.759   0.443  -3.760  0.00  0.00    +0.011 A 
ATOM     14  C   UNL     1      -9.398   0.400  -4.982  0.00  0.00    +0.020 A 
ATOM     15  C   UNL     1      -8.705   0.715  -6.139  0.00  0.00    +0.041 A 
ATOM     16  C   UNL     1      -7.371   1.079  -6.077  0.00  0.00    +0.020 A 
ATOM     17  C   UNL     1      -6.724   1.129  -4.859  0.00  0.00    +0.011 A 
ATOM     18 CL   UNL     1      -9.514   0.652  -7.674  0.00  0.00    -0.084 Cl
ENDBRANCH   7  12
BRANCH   1  21
ATOM     19  C   UNL     1       1.169   1.793   0.001  0.00  0.00    +0.008 A 
ATOM     20  C   UNL     1      -0.013   1.076   0.008  0.00  0.00    +0.011 A 
ATOM     21  C   UNL     1      -1.190   1.748   0.017  0.00  0.00    -0.006 A 
ATOM     22  S   UNL     1      -0.644   3.448   0.027  0.00  0.00    -0.101 S 
ATOM     23  C   UNL     1       1.115   3.148   0.008  0.00  0.00    +0.045 A 
ENDBRANCH   1  21
TORSDOF 2
