REMARK  Name = ZINC45781220
REMARK  6 active torsions:
REMARK  status: ('A' for Active; 'I' for Inactive)
REMARK    1  A    between atoms: C_1  and  C_2
REMARK    2  A    between atoms: C_5  and  N_10
REMARK    3  A    between atoms: N_13  and  S_16
REMARK    4  A    between atoms: S_16  and  N_19
REMARK    5  A    between atoms: N_19  and  C_20
REMARK    6  A    between atoms: N_19  and  C_21
REMARK                            x       y       z     vdW  Elec       q    Type
REMARK                         _______ _______ _______ _____ _____    ______ ____
ROOT
ATOM      1  N   UNL     1       2.990  -1.657  -1.106  0.00  0.00    -0.287 NA
ATOM      2  C   UNL     1       2.382  -2.871  -0.545  0.00  0.00    +0.102 C 
ATOM      3  C   UNL     1       3.083  -4.104  -1.123  0.00  0.00    +0.126 C 
ATOM      4  N   UNL     1       4.529  -3.970  -0.894  0.00  0.00    -0.164 NA
ATOM      5  C   UNL     1       5.186  -2.721  -1.307  0.00  0.00    +0.126 C 
ATOM      6  C   UNL     1       4.402  -1.542  -0.721  0.00  0.00    +0.102 C 
ENDROOT
BRANCH   1  10
ATOM      7  C   UNL     1      -0.019   1.526   0.010  0.00  0.00    +0.052 C 
ATOM      8  C   UNL     1       0.002  -0.004   0.002  0.00  0.00    +0.175 C 
ATOM      9  C   UNL     1       0.779  -0.537  -1.232  0.00  0.00    +0.074 C 
ATOM     10  C   UNL     1       2.237  -0.460  -0.711  0.00  0.00    +0.170 C 
ATOM     11  C   UNL     1       2.083  -0.398   0.797  0.00  0.00    +0.325 C 
ATOM     12  O   UNL     1       2.986  -0.267   1.590  0.00  0.00    -0.249 OA
ATOM     13  O   UNL     1       0.773  -0.511   1.111  0.00  0.00    -0.460 OA
ENDBRANCH   1  10
BRANCH   4  14
ATOM     14  S   UNL     1       5.395  -5.194  -0.190  0.00  0.00    +0.099 S 
ATOM     15  O   UNL     1       6.546  -4.595   0.389  0.00  0.00    -0.141 OA
ATOM     16  O   UNL     1       4.471  -5.960   0.570  0.00  0.00    -0.141 OA
BRANCH  14  17
ATOM     17  N   UNL     1       5.935  -6.176  -1.409  0.00  0.00    -0.172 NA
ATOM     18  C   UNL     1       7.231  -5.915  -2.041  0.00  0.00    +0.132 C 
ATOM     19  C   UNL     1       5.117  -7.305  -1.857  0.00  0.00    +0.132 C 
ENDBRANCH  14  17
ENDBRANCH   4  14
TORSDOF 3
