REMARK  Name = ZINC40429808
REMARK  5 active torsions:
REMARK  status: ('A' for Active; 'I' for Inactive)
REMARK    1  A    between atoms: C_3  and  C_6
REMARK    2  A    between atoms: C_8  and  C_11
REMARK    3  A    between atoms: C_11  and  S_12
REMARK    4  A    between atoms: S_12  and  C_13
REMARK    5  A    between atoms: C_17  and  N_19
REMARK                            x       y       z     vdW  Elec       q    Type
REMARK                         _______ _______ _______ _____ _____    ______ ____
ROOT
ATOM      1  S   UNL     1       6.939  -1.944  -1.798  0.00  0.00    -0.080 S 
ENDROOT
BRANCH   1   2
ATOM      2  C   UNL     1       7.992  -3.349  -1.655  0.00  0.00    +0.192 A 
ATOM      3  N   UNL     1       8.319  -3.791  -0.449  0.00  0.00    -0.207 NA
ATOM      4  C   UNL     1       9.112  -4.849  -0.302  0.00  0.00    +0.122 A 
ATOM      5  C   UNL     1       9.599  -5.493  -1.435  0.00  0.00    +0.086 A 
ATOM      6  C   UNL     1       9.235  -5.001  -2.685  0.00  0.00    +0.122 A 
ATOM      7  N   UNL     1       8.434  -3.940  -2.756  0.00  0.00    -0.207 NA
ATOM      8  N   UNL     1       9.448  -5.304   0.964  0.00  0.00    -0.343 N 
ATOM      9  H   UNL     1       9.105  -4.851   1.749  0.00  0.00    +0.144 HD
ATOM     10  H   UNL     1      10.027  -6.077   1.063  0.00  0.00    +0.144 HD
BRANCH   6  11
ATOM     11  N   UNL     1       9.697  -5.610  -3.842  0.00  0.00    -0.343 N 
ATOM     12  H   UNL     1      10.277  -6.384  -3.783  0.00  0.00    +0.144 HD
ATOM     13  H   UNL     1       9.439  -5.261  -4.710  0.00  0.00    +0.144 HD
ENDBRANCH   6  11
ENDBRANCH   1   2
BRANCH   1  14
ATOM     14  C   UNL     1       6.592  -1.478  -0.080  0.00  0.00    +0.133 C 
BRANCH  14  17
ATOM     15  C   UNL     1       3.567   0.618  -0.029  0.00  0.00    +0.144 A 
ATOM     16  N   UNL     1       4.385  -0.428  -0.048  0.00  0.00    -0.240 NA
ATOM     17  C   UNL     1       5.689  -0.272  -0.059  0.00  0.00    +0.059 A 
ATOM     18  C   UNL     1       6.222   0.978  -0.051  0.00  0.00    +0.071 A 
ATOM     19  S   UNL     1       4.735   1.972  -0.034  0.00  0.00    -0.072 S 
BRANCH  15  22
ATOM     20  C   UNL     1      -0.016   1.344   0.009  0.00  0.00    +0.042 A 
ATOM     21  C   UNL     1       1.324   1.776  -0.001  0.00  0.00    +0.052 A 
ATOM     22  C   UNL     1       2.097   0.654  -0.015  0.00  0.00    +0.160 A 
ATOM     23  O   UNL     1       1.279  -0.418  -0.012  0.00  0.00    -0.461 OA
ATOM     24  C   UNL     1       0.002  -0.004   0.002  0.00  0.00    +0.196 A 
ENDBRANCH  15  22
ENDBRANCH  14  17
ENDBRANCH   1  14
TORSDOF 5
