REMARK  Name = ZINC14467872
REMARK  7 active torsions:
REMARK  status: ('A' for Active; 'I' for Inactive)
REMARK    1  A    between atoms: C_1  and  C_2
REMARK    2  A    between atoms: C_2  and  C_3
REMARK    3  A    between atoms: C_3  and  C_5
REMARK    4  A    between atoms: C_3  and  O_6
REMARK    5  A    between atoms: O_6  and  C_7
REMARK    6  A    between atoms: C_20  and  C_23
REMARK    7  A    between atoms: C_28  and  O_29
REMARK                            x       y       z     vdW  Elec       q    Type
REMARK                         _______ _______ _______ _____ _____    ______ ____
ROOT
ATOM      1  C   UNL     1       5.003   0.698   2.010  0.00  0.00    +0.121 A 
ATOM      2  C   UNL     1       5.615   0.876   0.777  0.00  0.00    +0.047 A 
ATOM      3  C   UNL     1       5.353   2.016   0.044  0.00  0.00    +0.027 A 
ATOM      4  C   UNL     1       4.482   2.979   0.539  0.00  0.00    +0.032 A 
ATOM      5  C   UNL     1       3.869   2.808   1.770  0.00  0.00    -0.016 A 
ATOM      6  C   UNL     1       4.137   1.659   2.501  0.00  0.00    +0.051 A 
ATOM      7  C   UNL     1       2.927   3.819   2.342  0.00  0.00    +0.049 C 
ATOM      8  C   UNL     1       1.493   3.359   2.239  0.00  0.00    -0.023 C 
ATOM      9  C   UNL     1       0.704   4.383   1.992  0.00  0.00    -0.030 C 
ATOM     10  C   UNL     1       1.510   5.665   1.900  0.00  0.00    +0.033 C 
ATOM     11  C   UNL     1       2.949   5.163   1.583  0.00  0.00    +0.029 C 
ATOM     12  C   UNL     1       3.020   4.906   0.075  0.00  0.00    +0.109 C 
ATOM     13  N   UNL     1       4.228   4.129  -0.221  0.00  0.00    -0.336 N 
ATOM     14  H   UNL     1       4.837   4.405  -0.925  0.00  0.00    +0.147 HD
ENDROOT
BRANCH  12  15
ATOM     15  C   UNL     1       1.803   4.132  -0.363  0.00  0.00    +0.017 A 
ATOM     16  C   UNL     1       1.819   2.750  -0.345  0.00  0.00    +0.029 A 
ATOM     17  C   UNL     1       0.703   2.039  -0.747  0.00  0.00    +0.043 A 
ATOM     18  C   UNL     1      -0.431   2.709  -1.172  0.00  0.00    +0.043 A 
ATOM     19  C   UNL     1      -0.453   4.091  -1.186  0.00  0.00    +0.084 A 
ATOM     20  C   UNL     1       0.667   4.806  -0.783  0.00  0.00    +0.140 A 
ATOM     21 CL   UNL     1      -1.878   4.932  -1.713  0.00  0.00    -0.080 Cl
ATOM     22 CL   UNL     1       0.726   0.303  -0.723  0.00  0.00    -0.083 Cl
BRANCH  20  23
ATOM     23  O   UNL     1       0.649   6.165  -0.801  0.00  0.00    -0.505 OA
ATOM     24  H   UNL     1       0.947   6.552  -1.635  0.00  0.00    +0.292 HD
ENDBRANCH  20  23
ENDBRANCH  12  15
BRANCH   1  25
ATOM     25  O   UNL     1       5.257  -0.422   2.737  0.00  0.00    -0.489 OA
BRANCH  25  26
ATOM     26  C   UNL     1       6.066  -1.427   2.121  0.00  0.00    +0.170 C 
ATOM     27  C   UNL     1       7.544  -1.097   2.342  0.00  0.00    +0.052 C 
BRANCH  26  29
ATOM     28  C   UNL     1       4.305  -3.175   2.413  0.00  0.00    +0.007 C 
ATOM     29  C   UNL     1       5.748  -2.789   2.741  0.00  0.00    +0.041 C 
ENDBRANCH  26  29
ENDBRANCH  25  26
ENDBRANCH   1  25
TORSDOF 5
