REMARK  Name = ZINC39666015
REMARK  10 active torsions:
REMARK  status: ('A' for Active; 'I' for Inactive)
REMARK    1  A    between atoms: C_1  and  C_2
REMARK    2  A    between atoms: C_5  and  O_8
REMARK    3  A    between atoms: O_8  and  C_9
REMARK    4  A    between atoms: C_9  and  C_11
REMARK    5  A    between atoms: C_9  and  C_12
REMARK    6  A    between atoms: C_12  and  N_13
REMARK    7  A    between atoms: C_14  and  C_16
REMARK    8  A    between atoms: C_27  and  C_29
REMARK    9  A    between atoms: C_32  and  O_35
REMARK   10  A    between atoms: O_35  and  C_36
REMARK                            x       y       z     vdW  Elec       q    Type
REMARK                         _______ _______ _______ _____ _____    ______ ____
ROOT
ATOM      1  C   UNL     1      -3.943  -6.885  -0.115  0.00  0.00    +0.100 C 
ATOM      2  C   UNL     1      -3.892  -6.392  -1.579  0.00  0.00    +0.121 C 
ATOM      3  N   UNL     1      -3.927  -7.630  -2.392  0.00  0.00    -0.296 N 
ATOM      4  C   UNL     1      -4.889  -8.509  -1.685  0.00  0.00    +0.115 C 
ATOM      5  C   UNL     1      -4.602  -8.273  -0.188  0.00  0.00    -0.004 C 
ATOM      6  C   UNL     1      -5.903  -8.283   0.608  0.00  0.00    -0.010 C 
ATOM      7  C   UNL     1      -6.509  -9.688   0.568  0.00  0.00    -0.082 C 
ATOM      8  N   UNL     1      -5.557 -10.650   1.137  0.00  0.00    +0.379 N 
ATOM      9  C   UNL     1      -4.344 -10.702   0.311  0.00  0.00    -0.082 C 
ATOM     10  C   UNL     1      -3.647  -9.339   0.340  0.00  0.00    -0.010 C 
ATOM     11  C   UNL     1      -3.240  -7.897  -3.520  0.00  0.00    +0.247 C 
ATOM     12  O   UNL     1      -2.529  -7.044  -4.015  0.00  0.00    -0.270 OA
ATOM     13  H   UNL     1      -5.312 -10.366   2.074  0.00  0.00    -0.086 HD
ATOM     14  H   UNL     1      -5.981 -11.565   1.166  0.00  0.00    -0.086 HD
ENDROOT
BRANCH  11  15
ATOM     15  C   UNL     1      -3.351  -9.225  -4.155  0.00  0.00    +0.037 A 
ATOM     16  C   UNL     1      -4.559  -9.925  -4.110  0.00  0.00    +0.016 A 
ATOM     17  C   UNL     1      -4.658 -11.163  -4.704  0.00  0.00    +0.047 A 
ATOM     18  C   UNL     1      -3.558 -11.717  -5.347  0.00  0.00    +0.130 A 
ATOM     19  C   UNL     1      -2.354 -11.025  -5.394  0.00  0.00    +0.047 A 
ATOM     20  C   UNL     1      -2.248  -9.783  -4.808  0.00  0.00    +0.016 A 
BRANCH  18  21
ATOM     21  O   UNL     1      -3.660 -12.939  -5.930  0.00  0.00    -0.406 OA
BRANCH  21  22
ATOM     22  C   UNL     1      -2.491 -13.449  -6.574  0.00  0.00    +0.575 C 
ATOM     23  F   UNL     1      -1.456 -13.564  -5.639  0.00  0.00    -0.133 F 
ATOM     24  F   UNL     1      -2.770 -14.708  -7.117  0.00  0.00    -0.133 F 
ATOM     25  F   UNL     1      -2.102 -12.576  -7.596  0.00  0.00    -0.133 F 
ENDBRANCH  21  22
ENDBRANCH  18  21
ENDBRANCH  11  15
BRANCH   1  27
ATOM     26  N   UNL     1      -2.364  -6.992   1.786  0.00  0.00    -0.312 N 
ATOM     27  C   UNL     1      -2.551  -6.994   0.451  0.00  0.00    +0.218 C 
ATOM     28  O   UNL     1      -1.599  -7.083  -0.295  0.00  0.00    -0.275 OA
ATOM     29  H   UNL     1      -3.126  -6.920   2.382  0.00  0.00    +0.149 HD
BRANCH  26  30
ATOM     30  C   UNL     1      -1.010  -7.098   2.336  0.00  0.00    +0.148 C 
BRANCH  30  31
ATOM     31  C   UNL     1      -1.078  -7.072   3.864  0.00  0.00    +0.187 C 
ATOM     32  C   UNL     1       0.336  -7.183   4.439  0.00  0.00    +0.053 C 
BRANCH  31  33
ATOM     33  O   UNL     1      -1.672  -5.846   4.294  0.00  0.00    -0.488 OA
BRANCH  33  38
ATOM     34  C   UNL     1      -4.138  -5.838   9.358  0.00  0.00    +0.044 C 
ATOM     35  C   UNL     1      -3.479  -5.840   8.003  0.00  0.00    -0.050 A 
ATOM     36  C   UNL     1      -2.969  -7.016   7.486  0.00  0.00    +0.007 A 
ATOM     37  C   UNL     1      -2.363  -7.021   6.244  0.00  0.00    +0.046 A 
ATOM     38  C   UNL     1      -2.268  -5.844   5.516  0.00  0.00    +0.121 A 
ATOM     39  C   UNL     1      -2.781  -4.665   6.037  0.00  0.00    +0.046 A 
ATOM     40  C   UNL     1      -3.390  -4.667   7.277  0.00  0.00    +0.007 A 
ENDBRANCH  33  38
ENDBRANCH  31  33
ENDBRANCH  30  31
ENDBRANCH  26  30
ENDBRANCH   1  27
TORSDOF 8
