REMARK  Name = ZINC15957902
REMARK  6 active torsions:
REMARK  status: ('A' for Active; 'I' for Inactive)
REMARK    1  A    between atoms: C_1  and  C_2
REMARK    2  A    between atoms: C_4  and  C_35
REMARK    3  A    between atoms: C_6  and  N_8
REMARK    4  A    between atoms: C_13  and  C_30
REMARK    5  A    between atoms: C_30  and  C_31
REMARK    6  A    between atoms: C_31  and  C_32
REMARK                            x       y       z     vdW  Elec       q    Type
REMARK                         _______ _______ _______ _____ _____    ______ ____
ROOT
ATOM      1  N   UNL     1       0.050  -2.798   2.395  0.00  0.00    -0.210 N 
ATOM      2  C   UNL     1      -0.025  -4.133   2.452  0.00  0.00    +0.232 C 
ATOM      3  O   UNL     1      -0.117  -4.870   1.494  0.00  0.00    -0.274 OA
ATOM      4  C   UNL     1       0.022  -4.578   3.896  0.00  0.00    +0.107 C 
ATOM      5  C   UNL     1      -1.342  -5.183   4.288  0.00  0.00    +0.068 C 
ATOM      6  N   UNL     1      -2.164  -4.023   4.723  0.00  0.00    -0.295 NA
ATOM      7  C   UNL     1      -1.216  -3.163   5.455  0.00  0.00    +0.136 C 
ATOM      8  C   UNL     1       0.123  -3.240   4.681  0.00  0.00    +0.123 C 
ATOM      9  C   UNL     1       0.146  -2.196   3.586  0.00  0.00    +0.233 C 
ATOM     10  O   UNL     1       0.234  -1.000   3.761  0.00  0.00    -0.274 OA
ATOM     11  C   UNL     1      -1.050  -3.611   6.879  0.00  0.00    +0.003 A 
ATOM     12  C   UNL     1      -0.632  -4.787   7.460  0.00  0.00    +0.008 A 
ATOM     13  C   UNL     1      -0.584  -4.900   8.838  0.00  0.00    +0.000 A 
ATOM     14  C   UNL     1      -0.958  -3.829   9.630  0.00  0.00    +0.002 A 
ATOM     15  C   UNL     1      -1.378  -2.649   9.052  0.00  0.00    +0.023 A 
ATOM     16  C   UNL     1      -1.429  -2.527   7.666  0.00  0.00    +0.039 A 
ATOM     17  N   UNL     1      -1.812  -1.454   6.857  0.00  0.00    -0.283 N 
ATOM     18  C   UNL     1      -1.717  -1.747   5.546  0.00  0.00    +0.243 C 
ATOM     19  O   UNL     1      -1.983  -1.012   4.619  0.00  0.00    -0.273 OA
ATOM     20  H   UNL     1      -2.554  -3.538   3.929  0.00  0.00    +0.123 HD
ATOM     21  H   UNL     1      -2.112  -0.598   7.201  0.00  0.00    +0.155 HD
ENDROOT
BRANCH   1  27
ATOM     22  C   UNL     1       2.382   0.035  -0.880  0.00  0.00    +0.044 C 
ATOM     23  C   UNL     1       1.152  -0.707  -0.424  0.00  0.00    -0.048 A 
ATOM     24  C   UNL     1       0.007  -0.687  -1.199  0.00  0.00    +0.006 A 
ATOM     25  C   UNL     1      -1.124  -1.366  -0.784  0.00  0.00    -0.048 A 
ATOM     26  C   UNL     1      -1.113  -2.066   0.406  0.00  0.00    +0.027 A 
ATOM     27  C   UNL     1       0.035  -2.088   1.186  0.00  0.00    +0.044 A 
ATOM     28  C   UNL     1       1.171  -1.411   0.764  0.00  0.00    +0.027 A 
ATOM     29  C   UNL     1      -2.370  -1.341  -1.631  0.00  0.00    +0.044 C 
ENDBRANCH   1  27
BRANCH   5  30
ATOM     30  C   UNL     1      -1.986  -5.872   3.083  0.00  0.00    +0.031 C 
BRANCH  30  31
ATOM     31  C   UNL     1      -3.274  -6.571   3.523  0.00  0.00    +0.126 C 
BRANCH  31  32
ATOM     32  C   UNL     1      -3.908  -7.250   2.336  0.00  0.00    +0.356 C 
ATOM     33  O   UNL     1      -3.378  -7.181   1.240  0.00  0.00    -0.246 OA
ATOM     34  O   UNL     1      -4.950  -7.867   2.472  0.00  0.00    -0.246 OA
ENDBRANCH  31  32
ENDBRANCH  30  31
ENDBRANCH   5  30
TORSDOF 4
