REMARK  Name = ZINC20638688
REMARK  6 active torsions:
REMARK  status: ('A' for Active; 'I' for Inactive)
REMARK    1  A    between atoms: C_11  and  C_13
REMARK    2  A    between atoms: C_16  and  N_22
REMARK    3  A    between atoms: C_17  and  N_19
REMARK    4  A    between atoms: N_25  and  C_28
REMARK    5  A    between atoms: C_28  and  C_29
REMARK    6  A    between atoms: C_29  and  O_30
REMARK                            x       y       z     vdW  Elec       q    Type
REMARK                         _______ _______ _______ _____ _____    ______ ____
ROOT
ATOM      1  C   UNL     1      -3.881  -1.490  -0.216  0.00  0.00    +0.040 A 
ATOM      2  C   UNL     1      -3.719  -0.160   0.182  0.00  0.00    +0.015 A 
ATOM      3  C   UNL     1      -2.462   0.399   0.216  0.00  0.00    +0.026 A 
ATOM      4  C   UNL     1      -1.352  -0.360  -0.146  0.00  0.00    +0.060 A 
ATOM      5  C   UNL     1      -1.510  -1.683  -0.547  0.00  0.00    +0.148 A 
ATOM      6  C   UNL     1      -2.764  -2.249  -0.578  0.00  0.00    +0.047 A 
ENDROOT
BRANCH   1  17
ATOM      7  C   UNL     1      -9.841  -3.692   0.713  0.00  0.00    +0.000 A 
ATOM      8  C   UNL     1      -9.068  -3.662  -0.434  0.00  0.00    +0.002 A 
ATOM      9  C   UNL     1      -7.825  -3.063  -0.411  0.00  0.00    +0.024 A 
ATOM     10  C   UNL     1      -7.350  -2.491   0.764  0.00  0.00    +0.040 A 
ATOM     11  C   UNL     1      -8.126  -2.519   1.912  0.00  0.00    -0.026 A 
ATOM     12  C   UNL     1      -9.372  -3.123   1.881  0.00  0.00    +0.005 A 
ATOM     13  C   UNL     1      -7.647  -1.905   3.201  0.00  0.00    +0.038 C 
ATOM     14  C   UNL     1      -6.125  -1.758   3.191  0.00  0.00    +0.024 C 
ATOM     15  C   UNL     1      -5.704  -1.042   1.905  0.00  0.00    +0.114 C 
ATOM     16  N   UNL     1      -6.084  -1.891   0.768  0.00  0.00    -0.267 N 
ATOM     17  C   UNL     1      -5.227  -2.092  -0.253  0.00  0.00    +0.251 C 
ATOM     18  O   UNL     1      -5.564  -2.771  -1.204  0.00  0.00    -0.270 OA
ENDBRANCH   1  17
BRANCH   4  19
ATOM     19  N   UNL     1      -0.083   0.207  -0.111  0.00  0.00    -0.326 N 
ATOM     20  C   UNL     1       0.000   1.367  -1.010  0.00  0.00    +0.120 C 
ATOM     21  C   UNL     1       1.430   1.913  -1.004  0.00  0.00    +0.103 C 
ATOM     22  N   UNL     1       1.803   2.286   0.368  0.00  0.00    -0.297 NA
ATOM     23  C   UNL     1       1.720   1.126   1.267  0.00  0.00    +0.103 C 
ATOM     24  C   UNL     1       0.290   0.581   1.260  0.00  0.00    +0.120 C 
BRANCH  22  25
ATOM     25  C   UNL     1       3.143   2.885   0.404  0.00  0.00    +0.112 C 
BRANCH  25  26
ATOM     26  C   UNL     1       3.125   4.222  -0.341  0.00  0.00    +0.171 C 
BRANCH  26  27
ATOM     27  O   UNL     1       2.280   5.142   0.353  0.00  0.00    -0.394 OA
ATOM     28  H   UNL     1       2.142   6.162  -0.036  0.00  0.00    +0.209 HD
ENDBRANCH  26  27
ENDBRANCH  25  26
ENDBRANCH  22  25
ENDBRANCH   4  19
BRANCH   5  29
ATOM     29  N   UNL     1      -0.328  -2.484  -0.937  0.00  0.00    +0.058 N 
ATOM     30  O   UNL     1      -0.466  -3.642  -1.288  0.00  0.00    -0.126 OA
ATOM     31  O   UNL     1       0.783  -1.985  -0.906  0.00  0.00    -0.126 OA
ENDBRANCH   5  29
TORSDOF 6
