REMARK  Name = ZINC38671530
REMARK  9 active torsions:
REMARK  status: ('A' for Active; 'I' for Inactive)
REMARK    1  A    between atoms: C_1  and  N_2
REMARK    2  A    between atoms: C_9  and  C_11
REMARK    3  A    between atoms: C_11  and  C_13
REMARK    4  A    between atoms: C_11  and  N_31
REMARK    5  A    between atoms: C_13  and  N_14
REMARK    6  A    between atoms: C_15  and  C_17
REMARK    7  A    between atoms: C_17  and  C_18
REMARK    8  A    between atoms: C_18  and  C_19
REMARK    9  A    between atoms: C_18  and  C_25
REMARK                            x       y       z     vdW  Elec       q    Type
REMARK                         _______ _______ _______ _____ _____    ______ ____
ROOT
ATOM      1  C   UNL     1      -1.942  -2.969   4.529  0.00  0.00    +0.093 C 
ENDROOT
BRANCH   1   2
ATOM      2  N   UNL     1      -2.798  -3.426   3.432  0.00  0.00    -0.317 N 
ATOM      3  C   UNL     1      -3.900  -4.157   3.696  0.00  0.00    +0.214 C 
ATOM      4  O   UNL     1      -4.182  -4.436   4.842  0.00  0.00    -0.276 OA
ATOM      5  H   UNL     1      -2.573  -3.203   2.515  0.00  0.00    +0.149 HD
BRANCH   3   6
ATOM      6  C   UNL     1      -4.781  -4.627   2.567  0.00  0.00    +0.108 C 
BRANCH   6   7
ATOM      7  C   UNL     1      -5.953  -5.429   3.135  0.00  0.00    +0.058 C 
BRANCH   7   8
ATOM      8  C   UNL     1      -6.899  -5.794   2.021  0.00  0.00    -0.040 A 
ATOM      9  C   UNL     1      -8.243  -5.491   2.127  0.00  0.00    +0.004 A 
ATOM     10  C   UNL     1      -9.111  -5.826   1.105  0.00  0.00    +0.000 A 
ATOM     11  C   UNL     1      -8.634  -6.464  -0.025  0.00  0.00    +0.000 A 
ATOM     12  C   UNL     1      -7.289  -6.767  -0.132  0.00  0.00    +0.000 A 
ATOM     13  C   UNL     1      -6.421  -6.428   0.888  0.00  0.00    +0.004 A 
ENDBRANCH   7   8
BRANCH   7  14
ATOM     14  C   UNL     1      -5.434  -6.685   3.785  0.00  0.00    -0.040 A 
ATOM     15  C   UNL     1      -4.584  -7.524   3.088  0.00  0.00    +0.004 A 
ATOM     16  C   UNL     1      -4.107  -8.676   3.685  0.00  0.00    +0.000 A 
ATOM     17  C   UNL     1      -4.480  -8.990   4.978  0.00  0.00    +0.000 A 
ATOM     18  C   UNL     1      -5.330  -8.151   5.676  0.00  0.00    +0.000 A 
ATOM     19  C   UNL     1      -5.803  -6.997   5.081  0.00  0.00    +0.004 A 
ENDBRANCH   7  14
ENDBRANCH   6   7
ENDBRANCH   3   6
ENDBRANCH   1   2
BRANCH   1  20
ATOM     20  C   UNL     1      -0.845  -2.058   3.975  0.00  0.00    -0.020 C 
BRANCH  20  29
ATOM     21  C   UNL     1      -3.679   3.776   2.174  0.00  0.00    +0.129 C 
ATOM     22  N   UNL     1      -3.170   2.531   1.594  0.00  0.00    -0.332 N 
ATOM     23  C   UNL     1      -3.161   2.214   0.163  0.00  0.00    +0.109 C 
ATOM     24  C   UNL     1      -2.536   0.812   0.066  0.00  0.00    +0.056 C 
ATOM     25  C   UNL     1      -2.229   0.433   1.497  0.00  0.00    -0.025 A 
ATOM     26  C   UNL     1      -2.618   1.476   2.323  0.00  0.00    +0.033 A 
ATOM     27  C   UNL     1      -2.427   1.357   3.701  0.00  0.00    +0.023 A 
ATOM     28  C   UNL     1      -1.856   0.218   4.228  0.00  0.00    +0.004 A 
ATOM     29  C   UNL     1      -1.469  -0.815   3.395  0.00  0.00    -0.059 A 
ATOM     30  C   UNL     1      -1.663  -0.709   2.030  0.00  0.00    +0.007 A 
ENDBRANCH  20  29
BRANCH  20  31
ATOM     31  N   UNL     1       0.076  -1.686   5.057  0.00  0.00    +0.385 N 
ATOM     32  C   UNL     1       1.116  -0.795   4.528  0.00  0.00    -0.078 C 
ATOM     33  C   UNL     1       2.030  -0.339   5.667  0.00  0.00    -0.019 C 
ATOM     34  C   UNL     1       2.684  -1.564   6.311  0.00  0.00    -0.004 C 
ATOM     35  C   UNL     1       1.590  -2.521   6.793  0.00  0.00    -0.019 C 
ATOM     36  C   UNL     1       0.692  -2.897   5.612  0.00  0.00    -0.078 C 
ATOM     37  H   UNL     1      -0.436  -1.207   5.783  0.00  0.00    -0.081 HD
ENDBRANCH  20  31
ENDBRANCH   1  20
TORSDOF 8
