REMARK  Name = ZINC66400369
REMARK  7 active torsions:
REMARK  status: ('A' for Active; 'I' for Inactive)
REMARK    1  A    between atoms: C_1  and  C_2
REMARK    2  A    between atoms: C_7  and  C_8
REMARK    3  A    between atoms: C_8  and  C_10
REMARK    4  A    between atoms: C_8  and  N_12
REMARK    5  A    between atoms: C_13  and  C_15
REMARK    6  A    between atoms: C_21  and  C_25
REMARK    7  A    between atoms: C_23  and  C_24
REMARK                            x       y       z     vdW  Elec       q    Type
REMARK                         _______ _______ _______ _____ _____    ______ ____
ROOT
ATOM      1  N   UNL     1       0.630  -0.793   3.543  0.00  0.00    -0.292 N 
ATOM      2  C   UNL     1       1.199  -0.221   4.623  0.00  0.00    +0.250 C 
ATOM      3  O   UNL     1       1.211   0.991   4.735  0.00  0.00    -0.270 OA
ATOM      4  H   UNL     1       0.621  -1.758   3.453  0.00  0.00    +0.151 HD
ENDROOT
BRANCH   2   5
ATOM      5  C   UNL     1       1.805  -1.059   5.662  0.00  0.00    +0.100 A 
ATOM      6  C   UNL     1       1.874  -2.464   5.670  0.00  0.00    +0.150 A 
ATOM      7  N   UNL     1       2.486  -2.848   6.759  0.00  0.00    -0.172 NA
ATOM      8  N   UNL     1       2.845  -1.726   7.514  0.00  0.00    -0.218 N 
ATOM      9  C   UNL     1       2.433  -0.611   6.840  0.00  0.00    +0.168 A 
ATOM     10  N   UNL     1       2.654   0.607   7.335  0.00  0.00    -0.232 NA
ATOM     11  C   UNL     1       3.276   0.766   8.483  0.00  0.00    +0.042 A 
ATOM     12  C   UNL     1       3.718  -0.350   9.202  0.00  0.00    +0.046 A 
ATOM     13  C   UNL     1       3.490  -1.594   8.707  0.00  0.00    +0.044 A 
ATOM     14  C   UNL     1       3.957  -2.812   9.461  0.00  0.00    +0.066 C 
ATOM     15  C   UNL     1       3.515   2.152   9.023  0.00  0.00    +0.066 C 
ENDBRANCH   2   5
BRANCH   1  16
ATOM     16  C   UNL     1       0.025   0.045   2.504  0.00  0.00    +0.207 C 
BRANCH  16  23
ATOM     17  C   UNL     1      -0.018   1.503   0.010  0.00  0.00    +0.044 C 
ATOM     18  C   UNL     1       0.002  -0.004   0.002  0.00  0.00    -0.045 A 
ATOM     19  C   UNL     1       0.006  -0.689  -1.199  0.00  0.00    +0.004 A 
ATOM     20  C   UNL     1       0.025  -2.071  -1.207  0.00  0.00    +0.000 A 
ATOM     21  C   UNL     1       0.040  -2.768  -0.013  0.00  0.00    +0.000 A 
ATOM     22  C   UNL     1       0.037  -2.084   1.188  0.00  0.00    +0.007 A 
ATOM     23  C   UNL     1       0.023  -0.702   1.195  0.00  0.00    -0.010 A 
ENDBRANCH  16  23
BRANCH  16  24
ATOM     24  C   UNL     1      -1.358   0.374   2.884  0.00  0.00    +0.090 C 
ATOM     25  N   UNL     1      -2.426   0.628   3.177  0.00  0.00    -0.194 NA
ENDBRANCH  16  24
ENDBRANCH   1  16
TORSDOF 4
