REMARK  Name = ZINC16028250
REMARK  8 active torsions:
REMARK  status: ('A' for Active; 'I' for Inactive)
REMARK    1  A    between atoms: C_1  and  O_2
REMARK    2  A    between atoms: O_2  and  C_3
REMARK    3  A    between atoms: C_6  and  C_25
REMARK    4  A    between atoms: C_8  and  C_9
REMARK    5  A    between atoms: C_9  and  N_64
REMARK    6  A    between atoms: N_26  and  N_27
REMARK    7  A    between atoms: C_28  and  C_30
REMARK    8  A    between atoms: C_33  and  N_36
REMARK                            x       y       z     vdW  Elec       q    Type
REMARK                         _______ _______ _______ _____ _____    ______ ____
ROOT
ATOM      1  C   UNL     1      -4.271  -0.885   1.458  0.00  0.00    +0.121 A 
ATOM      2  C   UNL     1      -4.372  -2.260   1.625  0.00  0.00    +0.046 A 
ATOM      3  C   UNL     1      -4.605  -3.073   0.536  0.00  0.00    +0.013 A 
ATOM      4  C   UNL     1      -4.739  -2.511  -0.736  0.00  0.00    -0.005 A 
ATOM      5  C   UNL     1      -4.641  -1.127  -0.898  0.00  0.00    +0.014 A 
ATOM      6  C   UNL     1      -4.403  -0.322   0.195  0.00  0.00    -0.022 A 
ENDROOT
BRANCH   1   8
ATOM      7  C   UNL     1      -3.916  -0.731   3.804  0.00  0.00    +0.277 C 
ATOM      8  O   UNL     1      -4.042  -0.087   2.534  0.00  0.00    -0.495 OA
ENDBRANCH   1   8
BRANCH   4   9
ATOM      9  C   UNL     1      -4.988  -3.376  -1.904  0.00  0.00    +0.138 C 
ATOM     10  N   UNL     1      -5.083  -4.662  -1.750  0.00  0.00    -0.187 NA
BRANCH  10  11
ATOM     11  N   UNL     1      -5.320  -5.484  -2.860  0.00  0.00    -0.203 N 
ATOM     12  C   UNL     1      -5.418  -6.819  -2.700  0.00  0.00    +0.263 C 
ATOM     13  O   UNL     1      -5.302  -7.309  -1.594  0.00  0.00    -0.268 OA
ATOM     14  H   UNL     1      -5.412  -5.093  -3.742  0.00  0.00    +0.178 HD
BRANCH  12  15
ATOM     15  C   UNL     1      -5.668  -7.686  -3.871  0.00  0.00    +0.038 A 
ATOM     16  C   UNL     1      -5.808  -7.125  -5.142  0.00  0.00    +0.015 A 
ATOM     17  C   UNL     1      -6.035  -7.941  -6.231  0.00  0.00    +0.033 A 
ATOM     18  C   UNL     1      -6.137  -9.311  -6.064  0.00  0.00    +0.126 A 
ATOM     19  C   UNL     1      -6.004  -9.873  -4.806  0.00  0.00    +0.033 A 
ATOM     20  C   UNL     1      -5.771  -9.069  -3.709  0.00  0.00    +0.015 A 
BRANCH  18  21
ATOM     21  N   UNL     1      -6.387 -10.180  -7.236  0.00  0.00    +0.056 N 
ATOM     22  O   UNL     1      -6.476 -11.386  -7.092  0.00  0.00    -0.126 OA
ATOM     23  O   UNL     1      -6.504  -9.688  -8.344  0.00  0.00    -0.126 OA
ENDBRANCH  18  21
ENDBRANCH  12  15
ENDBRANCH  10  11
ENDBRANCH   4   9
BRANCH   6  24
ATOM     24  C   UNL     1      -4.292   1.171   0.021  0.00  0.00    -0.039 C 
BRANCH  24  38
ATOM     25  C   UNL     1      -2.203   1.140   1.240  0.00  0.00    -0.073 C 
ATOM     26  C   UNL     1      -0.748   1.589   1.253  0.00  0.00    -0.007 C 
ATOM     27  C   UNL     1      -0.013   1.086   0.008  0.00  0.00    +0.011 C 
ATOM     28  C   UNL     1      -0.773   1.603  -1.219  0.00  0.00    +0.020 C 
ATOM     29  C   UNL     1      -2.194   1.016  -1.180  0.00  0.00    -0.069 C 
ATOM     30  C   UNL     1      -0.901   3.107  -1.127  0.00  0.00    +0.023 A 
ATOM     31  C   UNL     1      -1.021   3.795  -2.293  0.00  0.00    +0.022 A 
ATOM     32  C   UNL     1      -1.206   5.182  -2.285  0.00  0.00    +0.007 A 
ATOM     33  C   UNL     1      -1.283   5.829  -1.086  0.00  0.00    +0.070 A 
ATOM     34  C   UNL     1      -1.152   5.090   0.099  0.00  0.00    +0.251 A 
ATOM     35  O   UNL     1      -1.265   5.651   1.177  0.00  0.00    -0.268 OA
ATOM     36  N   UNL     1      -0.901   3.757   0.061  0.00  0.00    -0.312 N 
ATOM     37  C   UNL     1      -0.621   3.100   1.338  0.00  0.00    +0.126 C 
ATOM     38  N   UNL     1      -2.875   1.587   0.004  0.00  0.00    +0.383 N 
ATOM     39  H   UNL     1      -2.829   2.612  -0.048  0.00  0.00    -0.081 HD
ENDBRANCH  24  38
ENDBRANCH   6  24
TORSDOF 7
