REMARK  Name = ZINC02054010
REMARK  9 active torsions:
REMARK  status: ('A' for Active; 'I' for Inactive)
REMARK    1  A    between atoms: C_1  and  C_2
REMARK    2  A    between atoms: C_4  and  C_15
REMARK    3  A    between atoms: C_5  and  C_14
REMARK    4  A    between atoms: N_6  and  C_7
REMARK    5  A    between atoms: N_16  and  N_17
REMARK    6  A    between atoms: C_18  and  C_20
REMARK    7  A    between atoms: N_22  and  C_23
REMARK    8  A    between atoms: C_23  and  C_24
REMARK    9  A    between atoms: C_23  and  C_25
REMARK                            x       y       z     vdW  Elec       q    Type
REMARK                         _______ _______ _______ _____ _____    ______ ____
ROOT
ATOM      1  C   UNL     1       1.737   3.295   0.003  0.00  0.00    +0.064 C 
ATOM      2  C   UNL     1       1.266   1.864   0.000  0.00  0.00    +0.022 A 
ATOM      3  C   UNL     1      -0.018   1.462   0.010  0.00  0.00    +0.032 A 
ATOM      4  C   UNL     1       0.002  -0.004   0.002  0.00  0.00    +0.016 A 
ATOM      5  C   UNL     1       1.319  -0.369  -0.013  0.00  0.00    +0.030 A 
ATOM      6  N   UNL     1       2.074   0.762  -0.014  0.00  0.00    -0.316 N 
ATOM      7  C   UNL     1       1.845  -1.781  -0.026  0.00  0.00    +0.064 C 
ENDROOT
BRANCH   6   8
ATOM      8  C   UNL     1       3.475   0.793  -0.028  0.00  0.00    +0.065 A 
ATOM      9  C   UNL     1       4.159   0.816  -1.236  0.00  0.00    +0.027 A 
ATOM     10  C   UNL     1       5.539   0.846  -1.247  0.00  0.00    +0.002 A 
ATOM     11  C   UNL     1       6.242   0.855  -0.056  0.00  0.00    +0.002 A 
ATOM     12  C   UNL     1       5.566   0.832   1.149  0.00  0.00    +0.022 A 
ATOM     13  C   UNL     1       4.184   0.807   1.167  0.00  0.00    +0.065 A 
ATOM     14 CL   UNL     1       3.334   0.787   2.681  0.00  0.00    -0.081 Cl
ENDBRANCH   6   8
BRANCH   4  15
ATOM     15  C   UNL     1      -1.164  -0.904   0.009  0.00  0.00    +0.140 C 
ATOM     16  N   UNL     1      -0.991  -2.192   0.001  0.00  0.00    -0.187 NA
BRANCH  16  17
ATOM     17  N   UNL     1      -2.100  -3.048   0.007  0.00  0.00    -0.199 N 
ATOM     18  C   UNL     1      -1.921  -4.383  -0.001  0.00  0.00    +0.318 C 
ATOM     19  O   UNL     1      -0.797  -4.845  -0.015  0.00  0.00    -0.263 OA
ATOM     20  H   UNL     1      -2.997  -2.679   0.018  0.00  0.00    +0.178 HD
BRANCH  18  21
ATOM     21  C   UNL     1      -3.102  -5.295   0.005  0.00  0.00    +0.301 C 
ATOM     22  O   UNL     1      -4.224  -4.833   0.018  0.00  0.00    -0.265 OA
ATOM     23  N   UNL     1      -2.922  -6.630  -0.003  0.00  0.00    -0.305 N 
ATOM     24  H   UNL     1      -2.025  -6.999  -0.014  0.00  0.00    +0.149 HD
BRANCH  23  25
ATOM     25  C   UNL     1      -4.082  -7.525   0.004  0.00  0.00    +0.067 C 
ATOM     26  C   UNL     1      -3.693  -8.869  -0.617  0.00  0.00    +0.027 C 
ATOM     27  C   UNL     1      -4.549  -7.744   1.444  0.00  0.00    +0.027 C 
ENDBRANCH  23  25
ENDBRANCH  18  21
ENDBRANCH  16  17
ENDBRANCH   4  15
TORSDOF 5
