REMARK  Name = ZINC00777988
REMARK  8 active torsions:
REMARK  status: ('A' for Active; 'I' for Inactive)
REMARK    1  A    between atoms: C_1  and  C_2
REMARK    2  A    between atoms: C_7  and  O_10
REMARK    3  A    between atoms: O_10  and  C_11
REMARK    4  A    between atoms: C_11  and  C_13
REMARK    5  A    between atoms: C_14  and  C_30
REMARK    6  A    between atoms: C_19  and  C_21
REMARK    7  A    between atoms: C_24  and  O_28
REMARK    8  A    between atoms: O_28  and  C_29
REMARK                            x       y       z     vdW  Elec       q    Type
REMARK                         _______ _______ _______ _____ _____    ______ ____
ROOT
ATOM      1  C   UNL     1       1.419   2.046  -0.017  0.00  0.00    +0.078 C 
ATOM      2  C   UNL     1       1.815   2.791   1.037  0.00  0.00    +0.021 C 
ATOM      3  N   UNL     1       0.955   3.085   2.056  0.00  0.00    -0.273 N 
ATOM      4  C   UNL     1      -0.318   2.673   2.095  0.00  0.00    +0.304 C 
ATOM      5  O   UNL     1      -1.008   2.986   3.045  0.00  0.00    -0.252 OA
ATOM      6  N   UNL     1      -0.859   1.922   1.115  0.00  0.00    -0.288 N 
ATOM      7  C   UNL     1      -0.013   1.549  -0.030  0.00  0.00    +0.144 C 
ATOM      8  C   UNL     1       3.231   3.305   1.090  0.00  0.00    +0.061 C 
ATOM      9  H   UNL     1       1.285   3.624   2.792  0.00  0.00    +0.156 HD
ATOM     10  H   UNL     1      -1.784   1.634   1.164  0.00  0.00    +0.151 HD
ENDROOT
BRANCH   7  11
ATOM     11  C   UNL     1       0.018   0.045  -0.115  0.00  0.00    -0.021 A 
ATOM     12  C   UNL     1      -0.187  -0.583  -1.330  0.00  0.00    +0.009 A 
ATOM     13  C   UNL     1      -0.159  -1.962  -1.410  0.00  0.00    +0.047 A 
ATOM     14  C   UNL     1       0.076  -2.717  -0.271  0.00  0.00    +0.134 A 
ATOM     15  C   UNL     1       0.282  -2.085   0.948  0.00  0.00    +0.060 A 
ATOM     16  C   UNL     1       0.258  -0.705   1.022  0.00  0.00    +0.024 A 
ATOM     17 BR   UNL     1       0.603  -3.111   2.504  0.00  0.00    -0.047 Br
BRANCH  14  18
ATOM     18  O   UNL     1       0.105  -4.074  -0.347  0.00  0.00    -0.494 OA
ATOM     19  C   UNL     1      -0.115  -4.656  -1.634  0.00  0.00    +0.277 C 
ENDBRANCH  14  18
ENDBRANCH   7  11
BRANCH   1  20
ATOM     20  C   UNL     1       2.309   1.739  -1.073  0.00  0.00    +0.339 C 
ATOM     21  O   UNL     1       3.424   2.228  -1.090  0.00  0.00    -0.245 OA
BRANCH  20  22
ATOM     22  O   UNL     1       1.923   0.906  -2.061  0.00  0.00    -0.458 OA
BRANCH  22  28
ATOM     23  C   UNL     1       2.415  -0.205  -6.823  0.00  0.00    +0.007 C 
ATOM     24  C   UNL     1       3.152   0.076  -5.513  0.00  0.00    -0.011 C 
ATOM     25  C   UNL     1       3.995  -1.143  -5.130  0.00  0.00    +0.003 C 
ATOM     26  C   UNL     1       4.733  -0.862  -3.820  0.00  0.00    +0.004 C 
ATOM     27  C   UNL     1       3.715  -0.578  -2.713  0.00  0.00    +0.045 C 
ATOM     28  C   UNL     1       2.873   0.641  -3.095  0.00  0.00    +0.177 C 
ATOM     29  C   UNL     1       2.135   0.360  -4.406  0.00  0.00    +0.048 C 
ENDBRANCH  22  28
ENDBRANCH  20  22
ENDBRANCH   1  20
TORSDOF 5
