REMARK  Name = ZINC63770591
REMARK  6 active torsions:
REMARK  status: ('A' for Active; 'I' for Inactive)
REMARK    1  A    between atoms: C_1  and  C_2
REMARK    2  A    between atoms: C_8  and  C_10
REMARK    3  A    between atoms: C_10  and  S_11
REMARK    4  A    between atoms: S_11  and  C_12
REMARK    5  A    between atoms: C_18  and  O_22
REMARK    6  A    between atoms: O_22  and  C_23
REMARK                            x       y       z     vdW  Elec       q    Type
REMARK                         _______ _______ _______ _____ _____    ______ ____
ROOT
ATOM      1  C   UNL     1       0.109  -9.119  -0.045  0.00  0.00    +0.236 C 
ATOM      2  N   UNL     1       0.995  -9.253   1.117  0.00  0.00    -0.355 N 
ATOM      3  C   UNL     1       2.203  -9.442   0.670  0.00  0.00    +0.061 A 
ATOM      4  C   UNL     1       3.491  -9.639   1.353  0.00  0.00    +0.031 A 
ATOM      5  C   UNL     1       4.612  -9.814   0.628  0.00  0.00    +0.048 A 
ATOM      6  C   UNL     1       4.595  -9.814  -0.829  0.00  0.00    +0.122 A 
ATOM      7  C   UNL     1       3.448  -9.639  -1.530  0.00  0.00    +0.073 A 
ATOM      8  C   UNL     1       2.184  -9.442  -0.817  0.00  0.00    +0.064 A 
ATOM      9  N   UNL     1       0.960  -9.254  -1.234  0.00  0.00    -0.355 N 
ATOM     10  H   UNL     1       0.729  -9.209   2.049  0.00  0.00    +0.162 HD
ATOM     11  H   UNL     1       0.667  -9.212  -2.158  0.00  0.00    +0.162 HD
ENDROOT
BRANCH   6  12
ATOM     12  O   UNL     1       5.758  -9.995  -1.502  0.00  0.00    -0.495 OA
ATOM     13  C   UNL     1       6.940 -10.175  -0.718  0.00  0.00    +0.277 C 
ENDBRANCH   6  12
BRANCH   1  14
ATOM     14  S   UNL     1      -0.690  -7.491  -0.034  0.00  0.00    -0.106 S 
BRANCH  14  15
ATOM     15  C   UNL     1       0.697  -6.321  -0.034  0.00  0.00    +0.169 C 
BRANCH  15  23
ATOM     16  C   UNL     1      -0.018   1.503   0.010  0.00  0.00    +0.053 C 
ATOM     17  C   UNL     1       0.002  -0.004   0.002  0.00  0.00    +0.008 A 
ATOM     18  C   UNL     1      -1.030  -0.883   0.002  0.00  0.00    +0.124 A 
ATOM     19  N   UNL     1      -0.725  -2.167  -0.007  0.00  0.00    -0.233 NA
ATOM     20  C   UNL     1       0.528  -2.568  -0.014  0.00  0.00    +0.165 A 
ATOM     21  S   UNL     1       1.392  -1.124  -0.018  0.00  0.00    -0.057 S 
ATOM     22  N   UNL     1       1.019  -3.869  -0.023  0.00  0.00    -0.264 N 
ATOM     23  C   UNL     1       0.165  -4.911  -0.024  0.00  0.00    +0.229 C 
ATOM     24  O   UNL     1      -1.032  -4.715  -0.019  0.00  0.00    -0.275 OA
ATOM     25  H   UNL     1       1.976  -4.026  -0.027  0.00  0.00    +0.157 HD
ENDBRANCH  15  23
ENDBRANCH  14  15
ENDBRANCH   1  14
TORSDOF 4
