REMARK  Name = ZINC09644530
REMARK  9 active torsions:
REMARK  status: ('A' for Active; 'I' for Inactive)
REMARK    1  A    between atoms: C_1  and  C_2
REMARK    2  A    between atoms: C_5  and  C_31
REMARK    3  A    between atoms: C_6  and  N_8
REMARK    4  A    between atoms: C_9  and  C_11
REMARK    5  A    between atoms: C_11  and  C_13
REMARK    6  A    between atoms: C_11  and  S_19
REMARK    7  A    between atoms: S_19  and  C_20
REMARK    8  A    between atoms: C_23  and  C_26
REMARK    9  A    between atoms: N_24  and  N_25
REMARK                            x       y       z     vdW  Elec       q    Type
REMARK                         _______ _______ _______ _____ _____    ______ ____
ROOT
ATOM      1  C   UNL     1      -2.745   1.064   0.036  0.00  0.00    +0.170 C 
ENDROOT
BRANCH   1   2
ATOM      2  C   UNL     1      -2.686   0.282   1.324  0.00  0.00    -0.025 A 
ATOM      3  C   UNL     1      -2.847   0.931   2.534  0.00  0.00    +0.005 A 
ATOM      4  C   UNL     1      -2.798   0.214   3.715  0.00  0.00    +0.000 A 
ATOM      5  C   UNL     1      -2.579  -1.151   3.686  0.00  0.00    +0.000 A 
ATOM      6  C   UNL     1      -2.413  -1.798   2.476  0.00  0.00    +0.000 A 
ATOM      7  C   UNL     1      -2.467  -1.082   1.295  0.00  0.00    +0.005 A 
ENDBRANCH   1   2
BRANCH   1   9
ATOM      8  N   UNL     1      -5.157   1.016  -0.510  0.00  0.00    -0.284 N 
ATOM      9  C   UNL     1      -4.092   1.727  -0.088  0.00  0.00    +0.235 C 
ATOM     10  O   UNL     1      -4.218   2.900   0.192  0.00  0.00    -0.274 OA
ATOM     11  H   UNL     1      -5.041   0.101  -0.810  0.00  0.00    +0.155 HD
BRANCH   8  17
ATOM     12  C   UNL     1      -8.286   4.365   1.269  0.00  0.00    +0.044 C 
ATOM     13  C   UNL     1      -7.973   3.223   0.336  0.00  0.00    -0.049 A 
ATOM     14  C   UNL     1      -8.945   2.751  -0.528  0.00  0.00    +0.004 A 
ATOM     15  C   UNL     1      -8.661   1.704  -1.385  0.00  0.00    +0.005 A 
ATOM     16  C   UNL     1      -7.404   1.131  -1.386  0.00  0.00    -0.029 A 
ATOM     17  C   UNL     1      -6.429   1.599  -0.516  0.00  0.00    +0.037 A 
ATOM     18  C   UNL     1      -6.717   2.651   0.344  0.00  0.00    +0.027 A 
ATOM     19  C   UNL     1      -7.095  -0.006  -2.326  0.00  0.00    +0.045 C 
ENDBRANCH   8  17
ENDBRANCH   1   9
BRANCH   1  20
ATOM     20  S   UNL     1      -1.448   2.327   0.038  0.00  0.00    -0.067 S 
BRANCH  20  21
ATOM     21  C   UNL     1      -0.018   1.297   0.038  0.00  0.00    +0.210 A 
ATOM     22  N   UNL     1      -0.004  -0.016   0.037  0.00  0.00    -0.121 NA
ATOM     23  N   UNL     1       1.207  -0.446   0.033  0.00  0.00    -0.126 NA
ATOM     24  C   UNL     1       2.043   0.569   0.031  0.00  0.00    +0.188 A 
ATOM     25  N   UNL     1       1.283   1.717   0.034  0.00  0.00    -0.223 N 
BRANCH  24  26
ATOM     26  C   UNL     1       3.513   0.492   0.025  0.00  0.00    +0.058 A 
ATOM     27  C   UNL     1       4.322  -0.582  -0.248  0.00  0.00    +0.019 A 
ATOM     28  C   UNL     1       5.687  -0.412  -0.195  0.00  0.00    +0.008 A 
ATOM     29  C   UNL     1       6.190   0.805   0.137  0.00  0.00    +0.046 A 
ATOM     30  S   UNL     1       4.708   1.770   0.381  0.00  0.00    -0.093 S 
ENDBRANCH  24  26
BRANCH  25  31
ATOM     31  N   UNL     1       1.735   3.006   0.033  0.00  0.00    -0.295 N 
ATOM     32  H   UNL     1       1.858   3.347   0.975  0.00  0.00    +0.163 HD
ATOM     33  H   UNL     1       2.590   3.090  -0.496  0.00  0.00    +0.163 HD
ENDBRANCH  25  31
ENDBRANCH  20  21
ENDBRANCH   1  20
TORSDOF 7
