REMARK  Name = ZINC05413664
REMARK  5 active torsions:
REMARK  status: ('A' for Active; 'I' for Inactive)
REMARK    1  A    between atoms: C_9  and  S_11
REMARK    2  A    between atoms: S_11  and  N_14
REMARK    3  A    between atoms: C_25  and  N_30
REMARK    4  A    between atoms: C_31  and  C_33
REMARK    5  A    between atoms: C_36  and  C_39
REMARK                            x       y       z     vdW  Elec       q    Type
REMARK                         _______ _______ _______ _____ _____    ______ ____
ROOT
ATOM      1  N   UNL     1      -1.529   4.926   2.066  0.00  0.00    -0.176 NA
ATOM      2  C   UNL     1      -0.933   6.137   1.491  0.00  0.00    +0.114 C 
ATOM      3  C   UNL     1      -0.495   5.879   0.056  0.00  0.00    +0.025 C 
ATOM      4  C   UNL     1      -1.623   5.241  -0.756  0.00  0.00    +0.017 C 
ATOM      5  C   UNL     1      -2.012   3.920  -0.088  0.00  0.00    +0.052 C 
ATOM      6  C   UNL     1      -2.582   4.232   1.306  0.00  0.00    +0.119 C 
ATOM      7  C   UNL     1      -0.782   3.062   0.100  0.00  0.00    +0.026 A 
ATOM      8  C   UNL     1      -0.964   1.717   0.165  0.00  0.00    +0.024 A 
ATOM      9  C   UNL     1       0.108   0.864   0.450  0.00  0.00    +0.030 A 
ATOM     10  C   UNL     1       1.346   1.408   0.663  0.00  0.00    +0.099 A 
ATOM     11  C   UNL     1       1.504   2.804   0.567  0.00  0.00    +0.273 A 
ATOM     12  O   UNL     1       2.594   3.306   0.789  0.00  0.00    -0.266 OA
ATOM     13  N   UNL     1       0.457   3.597   0.230  0.00  0.00    -0.310 N 
ATOM     14  C   UNL     1       0.747   5.010  -0.014  0.00  0.00    +0.130 C 
ENDROOT
BRANCH  10  15
ATOM     15  N   UNL     1       2.439   0.589   0.972  0.00  0.00    -0.277 N 
ATOM     16  C   UNL     1       3.524   0.584   0.172  0.00  0.00    +0.248 C 
ATOM     17  O   UNL     1       3.593   1.356  -0.765  0.00  0.00    -0.270 OA
ATOM     18  H   UNL     1       2.415   0.025   1.760  0.00  0.00    +0.155 HD
BRANCH  16  19
ATOM     19  C   UNL     1       4.631  -0.360   0.435  0.00  0.00    +0.037 A 
ATOM     20  C   UNL     1       4.555  -1.242   1.515  0.00  0.00    +0.014 A 
ATOM     21  C   UNL     1       5.584  -2.125   1.757  0.00  0.00    +0.019 A 
ATOM     22  C   UNL     1       6.709  -2.131   0.928  0.00  0.00    +0.052 A 
ATOM     23  C   UNL     1       6.787  -1.244  -0.149  0.00  0.00    +0.019 A 
ATOM     24  C   UNL     1       5.756  -0.365  -0.393  0.00  0.00    +0.014 A 
BRANCH  22  25
ATOM     25  C   UNL     1       7.782  -3.044   1.183  0.00  0.00    +0.099 C 
ATOM     26  N   UNL     1       8.633  -3.769   1.385  0.00  0.00    -0.191 NA
ENDBRANCH  22  25
ENDBRANCH  16  19
ENDBRANCH  10  15
BRANCH   1  27
ATOM     27  S   UNL     1      -1.029   4.352   3.537  0.00  0.00    +0.063 S 
ATOM     28  O   UNL     1      -1.222   2.945   3.510  0.00  0.00    -0.153 OA
ATOM     29  O   UNL     1       0.238   4.943   3.794  0.00  0.00    -0.153 OA
BRANCH  27  38
ATOM     30  C   UNL     1      -3.824   4.628   6.414  0.00  0.00    +0.003 A 
ATOM     31  C   UNL     1      -3.909   5.961   6.679  0.00  0.00    +0.010 A 
ATOM     32  C   UNL     1      -3.095   6.862   5.973  0.00  0.00    +0.002 A 
ATOM     33  C   UNL     1      -3.151   8.247   6.217  0.00  0.00    +0.011 A 
ATOM     34  C   UNL     1      -2.330   9.063   5.493  0.00  0.00    +0.020 A 
ATOM     35  C   UNL     1      -1.468   8.517   4.544  0.00  0.00    +0.111 A 
ATOM     36  N   UNL     1      -1.417   7.226   4.320  0.00  0.00    -0.253 NA
ATOM     37  C   UNL     1      -2.195   6.373   4.994  0.00  0.00    +0.097 A 
ATOM     38  C   UNL     1      -2.137   4.990   4.749  0.00  0.00    +0.131 A 
ATOM     39  C   UNL     1      -2.945   4.146   5.448  0.00  0.00    +0.031 A 
ENDBRANCH  27  38
ENDBRANCH   1  27
TORSDOF 5
