REMARK  Name = ZINC39523182
REMARK  1 active torsions:
REMARK  status: ('A' for Active; 'I' for Inactive)
REMARK    1  A    between atoms: N_13  and  O_14
REMARK                            x       y       z     vdW  Elec       q    Type
REMARK                         _______ _______ _______ _____ _____    ______ ____
ROOT
ATOM      1  C   UNL     1      -0.019   1.526   0.010  0.00  0.00    +0.005 C 
ATOM      2  C   UNL     1       1.417   2.056  -0.000  0.00  0.00    +0.037 C 
ATOM      3  C   UNL     1       2.157   1.548   1.238  0.00  0.00    +0.168 C 
ATOM      4  C   UNL     1       2.178   0.018   1.229  0.00  0.00    +0.061 C 
ATOM      5  C   UNL     1       0.742  -0.510   1.242  0.00  0.00    +0.053 C 
ATOM      6  C   UNL     1       0.002  -0.004   0.002  0.00  0.00    +0.025 C 
ATOM      7  C   UNL     1       0.028  -0.013   2.500  0.00  0.00    +0.025 C 
ATOM      8  C   UNL     1      -1.402  -0.561   2.520  0.00  0.00    +0.006 C 
ATOM      9  C   UNL     1      -1.355  -2.090   2.466  0.00  0.00    +0.055 C 
ATOM     10  C   UNL     1      -0.601  -2.527   1.208  0.00  0.00    +0.261 C 
ATOM     11  N   UNL     1       0.761  -1.979   1.236  0.00  0.00    -0.151 NA
ATOM     12  F   UNL     1      -0.539  -3.925   1.164  0.00  0.00    -0.226 F 
ATOM     13  F   UNL     1       3.470   2.033   1.228  0.00  0.00    -0.245 F 
ENDROOT
BRANCH  11  14
ATOM     14  O   UNL     1       1.512  -2.498   2.379  0.00  0.00    -0.309 OA
ATOM     15  H   UNL     1       1.552  -3.463   2.418  0.00  0.00    +0.237 HD
ENDBRANCH  11  14
TORSDOF 1
