REMARK  Name = ZINC04626562
REMARK  7 active torsions:
REMARK  status: ('A' for Active; 'I' for Inactive)
REMARK    1  A    between atoms: C_1  and  O_2
REMARK    2  A    between atoms: O_2  and  C_3
REMARK    3  A    between atoms: C_6  and  C_9
REMARK    4  A    between atoms: C_19  and  C_21
REMARK    5  A    between atoms: C_24  and  O_29
REMARK    6  A    between atoms: C_25  and  O_27
REMARK    7  A    between atoms: O_27  and  C_28
REMARK                            x       y       z     vdW  Elec       q    Type
REMARK                         _______ _______ _______ _____ _____    ______ ____
ROOT
ATOM      1  C   UNL     1       2.300  -2.939  -4.724  0.00  0.00    +0.100 A 
ATOM      2  C   UNL     1       3.250  -3.930  -4.447  0.00  0.00    +0.050 A 
ATOM      3  C   UNL     1       3.744  -4.380  -5.635  0.00  0.00    +0.224 A 
ATOM      4  N   UNL     1       3.132  -3.696  -6.624  0.00  0.00    -0.246 N 
ATOM      5  H   UNL     1       3.288  -3.806  -7.575  0.00  0.00    +0.192 HD
ATOM      6  N   UNL     1       2.225  -2.802  -6.033  0.00  0.00    -0.171 NA
ATOM      7  O   UNL     1       4.690  -5.355  -5.728  0.00  0.00    -0.407 OA
ATOM      8  C   UNL     1       5.274  -5.690  -4.552  0.00  0.00    +0.314 C 
ATOM      9  O   UNL     1       6.464  -5.893  -4.484  0.00  0.00    -0.250 OA
ATOM     10  C   UNL     1       4.393  -5.801  -3.326  0.00  0.00    +0.134 C 
ATOM     11  C   UNL     1       3.693  -4.451  -3.101  0.00  0.00    +0.067 C 
ENDROOT
BRANCH   1  15
ATOM     12  C   UNL     1       0.040  -0.767  -1.847  0.00  0.00    +0.120 A 
ATOM     13  C   UNL     1      -0.582  -1.265  -2.984  0.00  0.00    +0.046 A 
ATOM     14  C   UNL     1       0.148  -1.970  -3.918  0.00  0.00    +0.013 A 
ATOM     15  C   UNL     1       1.512  -2.181  -3.720  0.00  0.00    +0.003 A 
ATOM     16  C   UNL     1       2.133  -1.680  -2.578  0.00  0.00    +0.013 A 
ATOM     17  C   UNL     1       1.399  -0.972  -1.650  0.00  0.00    +0.046 A 
BRANCH  12  19
ATOM     18  C   UNL     1      -2.075   0.100  -1.195  0.00  0.00    +0.277 C 
ATOM     19  O   UNL     1      -0.681  -0.073  -0.929  0.00  0.00    -0.495 OA
ENDBRANCH  12  19
ENDBRANCH   1  15
BRANCH  11  20
ATOM     20  C   UNL     1       2.495  -4.640  -2.207  0.00  0.00    -0.036 A 
ATOM     21  C   UNL     1       1.413  -5.377  -2.651  0.00  0.00    +0.008 A 
ATOM     22  C   UNL     1       0.311  -5.553  -1.835  0.00  0.00    +0.049 A 
ATOM     23  C   UNL     1       0.290  -4.992  -0.569  0.00  0.00    +0.158 A 
ATOM     24  C   UNL     1       1.380  -4.250  -0.121  0.00  0.00    +0.162 A 
ATOM     25  C   UNL     1       2.483  -4.081  -0.943  0.00  0.00    +0.053 A 
BRANCH  24  26
ATOM     26  O   UNL     1       1.364  -3.697   1.121  0.00  0.00    -0.491 OA
ATOM     27  C   UNL     1       2.517  -2.950   1.513  0.00  0.00    +0.277 C 
ENDBRANCH  24  26
BRANCH  23  28
ATOM     28  O   UNL     1      -0.793  -5.164   0.235  0.00  0.00    -0.503 OA
ATOM     29  H   UNL     1      -0.744  -5.948   0.799  0.00  0.00    +0.292 HD
ENDBRANCH  23  28
ENDBRANCH  11  20
TORSDOF 5
