REMARK  Name = ZINC15446453
REMARK  11 active torsions:
REMARK  status: ('A' for Active; 'I' for Inactive)
REMARK    1  A    between atoms: C_1  and  C_2
REMARK    2  A    between atoms: C_5  and  C_8
REMARK    3  A    between atoms: C_8  and  C_10
REMARK    4  A    between atoms: C_8  and  N_15
REMARK    5  A    between atoms: C_16  and  C_18
REMARK    6  A    between atoms: C_18  and  N_57
REMARK    7  A    between atoms: C_19  and  N_57
REMARK    8  A    between atoms: C_20  and  C_21
REMARK    9  A    between atoms: C_20  and  N_57
REMARK   10  A    between atoms: N_23  and  C_24
REMARK   11  A    between atoms: C_29  and  C_30
REMARK                            x       y       z     vdW  Elec       q    Type
REMARK                         _______ _______ _______ _____ _____    ______ ____
ROOT
ATOM      1  C   UNL     1      -1.339  -0.552   0.218  0.00  0.00    +0.019 C 
ENDROOT
BRANCH   1   3
ATOM      2  N   UNL     1      -2.358  -2.757   0.682  0.00  0.00    -0.306 N 
ATOM      3  C   UNL     1      -1.243  -2.039   0.443  0.00  0.00    +0.197 C 
ATOM      4  O   UNL     1      -0.163  -2.589   0.409  0.00  0.00    -0.278 OA
ATOM      5  H   UNL     1      -3.222  -2.318   0.709  0.00  0.00    +0.150 HD
BRANCH   2   6
ATOM      6  C   UNL     1      -2.265  -4.203   0.900  0.00  0.00    +0.140 C 
BRANCH   6  11
ATOM      7  C   UNL     1      -6.786  -5.974   4.033  0.00  0.00    +0.044 C 
ATOM      8  C   UNL     1      -5.607  -5.512   3.216  0.00  0.00    -0.050 A 
ATOM      9  C   UNL     1      -4.351  -6.037   3.457  0.00  0.00    +0.004 A 
ATOM     10  C   UNL     1      -3.269  -5.614   2.707  0.00  0.00    +0.006 A 
ATOM     11  C   UNL     1      -3.444  -4.665   1.717  0.00  0.00    -0.022 A 
ATOM     12  C   UNL     1      -4.699  -4.136   1.480  0.00  0.00    +0.006 A 
ATOM     13  C   UNL     1      -5.781  -4.563   2.227  0.00  0.00    +0.004 A 
ENDBRANCH   6  11
BRANCH   6  14
ATOM     14  C   UNL     1      -2.266  -4.913  -0.429  0.00  0.00    +0.014 A 
ATOM     15  C   UNL     1      -1.532  -5.981  -0.827  0.00  0.00    +0.013 A 
ATOM     16  C   UNL     1      -1.704  -6.473  -2.107  0.00  0.00    +0.008 A 
ATOM     17  C   UNL     1      -2.592  -5.865  -2.931  0.00  0.00    +0.045 A 
ATOM     18  S   UNL     1      -3.228  -4.561  -1.891  0.00  0.00    -0.099 S 
ENDBRANCH   6  14
ENDBRANCH   2   6
ENDBRANCH   1   3
BRANCH   1  20
ATOM     19  C   UNL     1       0.564  -0.513  -1.278  0.00  0.00    -0.095 C 
ATOM     20  N   UNL     1       0.020  -0.013   0.002  0.00  0.00    +0.389 N 
ATOM     21  H   UNL     1       0.628  -0.327   0.768  0.00  0.00    -0.081 HD
BRANCH  20  22
ATOM     22  C   UNL     1      -0.017   1.464  -0.007  0.00  0.00    +0.019 C 
BRANCH  22  23
ATOM     23  C   UNL     1       1.396   1.986  -0.006  0.00  0.00    +0.201 C 
ATOM     24  O   UNL     1       2.329   1.211  -0.015  0.00  0.00    -0.278 OA
ATOM     25  N   UNL     1       1.624   3.315   0.004  0.00  0.00    -0.287 N 
ATOM     26  H   UNL     1       0.881   3.935  -0.054  0.00  0.00    +0.155 HD
BRANCH  25  27
ATOM     27  C   UNL     1       2.933   3.799   0.100  0.00  0.00    +0.045 A 
ATOM     28  C   UNL     1       3.977   3.110  -0.505  0.00  0.00    +0.024 A 
ATOM     29  C   UNL     1       5.267   3.594  -0.413  0.00  0.00    +0.002 A 
ATOM     30  C   UNL     1       5.522   4.757   0.290  0.00  0.00    +0.001 A 
ATOM     31  C   UNL     1       4.487   5.443   0.897  0.00  0.00    +0.014 A 
ATOM     32  C   UNL     1       3.193   4.967   0.805  0.00  0.00    +0.076 A 
BRANCH  32  33
ATOM     33  C   UNL     1       2.065   5.714   1.469  0.00  0.00    +0.419 C 
ATOM     34  F   UNL     1       2.572   6.849   2.112  0.00  0.00    -0.166 F 
ATOM     35  F   UNL     1       1.132   6.104   0.502  0.00  0.00    -0.166 F 
ATOM     36  F   UNL     1       1.445   4.884   2.408  0.00  0.00    -0.166 F 
ENDBRANCH  32  33
ENDBRANCH  25  27
ENDBRANCH  22  23
ENDBRANCH  20  22
ENDBRANCH   1  20
TORSDOF 9
