REMARK  Name = ZINC36590458
REMARK  17 active torsions:
REMARK  status: ('A' for Active; 'I' for Inactive)
REMARK    1  A    between atoms: C_1  and  C_2
REMARK    2  A    between atoms: C_2  and  C_3
REMARK    3  A    between atoms: C_2  and  C_4
REMARK    4  A    between atoms: C_2  and  N_5
REMARK    5  A    between atoms: C_6  and  C_8
REMARK    6  A    between atoms: C_8  and  C_10
REMARK    7  A    between atoms: C_8  and  N_19
REMARK    8  A    between atoms: C_13  and  O_18
REMARK    9  A    between atoms: C_14  and  O_16
REMARK   10  A    between atoms: O_16  and  C_17
REMARK   11  A    between atoms: N_19  and  C_35
REMARK   12  A    between atoms: C_20  and  C_22
REMARK   13  A    between atoms: C_22  and  C_23
REMARK   14  A    between atoms: C_22  and  C_29
REMARK   15  A    between atoms: C_35  and  C_36
REMARK   16  A    between atoms: C_35  and  C_37
REMARK   17  A    between atoms: C_35  and  C_38
REMARK                            x       y       z     vdW  Elec       q    Type
REMARK                         _______ _______ _______ _____ _____    ______ ____
ROOT
ATOM      1  N   UNL     1       3.840  -0.735  -2.391  0.00  0.00    -0.280 N 
ATOM      2  C   UNL     1       4.632  -1.825  -2.444  0.00  0.00    +0.229 C 
ATOM      3  O   UNL     1       4.139  -2.933  -2.447  0.00  0.00    -0.275 OA
ENDROOT
BRANCH   1   4
ATOM      4  C   UNL     1       4.435   0.598  -2.270  0.00  0.00    +0.030 C 
ATOM      5  C   UNL     1       3.447   1.537  -1.576  0.00  0.00    +0.031 C 
ATOM      6  C   UNL     1       5.721   0.509  -1.445  0.00  0.00    +0.031 C 
ATOM      7  C   UNL     1       4.760   1.139  -3.664  0.00  0.00    +0.031 C 
ENDBRANCH   1   4
BRANCH   1   8
ATOM      8  C   UNL     1       2.384  -0.885  -2.454  0.00  0.00    +0.193 C 
BRANCH   8   9
ATOM      9  C   UNL     1       1.876  -1.411  -1.137  0.00  0.00    -0.015 A 
ATOM     10  C   UNL     1       2.704  -2.173  -0.333  0.00  0.00    +0.010 A 
ATOM     11  C   UNL     1       2.242  -2.658   0.877  0.00  0.00    +0.049 A 
ATOM     12  C   UNL     1       0.947  -2.382   1.285  0.00  0.00    +0.158 A 
ATOM     13  C   UNL     1       0.114  -1.615   0.476  0.00  0.00    +0.162 A 
ATOM     14  C   UNL     1       0.585  -1.127  -0.732  0.00  0.00    +0.055 A 
BRANCH  13  15
ATOM     15  O   UNL     1      -1.157  -1.341   0.873  0.00  0.00    -0.491 OA
ATOM     16  C   UNL     1      -1.955  -0.548  -0.008  0.00  0.00    +0.277 C 
ENDBRANCH  13  15
BRANCH  12  17
ATOM     17  O   UNL     1       0.491  -2.859   2.474  0.00  0.00    -0.503 OA
ATOM     18  H   UNL     1       0.643  -2.264   3.221  0.00  0.00    +0.292 HD
ENDBRANCH  12  17
ENDBRANCH   8   9
BRANCH   8  20
ATOM     19  N   UNL     1       0.745  -2.240  -3.717  0.00  0.00    -0.309 N 
ATOM     20  C   UNL     1       2.025  -1.851  -3.553  0.00  0.00    +0.239 C 
ATOM     21  O   UNL     1       2.888  -2.277  -4.291  0.00  0.00    -0.273 OA
ATOM     22  H   UNL     1       0.055  -1.899  -3.127  0.00  0.00    +0.149 HD
BRANCH  19  24
ATOM     23  C   UNL     1       1.159  -4.490  -4.582  0.00  0.00    +0.031 C 
ATOM     24  C   UNL     1       0.396  -3.179  -4.786  0.00  0.00    +0.026 C 
ATOM     25  C   UNL     1       0.774  -2.575  -6.139  0.00  0.00    +0.031 C 
ATOM     26  C   UNL     1      -1.108  -3.454  -4.752  0.00  0.00    +0.031 C 
ENDBRANCH  19  24
ENDBRANCH   8  20
ENDBRANCH   1   8
BRANCH   2  27
ATOM     27  C   UNL     1       6.130  -1.665  -2.501  0.00  0.00    +0.135 C 
BRANCH  27  28
ATOM     28  C   UNL     1       6.781  -3.024  -2.457  0.00  0.00    -0.031 A 
ATOM     29  C   UNL     1       6.576  -3.922  -3.488  0.00  0.00    +0.005 A 
ATOM     30  C   UNL     1       7.174  -5.168  -3.448  0.00  0.00    +0.000 A 
ATOM     31  C   UNL     1       7.977  -5.515  -2.378  0.00  0.00    +0.000 A 
ATOM     32  C   UNL     1       8.182  -4.617  -1.348  0.00  0.00    +0.000 A 
ATOM     33  C   UNL     1       7.588  -3.369  -1.390  0.00  0.00    +0.005 A 
ENDBRANCH  27  28
BRANCH  27  34
ATOM     34  C   UNL     1       6.513  -0.965  -3.779  0.00  0.00    -0.031 A 
ATOM     35  C   UNL     1       7.493   0.009  -3.766  0.00  0.00    +0.005 A 
ATOM     36  C   UNL     1       7.844   0.652  -4.939  0.00  0.00    +0.000 A 
ATOM     37  C   UNL     1       7.215   0.319  -6.124  0.00  0.00    +0.000 A 
ATOM     38  C   UNL     1       6.236  -0.656  -6.137  0.00  0.00    +0.000 A 
ATOM     39  C   UNL     1       5.887  -1.302  -4.965  0.00  0.00    +0.005 A 
ENDBRANCH  27  34
ENDBRANCH   2  27
TORSDOF 10
