REMARK  Name = ZINC09152915
REMARK  9 active torsions:
REMARK  status: ('A' for Active; 'I' for Inactive)
REMARK    1  A    between atoms: C_1  and  C_2
REMARK    2  A    between atoms: C_5  and  C_8
REMARK    3  A    between atoms: C_17  and  C_19
REMARK    4  A    between atoms: C_22  and  O_27
REMARK    5  A    between atoms: C_23  and  O_25
REMARK    6  A    between atoms: O_25  and  C_26
REMARK    7  A    between atoms: O_27  and  C_28
REMARK    8  A    between atoms: C_32  and  C_34
REMARK    9  A    between atoms: C_32  and  C_35
REMARK                            x       y       z     vdW  Elec       q    Type
REMARK                         _______ _______ _______ _____ _____    ______ ____
ROOT
ATOM      1  C   UNL     1       0.058  -4.256  -0.021  0.00  0.00    +0.098 A 
ATOM      2  C   UNL     1       0.718  -5.074   0.900  0.00  0.00    +0.032 A 
ATOM      3  C   UNL     1       0.486  -6.375   0.545  0.00  0.00    +0.123 A 
ATOM      4  N   UNL     1      -0.285  -6.372  -0.559  0.00  0.00    -0.263 N 
ATOM      5  H   UNL     1      -0.604  -7.155  -1.035  0.00  0.00    +0.190 HD
ATOM      6  N   UNL     1      -0.549  -5.035  -0.897  0.00  0.00    -0.172 NA
ATOM      7  N   UNL     1       1.011  -7.431   1.283  0.00  0.00    -0.303 N 
ATOM      8  C   UNL     1       1.514  -7.172   2.533  0.00  0.00    +0.017 C 
ATOM      9  C   UNL     1       1.775  -5.918   2.962  0.00  0.00    +0.024 C 
ATOM     10  C   UNL     1       1.553  -4.700   2.091  0.00  0.00    +0.089 C 
ATOM     11  C   UNL     1       2.267  -5.687   4.259  0.00  0.00    +0.162 C 
ATOM     12  O   UNL     1       2.497  -4.547   4.612  0.00  0.00    -0.292 OA
ATOM     13  C   UNL     1       2.517  -6.816   5.218  0.00  0.00    +0.086 C 
ATOM     14  C   UNL     1       1.564  -7.970   4.887  0.00  0.00    -0.023 C 
ATOM     15  C   UNL     1       1.777  -8.364   3.424  0.00  0.00    +0.058 C 
ATOM     16  C   UNL     1       0.117  -7.519   5.094  0.00  0.00    +0.011 C 
ATOM     17  C   UNL     1       1.867  -9.165   5.792  0.00  0.00    +0.011 C 
ATOM     18  H   UNL     1       1.020  -8.331   0.921  0.00  0.00    +0.153 HD
ENDROOT
BRANCH   1  23
ATOM     19  C   UNL     1      -0.018   1.503   0.010  0.00  0.00    +0.044 C 
ATOM     20  C   UNL     1       0.002  -0.004   0.002  0.00  0.00    -0.050 A 
ATOM     21  C   UNL     1       0.006  -0.686  -1.201  0.00  0.00    +0.004 A 
ATOM     22  C   UNL     1       0.024  -2.067  -1.214  0.00  0.00    +0.010 A 
ATOM     23  C   UNL     1       0.039  -2.772  -0.013  0.00  0.00    +0.002 A 
ATOM     24  C   UNL     1       0.036  -2.080   1.196  0.00  0.00    +0.010 A 
ATOM     25  C   UNL     1       0.023  -0.700   1.198  0.00  0.00    +0.004 A 
ENDBRANCH   1  23
BRANCH  10  26
ATOM     26  C   UNL     1       2.884  -4.169   1.623  0.00  0.00    -0.032 A 
ATOM     27  C   UNL     1       3.716  -4.968   0.862  0.00  0.00    +0.008 A 
ATOM     28  C   UNL     1       4.937  -4.485   0.430  0.00  0.00    +0.050 A 
ATOM     29  C   UNL     1       5.330  -3.198   0.761  0.00  0.00    +0.162 A 
ATOM     30  C   UNL     1       4.492  -2.394   1.527  0.00  0.00    +0.162 A 
ATOM     31  C   UNL     1       3.267  -2.882   1.952  0.00  0.00    +0.054 A 
BRANCH  30  32
ATOM     32  O   UNL     1       4.872  -1.129   1.853  0.00  0.00    -0.491 OA
ATOM     33  C   UNL     1       3.962  -0.361   2.642  0.00  0.00    +0.277 C 
ENDBRANCH  30  32
BRANCH  29  34
ATOM     34  O   UNL     1       6.531  -2.722   0.337  0.00  0.00    -0.491 OA
ATOM     35  C   UNL     1       7.339  -3.604  -0.445  0.00  0.00    +0.277 C 
ENDBRANCH  29  34
ENDBRANCH  10  26
TORSDOF 4
