REMARK  Name = ZINC02793906
REMARK  9 active torsions:
REMARK  status: ('A' for Active; 'I' for Inactive)
REMARK    1  A    between atoms: C_1  and  C_2
REMARK    2  A    between atoms: C_2  and  N_3
REMARK    3  A    between atoms: C_5  and  N_11
REMARK    4  A    between atoms: C_6  and  C_8
REMARK    5  A    between atoms: C_12  and  C_14
REMARK    6  A    between atoms: C_14  and  C_15
REMARK    7  A    between atoms: C_15  and  N_16
REMARK    8  A    between atoms: C_17  and  C_26
REMARK    9  A    between atoms: C_19  and  C_21
REMARK                            x       y       z     vdW  Elec       q    Type
REMARK                         _______ _______ _______ _____ _____    ______ ____
ROOT
ATOM      1  N   UNL     1      -0.453   1.393   3.718  0.00  0.00    -0.282 N 
ATOM      2  C   UNL     1       0.000   1.080   2.488  0.00  0.00    +0.219 C 
ATOM      3  O   UNL     1       0.995   0.397   2.363  0.00  0.00    -0.275 OA
ATOM      4  H   UNL     1      -1.248   1.939   3.817  0.00  0.00    +0.155 HD
ENDROOT
BRANCH   1   7
ATOM      5  N   UNL     1       1.649  -0.047   6.196  0.00  0.00    -0.269 N 
ATOM      6  C   UNL     1       1.346   0.159   4.888  0.00  0.00    +0.132 A 
ATOM      7  C   UNL     1       0.226   0.928   4.855  0.00  0.00    +0.084 A 
ATOM      8  C   UNL     1      -0.109   1.166   6.213  0.00  0.00    +0.168 A 
ATOM      9  N   UNL     1       0.791   0.542   6.948  0.00  0.00    -0.165 NA
BRANCH   8  10
ATOM     10  C   UNL     1      -1.250   1.959   6.709  0.00  0.00    +0.263 C 
ATOM     11  O   UNL     1      -2.013   2.484   5.922  0.00  0.00    -0.269 OA
ATOM     12  N   UNL     1      -1.446   2.101   8.035  0.00  0.00    -0.324 N 
ATOM     13  H   UNL     1      -0.836   1.682   8.663  0.00  0.00    +0.145 HD
ATOM     14  H   UNL     1      -2.196   2.622   8.361  0.00  0.00    +0.145 HD
ENDBRANCH   8  10
BRANCH   5  16
ATOM     15  C   UNL     1       3.631   0.027   7.626  0.00  0.00    +0.029 C 
ATOM     16  C   UNL     1       2.790  -0.830   6.678  0.00  0.00    +0.140 C 
ENDBRANCH   5  16
ENDBRANCH   1   7
BRANCH   2  17
ATOM     17  C   UNL     1      -0.729   1.579   1.267  0.00  0.00    +0.119 C 
BRANCH  17  18
ATOM     18  C   UNL     1      -0.013   1.086   0.008  0.00  0.00    +0.153 C 
BRANCH  18  19
ATOM     19  N   UNL     1      -0.721   1.571  -1.179  0.00  0.00    -0.266 N 
ATOM     20  C   UNL     1      -0.487   2.734  -1.824  0.00  0.00    +0.055 A 
ATOM     21  C   UNL     1      -1.349   2.809  -2.865  0.00  0.00    +0.093 A 
ATOM     22  C   UNL     1      -2.136   1.652  -2.856  0.00  0.00    +0.184 A 
ATOM     23  N   UNL     1      -1.757   0.908  -1.849  0.00  0.00    -0.165 NA
ATOM     24 CL   UNL     1      -1.459   4.111  -4.008  0.00  0.00    -0.079 Cl
ATOM     25  C   UNL     1       0.548   3.764  -1.451  0.00  0.00    +0.067 C 
BRANCH  22  26
ATOM     26  C   UNL     1      -3.228   1.319  -3.840  0.00  0.00    +0.437 C 
ATOM     27  F   UNL     1      -2.685   0.610  -4.917  0.00  0.00    -0.164 F 
ATOM     28  F   UNL     1      -4.201   0.536  -3.209  0.00  0.00    -0.164 F 
ATOM     29  F   UNL     1      -3.812   2.502  -4.306  0.00  0.00    -0.164 F 
ENDBRANCH  22  26
ENDBRANCH  18  19
ENDBRANCH  17  18
ENDBRANCH   2  17
TORSDOF 7
