REMARK  Name = ZINC51748108
REMARK  6 active torsions:
REMARK  status: ('A' for Active; 'I' for Inactive)
REMARK    1  A    between atoms: C_1  and  C_2
REMARK    2  A    between atoms: N_6  and  S_11
REMARK    3  A    between atoms: C_7  and  C_10
REMARK    4  A    between atoms: S_11  and  C_14
REMARK    5  A    between atoms: C_15  and  N_22
REMARK    6  A    between atoms: N_22  and  N_23
REMARK                            x       y       z     vdW  Elec       q    Type
REMARK                         _______ _______ _______ _____ _____    ______ ____
ROOT
ATOM      1  C   UNL     1       4.033  -2.672  -0.051  0.00  0.00    +0.222 A 
ATOM      2  C   UNL     1       4.695  -2.239  -1.143  0.00  0.00    +0.179 A 
ATOM      3  N   UNL     1       5.784  -1.565  -0.736  0.00  0.00    -0.203 NA
ATOM      4  C   UNL     1       5.821  -1.564   0.566  0.00  0.00    +0.181 A 
ATOM      5  N   UNL     1       4.744  -2.240   1.073  0.00  0.00    -0.276 N 
ATOM      6  C   UNL     1       4.644  -2.318   2.444  0.00  0.00    +0.102 A 
ATOM      7  C   UNL     1       5.561  -1.754   3.228  0.00  0.00    +0.067 A 
ATOM      8  S   UNL     1       6.685  -1.050   2.032  0.00  0.00    -0.058 S 
ENDROOT
BRANCH   1   9
ATOM      9  S   UNL     1       2.539  -3.606  -0.041  0.00  0.00    +0.080 S 
ATOM     10  O   UNL     1       2.498  -4.295   1.201  0.00  0.00    -0.151 OA
ATOM     11  O   UNL     1       2.475  -4.282  -1.290  0.00  0.00    -0.151 OA
BRANCH   9  16
ATOM     12  C   UNL     1      -0.019   1.526   0.010  0.00  0.00    +0.007 C 
ATOM     13  C   UNL     1       0.002  -0.004   0.002  0.00  0.00    -0.011 C 
ATOM     14  C   UNL     1       0.718  -0.497  -1.258  0.00  0.00    +0.020 C 
ATOM     15  C   UNL     1       0.706  -2.029  -1.280  0.00  0.00    +0.110 C 
ATOM     16  N   UNL     1       1.285  -2.525  -0.024  0.00  0.00    -0.172 NA
ATOM     17  C   UNL     1       0.730  -2.043   1.248  0.00  0.00    +0.077 C 
ATOM     18  C   UNL     1       0.742  -0.511   1.242  0.00  0.00    +0.023 C 
ATOM     19  C   UNL     1      -0.706  -2.547   1.406  0.00  0.00    +0.026 C 
ENDBRANCH   9  16
ENDBRANCH   1   9
BRANCH   2  20
ATOM     20  N   UNL     1       4.312  -2.455  -2.476  0.00  0.00    -0.265 N 
ATOM     21  H   UNL     1       3.506  -2.957  -2.674  0.00  0.00    +0.168 HD
BRANCH  20  22
ATOM     22  N   UNL     1       5.076  -1.960  -3.495  0.00  0.00    -0.255 NA
ATOM     23  H   UNL     1       4.677  -2.194  -4.392  0.00  0.00    +0.140 HD
ATOM     24  H   UNL     1       5.199  -0.963  -3.403  0.00  0.00    +0.140 HD
ENDBRANCH  20  22
ENDBRANCH   2  20
TORSDOF 4
