REMARK  Name = ZINC17137909
REMARK  12 active torsions:
REMARK  status: ('A' for Active; 'I' for Inactive)
REMARK    1  A    between atoms: C_1  and  C_2
REMARK    2  A    between atoms: C_2  and  C_4
REMARK    3  A    between atoms: C_4  and  O_41
REMARK    4  A    between atoms: C_9  and  C_40
REMARK    5  A    between atoms: N_21  and  O_22
REMARK    6  A    between atoms: O_22  and  C_23
REMARK    7  A    between atoms: C_23  and  C_24
REMARK    8  A    between atoms: N_26  and  C_27
REMARK    9  A    between atoms: C_27  and  C_28
REMARK   10  A    between atoms: C_28  and  C_29
REMARK   11  A    between atoms: C_32  and  O_35
REMARK   12  A    between atoms: C_38  and  C_39
REMARK                            x       y       z     vdW  Elec       q    Type
REMARK                         _______ _______ _______ _____ _____    ______ ____
ROOT
ATOM      1  C   UNL     1      -0.052  -0.370   0.060  0.00  0.00    +0.129 C 
ATOM      2  C   UNL     1      -0.343   1.142   0.198  0.00  0.00    +0.043 C 
ATOM      3  C   UNL     1       1.014   1.863   0.093  0.00  0.00    +0.008 C 
ATOM      4  C   UNL     1       2.076   0.757  -0.153  0.00  0.00    +0.002 C 
ATOM      5  C   UNL     1       1.427  -0.488   0.474  0.00  0.00    +0.007 C 
ATOM      6  C   UNL     1       2.056  -1.782   0.017  0.00  0.00    +0.010 C 
ATOM      7  C   UNL     1       2.090  -1.870  -1.508  0.00  0.00    +0.005 C 
ATOM      8  C   UNL     1       2.909  -0.689  -2.047  0.00  0.00    +0.002 C 
ATOM      9  C   UNL     1       2.206   0.611  -1.673  0.00  0.00    -0.003 C 
ATOM     10  C   UNL     1       3.010   1.803  -2.204  0.00  0.00    +0.008 C 
ATOM     11  C   UNL     1       3.030   1.761  -3.732  0.00  0.00    +0.031 C 
ATOM     12  C   UNL     1       3.579   0.415  -4.172  0.00  0.00    -0.062 C 
ATOM     13  C   UNL     1       4.549   0.409  -5.078  0.00  0.00    +0.026 C 
ATOM     14  C   UNL     1       5.105  -0.871  -5.551  0.00  0.00    +0.080 C 
ATOM     15  N   UNL     1       6.279  -0.946  -6.095  0.00  0.00    -0.089 NA
ATOM     16  C   UNL     1       4.230  -2.096  -5.367  0.00  0.00    +0.059 C 
ATOM     17  C   UNL     1       3.746  -2.098  -3.918  0.00  0.00    +0.017 C 
ATOM     18  C   UNL     1       2.993  -0.825  -3.573  0.00  0.00    -0.007 C 
ATOM     19  C   UNL     1       1.568  -0.980  -4.109  0.00  0.00    +0.016 C 
ATOM     20  C   UNL     1       1.534  -0.384   1.996  0.00  0.00    +0.015 C 
ENDROOT
BRANCH   1  22
ATOM     21  C   UNL     1      -2.241  -1.723   0.492  0.00  0.00    +0.089 C 
ATOM     22  C   UNL     1      -0.931  -1.168   0.988  0.00  0.00    +0.162 C 
ATOM     23  O   UNL     1      -0.587  -1.361   2.129  0.00  0.00    -0.295 OA
ENDBRANCH   1  22
BRANCH   1  24
ATOM     24  O   UNL     1      -0.232  -0.797  -1.292  0.00  0.00    -0.381 OA
ATOM     25  H   UNL     1      -1.131  -0.678  -1.625  0.00  0.00    +0.211 HD
ENDBRANCH   1  24
BRANCH  15  26
ATOM     26  O   UNL     1       7.064   0.222  -6.248  0.00  0.00    -0.384 OA
BRANCH  26  27
ATOM     27  C   UNL     1       8.334  -0.008  -6.862  0.00  0.00    +0.358 C 
BRANCH  27  28
ATOM     28  C   UNL     1       9.081   1.296  -6.975  0.00  0.00    +0.253 C 
ATOM     29  O   UNL     1       8.575   2.321  -6.569  0.00  0.00    -0.272 OA
ATOM     30  N   UNL     1      10.310   1.323  -7.527  0.00  0.00    -0.312 N 
ATOM     31  H   UNL     1      10.714   0.503  -7.851  0.00  0.00    +0.149 HD
BRANCH  30  32
ATOM     32  C   UNL     1      11.036   2.591  -7.636  0.00  0.00    +0.109 C 
BRANCH  32  33
ATOM     33  C   UNL     1      12.396   2.345  -8.293  0.00  0.00    +0.054 C 
BRANCH  33  34
ATOM     34  C   UNL     1      13.142   3.649  -8.406  0.00  0.00    -0.046 A 
ATOM     35  C   UNL     1      13.001   4.430  -9.538  0.00  0.00    +0.007 A 
ATOM     36  C   UNL     1      13.680   5.629  -9.641  0.00  0.00    +0.045 A 
ATOM     37  C   UNL     1      14.514   6.043  -8.612  0.00  0.00    +0.117 A 
ATOM     38  C   UNL     1      14.658   5.255  -7.479  0.00  0.00    +0.045 A 
ATOM     39  C   UNL     1      13.972   4.060  -7.379  0.00  0.00    +0.007 A 
BRANCH  37  40
ATOM     40  O   UNL     1      15.187   7.219  -8.713  0.00  0.00    -0.507 OA
ATOM     41  H   UNL     1      16.060   7.139  -9.122  0.00  0.00    +0.292 HD
ENDBRANCH  37  40
ENDBRANCH  33  34
ENDBRANCH  32  33
ENDBRANCH  30  32
ENDBRANCH  27  28
ENDBRANCH  26  27
ENDBRANCH  15  26
TORSDOF 9
