REMARK  Name = ZINC06218132
REMARK  9 active torsions:
REMARK  status: ('A' for Active; 'I' for Inactive)
REMARK    1  A    between atoms: C_1  and  C_2
REMARK    2  A    between atoms: C_7  and  N_8
REMARK    3  A    between atoms: N_8  and  C_9
REMARK    4  A    between atoms: N_8  and  S_23
REMARK    5  A    between atoms: C_9  and  C_10
REMARK    6  A    between atoms: N_12  and  N_13
REMARK    7  A    between atoms: C_14  and  C_15
REMARK    8  A    between atoms: C_20  and  C_21
REMARK    9  A    between atoms: S_23  and  C_26
REMARK                            x       y       z     vdW  Elec       q    Type
REMARK                         _______ _______ _______ _____ _____    ______ ____
ROOT
ATOM      1  C   UNL     1      -0.193   0.683   2.692  0.00  0.00    +0.251 C 
ATOM      2  O   UNL     1       0.952   0.824   3.066  0.00  0.00    -0.272 OA
ATOM      3  N   UNL     1      -0.951  -0.309   3.200  0.00  0.00    -0.206 N 
ATOM      4  H   UNL     1      -1.867  -0.422   2.901  0.00  0.00    +0.177 HD
ENDROOT
BRANCH   3   5
ATOM      5  N   UNL     1      -0.415  -1.178   4.160  0.00  0.00    -0.188 NA
ATOM      6  C   UNL     1      -1.145  -2.134   4.650  0.00  0.00    +0.139 C 
BRANCH   6   7
ATOM      7  C   UNL     1      -0.582  -3.046   5.659  0.00  0.00    +0.009 A 
ATOM      8  C   UNL     1       0.690  -2.815   6.184  0.00  0.00    +0.010 A 
ATOM      9  C   UNL     1       1.210  -3.670   7.133  0.00  0.00    +0.001 A 
ATOM     10  C   UNL     1       0.482  -4.769   7.563  0.00  0.00    +0.001 A 
ATOM     11  C   UNL     1      -0.774  -5.020   7.053  0.00  0.00    +0.016 A 
ATOM     12  C   UNL     1      -1.322  -4.164   6.096  0.00  0.00    +0.072 A 
BRANCH  12  13
ATOM     13  C   UNL     1      -2.665  -4.427   5.548  0.00  0.00    +0.387 C 
ATOM     14  O   UNL     1      -3.095  -3.742   4.641  0.00  0.00    -0.241 OA
ATOM     15  O   UNL     1      -3.414  -5.428   6.051  0.00  0.00    -0.241 OA
ENDBRANCH  12  13
ENDBRANCH   6   7
ENDBRANCH   3   5
BRANCH   1  16
ATOM     16  C   UNL     1      -0.769   1.617   1.659  0.00  0.00    +0.228 C 
BRANCH  16  17
ATOM     17  N   UNL     1       0.245   2.600   1.269  0.00  0.00    -0.198 N 
BRANCH  17  24
ATOM     18  C   UNL     1      -1.648   4.701   0.963  0.00  0.00    +0.046 C 
ATOM     19  C   UNL     1      -0.480   4.811   1.909  0.00  0.00    -0.028 A 
ATOM     20  C   UNL     1      -0.303   5.957   2.659  0.00  0.00    +0.005 A 
ATOM     21  C   UNL     1       0.767   6.059   3.528  0.00  0.00    +0.000 A 
ATOM     22  C   UNL     1       1.666   5.014   3.648  0.00  0.00    +0.002 A 
ATOM     23  C   UNL     1       1.493   3.864   2.904  0.00  0.00    +0.025 A 
ATOM     24  C   UNL     1       0.421   3.760   2.027  0.00  0.00    +0.054 A 
ENDBRANCH  17  24
BRANCH  17  25
ATOM     25  S   UNL     1       1.184   2.334  -0.069  0.00  0.00    +0.043 S 
ATOM     26  O   UNL     1       1.189   0.923  -0.234  0.00  0.00    -0.155 OA
ATOM     27  O   UNL     1       2.391   3.038   0.190  0.00  0.00    -0.155 OA
ATOM     28  C   UNL     1       0.283   3.120  -1.433  0.00  0.00    +0.218 C 
ENDBRANCH  17  25
ENDBRANCH  16  17
ENDBRANCH   1  16
TORSDOF 7
