REMARK  Name = ZINC12788065
REMARK  10 active torsions:
REMARK  status: ('A' for Active; 'I' for Inactive)
REMARK    1  A    between atoms: C_1  and  C_2
REMARK    2  A    between atoms: C_2  and  C_4
REMARK    3  A    between atoms: C_2  and  N_20
REMARK    4  A    between atoms: C_10  and  C_15
REMARK    5  A    between atoms: N_20  and  C_21
REMARK    6  A    between atoms: N_20  and  C_22
REMARK    7  A    between atoms: C_22  and  C_23
REMARK    8  A    between atoms: C_26  and  C_29
REMARK    9  A    between atoms: C_29  and  C_30
REMARK   10  A    between atoms: C_29  and  C_31
REMARK                            x       y       z     vdW  Elec       q    Type
REMARK                         _______ _______ _______ _____ _____    ______ ____
ROOT
ATOM      1  C   UNL     1      -1.408  -0.588   0.189  0.00  0.00    +0.097 A 
ATOM      2  N   UNL     1      -2.399  -0.175  -0.642  0.00  0.00    -0.312 N 
ATOM      3  H   UNL     1      -2.201   0.480  -1.329  0.00  0.00    +0.170 HD
ATOM      4  C   UNL     1      -3.651  -0.658  -0.531  0.00  0.00    +0.260 A 
ATOM      5  O   UNL     1      -4.530  -0.277  -1.286  0.00  0.00    -0.267 OA
ATOM      6  C   UNL     1      -3.934  -1.624   0.486  0.00  0.00    +0.083 A 
ATOM      7  C   UNL     1      -5.195  -2.287   0.803  0.00  0.00    +0.039 A 
ATOM      8  C   UNL     1      -5.221  -3.179   1.825  0.00  0.00    +0.059 A 
ATOM      9  S   UNL     1      -3.542  -3.175   2.421  0.00  0.00    -0.076 S 
ATOM     10  C   UNL     1      -2.848  -1.990   1.297  0.00  0.00    +0.116 A 
ATOM     11  N   UNL     1      -1.635  -1.472   1.123  0.00  0.00    -0.228 NA
ENDROOT
BRANCH   7  12
ATOM     12  C   UNL     1      -6.417  -1.993   0.027  0.00  0.00    +0.136 A 
ATOM     13  C   UNL     1      -7.252  -2.914  -0.526  0.00  0.00    +0.050 A 
ATOM     14  C   UNL     1      -8.280  -2.195  -1.169  0.00  0.00    +0.042 A 
ATOM     15  C   UNL     1      -8.025  -0.886  -0.979  0.00  0.00    +0.196 A 
ATOM     16  O   UNL     1      -6.901  -0.768  -0.251  0.00  0.00    -0.463 OA
ENDBRANCH   7  12
BRANCH   1  18
ATOM     17  C   UNL     1      -0.080   1.505   0.122  0.00  0.00    -0.005 C 
ATOM     18  C   UNL     1      -0.021  -0.021   0.027  0.00  0.00    -0.004 C 
BRANCH  18  19
ATOM     19  N   UNL     1       0.849  -0.544   1.088  0.00  0.00    +0.387 N 
ATOM     20  C   UNL     1       1.026  -1.991   0.907  0.00  0.00    -0.095 C 
ATOM     21  H   UNL     1       0.427  -0.367   1.988  0.00  0.00    -0.081 HD
BRANCH  19  22
ATOM     22  C   UNL     1       2.157   0.121   1.022  0.00  0.00    -0.042 C 
BRANCH  22  23
ATOM     23  C   UNL     1       3.007  -0.325   2.183  0.00  0.00    -0.064 A 
ATOM     24  C   UNL     1       2.967   0.371   3.377  0.00  0.00    +0.002 A 
ATOM     25  C   UNL     1       3.747  -0.038   4.442  0.00  0.00    +0.004 A 
ATOM     26  C   UNL     1       4.567  -1.144   4.314  0.00  0.00    -0.045 A 
ATOM     27  C   UNL     1       4.606  -1.840   3.121  0.00  0.00    +0.004 A 
ATOM     28  C   UNL     1       3.823  -1.434   2.057  0.00  0.00    +0.002 A 
BRANCH  26  29
ATOM     29  C   UNL     1       5.418  -1.589   5.476  0.00  0.00    +0.013 C 
ATOM     30  C   UNL     1       5.036  -3.018   5.869  0.00  0.00    +0.012 C 
ATOM     31  C   UNL     1       6.893  -1.548   5.072  0.00  0.00    +0.012 C 
ENDBRANCH  26  29
ENDBRANCH  22  23
ENDBRANCH  19  22
ENDBRANCH  18  19
ENDBRANCH   1  18
TORSDOF 6
