REMARK  Name = ZINC02974269
REMARK  9 active torsions:
REMARK  status: ('A' for Active; 'I' for Inactive)
REMARK    1  A    between atoms: C_4  and  C_7
REMARK    2  A    between atoms: C_7  and  C_8
REMARK    3  A    between atoms: C_8  and  N_9
REMARK    4  A    between atoms: C_10  and  C_12
REMARK    5  A    between atoms: C_12  and  S_13
REMARK    6  A    between atoms: S_13  and  C_14
REMARK    7  A    between atoms: N_24  and  C_25
REMARK    8  A    between atoms: C_25  and  C_26
REMARK    9  A    between atoms: C_26  and  C_27
REMARK                            x       y       z     vdW  Elec       q    Type
REMARK                         _______ _______ _______ _____ _____    ______ ____
ROOT
ATOM      1  C   UNL     1       5.186   4.467   0.433  0.00  0.00    +0.173 A 
ATOM      2  N   UNL     1       3.886   4.335   0.520  0.00  0.00    -0.223 NA
ATOM      3  C   UNL     1       3.270   3.165   0.219  0.00  0.00    +0.083 A 
ATOM      4  C   UNL     1       1.885   3.027   0.313  0.00  0.00    +0.078 A 
ATOM      5  C   UNL     1       1.292   1.819  -0.001  0.00  0.00    +0.168 A 
ATOM      6  C   UNL     1       2.071   0.729  -0.412  0.00  0.00    +0.167 A 
ATOM      7  C   UNL     1       3.440   0.849  -0.511  0.00  0.00    +0.065 A 
ATOM      8  C   UNL     1       4.053   2.064  -0.198  0.00  0.00    +0.069 A 
ATOM      9  C   UNL     1       5.507   2.241  -0.287  0.00  0.00    +0.263 A 
ATOM     10  O   UNL     1       6.232   1.329  -0.640  0.00  0.00    -0.267 OA
ATOM     11  N   UNL     1       6.012   3.453   0.038  0.00  0.00    -0.287 N 
ATOM     12  O   UNL     1       1.241  -0.329  -0.655  0.00  0.00    -0.453 OA
ATOM     13  C   UNL     1       0.002  -0.004   0.002  0.00  0.00    +0.466 C 
ATOM     14  O   UNL     1      -0.017   1.435   0.010  0.00  0.00    -0.453 OA
ENDROOT
BRANCH   1  15
ATOM     15  S   UNL     1       5.902   6.023   0.844  0.00  0.00    -0.078 S 
BRANCH  15  16
ATOM     16  C   UNL     1       4.410   6.951   1.279  0.00  0.00    +0.173 C 
BRANCH  16  18
ATOM     17  N   UNL     1       3.834   9.232   2.042  0.00  0.00    -0.314 N 
ATOM     18  C   UNL     1       4.789   8.354   1.676  0.00  0.00    +0.223 C 
ATOM     19  O   UNL     1       5.954   8.694   1.666  0.00  0.00    -0.275 OA
ATOM     20  H   UNL     1       2.903   8.961   2.050  0.00  0.00    +0.149 HD
BRANCH  17  21
ATOM     21  C   UNL     1       4.203  10.596   2.428  0.00  0.00    +0.109 C 
BRANCH  21  22
ATOM     22  C   UNL     1       2.942  11.381   2.796  0.00  0.00    +0.054 C 
BRANCH  22  26
ATOM     23  C   UNL     1       4.016  15.359   3.922  0.00  0.00    +0.000 A 
ATOM     24  C   UNL     1       3.730  15.068   2.601  0.00  0.00    +0.000 A 
ATOM     25  C   UNL     1       3.382  13.780   2.237  0.00  0.00    +0.004 A 
ATOM     26  C   UNL     1       3.321  12.784   3.193  0.00  0.00    -0.046 A 
ATOM     27  C   UNL     1       3.602  13.076   4.515  0.00  0.00    +0.004 A 
ATOM     28  C   UNL     1       3.954  14.363   4.878  0.00  0.00    +0.000 A 
ENDBRANCH  22  26
ENDBRANCH  21  22
ENDBRANCH  17  21
ENDBRANCH  16  18
ENDBRANCH  15  16
ENDBRANCH   1  15
BRANCH  11  29
ATOM     29  C   UNL     1       7.457   3.681  -0.035  0.00  0.00    +0.131 C 
BRANCH  29  30
ATOM     30  C   UNL     1       8.097   3.336   1.311  0.00  0.00    +0.052 C 
BRANCH  30  31
ATOM     31  C   UNL     1       9.584   3.571   1.236  0.00  0.00    -0.072 C 
ATOM     32  C   UNL     1      10.040   4.710   1.647  0.00  0.00    -0.028 C 
ATOM     33  C   UNL     1      11.491   5.091   1.625  0.00  0.00    +0.027 C 
ATOM     34  C   UNL     1      12.362   3.843   1.467  0.00  0.00    +0.004 C 
ATOM     35  C   UNL     1      11.816   3.016   0.296  0.00  0.00    +0.005 C 
ATOM     36  C   UNL     1      10.443   2.466   0.694  0.00  0.00    +0.030 C 
ENDBRANCH  30  31
ENDBRANCH  29  30
ENDBRANCH  11  29
TORSDOF 9
