REMARK  Name = ZINC56624523
REMARK  8 active torsions:
REMARK  status: ('A' for Active; 'I' for Inactive)
REMARK    1  A    between atoms: C_1  and  N_2
REMARK    2  A    between atoms: N_2  and  C_3
REMARK    3  A    between atoms: C_5  and  C_10
REMARK    4  A    between atoms: C_10  and  N_11
REMARK    5  A    between atoms: N_14  and  C_15
REMARK    6  A    between atoms: C_18  and  C_22
REMARK    7  A    between atoms: N_24  and  C_25
REMARK    8  A    between atoms: N_24  and  C_26
REMARK                            x       y       z     vdW  Elec       q    Type
REMARK                         _______ _______ _______ _____ _____    ______ ____
ROOT
ATOM      1  N   UNL     1       1.529  -2.025   1.028  0.00  0.00    -0.295 N 
ATOM      2  C   UNL     1       2.564  -2.780   1.449  0.00  0.00    +0.304 C 
ATOM      3  O   UNL     1       3.194  -3.446   0.651  0.00  0.00    -0.252 OA
ATOM      4  N   UNL     1       2.900  -2.796   2.754  0.00  0.00    -0.269 N 
ATOM      5  H   UNL     1       1.026  -1.494   1.665  0.00  0.00    +0.151 HD
ATOM      6  H   UNL     1       2.452  -2.202   3.377  0.00  0.00    +0.156 HD
ENDROOT
BRANCH   4   7
ATOM      7  C   UNL     1       3.890  -3.666   3.208  0.00  0.00    +0.036 A 
ATOM      8  C   UNL     1       5.002  -3.928   2.413  0.00  0.00    +0.024 A 
ATOM      9  C   UNL     1       5.982  -4.785   2.857  0.00  0.00    +0.016 A 
ATOM     10  C   UNL     1       5.861  -5.394   4.110  0.00  0.00    +0.055 A 
ATOM     11  C   UNL     1       4.742  -5.129   4.907  0.00  0.00    +0.055 A 
ATOM     12  C   UNL     1       3.768  -4.264   4.457  0.00  0.00    +0.044 A 
ATOM     13 CL   UNL     1       4.586  -5.882   6.464  0.00  0.00    -0.083 Cl
BRANCH  10  14
ATOM     14  C   UNL     1       6.909  -6.315   4.590  0.00  0.00    +0.248 C 
ATOM     15  O   UNL     1       7.487  -6.086   5.635  0.00  0.00    -0.270 OA
ATOM     16  N   UNL     1       7.226  -7.409   3.869  0.00  0.00    -0.304 N 
ATOM     17  C   UNL     1       8.196  -8.374   4.392  0.00  0.00    +0.132 C 
ATOM     18  C   UNL     1       6.601  -7.633   2.563  0.00  0.00    +0.132 C 
ENDBRANCH  10  14
ENDBRANCH   4   7
BRANCH   1  19
ATOM     19  C   UNL     1       1.164  -2.008  -0.390  0.00  0.00    +0.144 C 
BRANCH  19  24
ATOM     20  C   UNL     1       1.930   1.253   0.773  0.00  0.00    +0.130 C 
ATOM     21  N   UNL     1       1.441   0.820  -0.538  0.00  0.00    -0.323 N 
ATOM     22  C   UNL     1       2.297   0.951  -1.719  0.00  0.00    +0.130 C 
ATOM     23  C   UNL     1       0.164   0.285  -0.661  0.00  0.00    +0.103 A 
ATOM     24  C   UNL     1      -0.016  -1.093  -0.594  0.00  0.00    +0.008 A 
ATOM     25  C   UNL     1      -1.292  -1.612  -0.718  0.00  0.00    +0.010 A 
ATOM     26  C   UNL     1      -2.350  -0.732  -0.905  0.00  0.00    +0.018 A 
ATOM     27  C   UNL     1      -2.099   0.624  -0.962  0.00  0.00    +0.084 A 
ATOM     28  N   UNL     1      -0.872   1.092  -0.835  0.00  0.00    -0.349 N 
ATOM     29  H   UNL     1      -0.724   2.050  -0.874  0.00  0.00    +0.167 HD
ENDBRANCH  19  24
ENDBRANCH   1  19
TORSDOF 4
