REMARK  Name = ZINC08720178
REMARK  10 active torsions:
REMARK  status: ('A' for Active; 'I' for Inactive)
REMARK    1  A    between atoms: C_1  and  C_2
REMARK    2  A    between atoms: C_2  and  N_63
REMARK    3  A    between atoms: N_5  and  C_8
REMARK    4  A    between atoms: C_11  and  N_14
REMARK    5  A    between atoms: C_15  and  C_17
REMARK    6  A    between atoms: C_17  and  S_18
REMARK    7  A    between atoms: S_18  and  C_19
REMARK    8  A    between atoms: C_22  and  C_32
REMARK    9  A    between atoms: C_23  and  C_25
REMARK   10  A    between atoms: C_25  and  C_26
REMARK                            x       y       z     vdW  Elec       q    Type
REMARK                         _______ _______ _______ _____ _____    ______ ____
ROOT
ATOM      1  N   UNL     1       1.002  -4.753  -4.493  0.00  0.00    -0.285 N 
ATOM      2  C   UNL     1       1.741  -3.691  -4.870  0.00  0.00    +0.227 C 
ATOM      3  O   UNL     1       2.200  -3.639  -5.991  0.00  0.00    -0.275 OA
ATOM      4  H   UNL     1       0.691  -4.828  -3.577  0.00  0.00    +0.155 HD
ENDROOT
BRANCH   1   8
ATOM      5  C   UNL     1       0.051  -7.721  -7.265  0.00  0.00    +0.030 A 
ATOM      6  C   UNL     1       1.280  -7.077  -7.331  0.00  0.00    +0.025 A 
ATOM      7  C   UNL     1       1.595  -6.095  -6.413  0.00  0.00    +0.025 A 
ATOM      8  C   UNL     1       0.682  -5.750  -5.425  0.00  0.00    +0.034 A 
ATOM      9  C   UNL     1      -0.544  -6.398  -5.356  0.00  0.00    +0.025 A 
ATOM     10  C   UNL     1      -0.861  -7.376  -6.276  0.00  0.00    +0.025 A 
BRANCH   5  13
ATOM     11  C   UNL     1      -1.887 -10.400  -8.928  0.00  0.00    -0.060 C 
ATOM     12  C   UNL     1      -1.609  -9.262  -7.943  0.00  0.00    +0.086 C 
ATOM     13  N   UNL     1      -0.268  -8.717  -8.194  0.00  0.00    -0.333 N 
ATOM     14  C   UNL     1      -0.158  -8.209  -9.569  0.00  0.00    +0.086 C 
ATOM     15  C   UNL     1      -0.436  -9.347 -10.554  0.00  0.00    -0.060 C 
ATOM     16  N   UNL     1      -1.796  -9.871 -10.305  0.00  0.00    +0.382 N 
ATOM     17  H   UNL     1      -2.473  -9.107 -10.415  0.00  0.00    -0.082 HD
BRANCH  16  19
ATOM     18  C   UNL     1      -2.231 -10.316 -12.671  0.00  0.00    -0.017 C 
ATOM     19  C   UNL     1      -2.112 -10.938 -11.278  0.00  0.00    -0.082 C 
ENDBRANCH  16  19
ENDBRANCH   5  13
ENDBRANCH   1   8
BRANCH   2  20
ATOM     20  C   UNL     1       1.998  -2.569  -3.897  0.00  0.00    +0.173 C 
BRANCH  20  21
ATOM     21  S   UNL     1       3.014  -1.300  -4.694  0.00  0.00    -0.079 S 
BRANCH  21  22
ATOM     22  C   UNL     1       3.154  -0.145  -3.372  0.00  0.00    +0.167 A 
ATOM     23  N   UNL     1       3.831   1.035  -3.414  0.00  0.00    -0.337 N 
ATOM     24  H   UNL     1       4.336   1.404  -4.194  0.00  0.00    +0.168 HD
ATOM     25  C   UNL     1       3.689   1.625  -2.178  0.00  0.00    +0.037 A 
ATOM     26  C   UNL     1       2.939   0.796  -1.432  0.00  0.00    +0.067 A 
ATOM     27  N   UNL     1       2.628  -0.279  -2.176  0.00  0.00    -0.226 NA
ATOM     28  C   UNL     1       4.264   2.948  -1.744  0.00  0.00    +0.065 C 
BRANCH  26  29
ATOM     29  C   UNL     1       2.523   1.028  -0.002  0.00  0.00    +0.092 C 
BRANCH  29  30
ATOM     30  C   UNL     1       1.209   1.765   0.025  0.00  0.00    -0.042 A 
ATOM     31  C   UNL     1       0.021   1.058   0.038  0.00  0.00    +0.004 A 
ATOM     32  C   UNL     1      -1.185   1.734   0.057  0.00  0.00    +0.000 A 
ATOM     33  C   UNL     1      -1.203   3.116   0.075  0.00  0.00    +0.000 A 
ATOM     34  C   UNL     1      -0.015   3.823   0.063  0.00  0.00    +0.000 A 
ATOM     35  C   UNL     1       1.191   3.147   0.039  0.00  0.00    +0.004 A 
ENDBRANCH  29  30
ENDBRANCH  26  29
ENDBRANCH  21  22
ENDBRANCH  20  21
ENDBRANCH   2  20
TORSDOF 8
