REMARK  Name = ZINC39711167
REMARK  14 active torsions:
REMARK  status: ('A' for Active; 'I' for Inactive)
REMARK    1  A    between atoms: C_1  and  C_2
REMARK    2  A    between atoms: C_2  and  C_3
REMARK    3  A    between atoms: C_3  and  C_4
REMARK    4  A    between atoms: C_3  and  C_5
REMARK    5  A    between atoms: C_3  and  N_6
REMARK    6  A    between atoms: C_7  and  C_12
REMARK    7  A    between atoms: C_12  and  C_14
REMARK    8  A    between atoms: C_12  and  N_28
REMARK    9  A    between atoms: C_18  and  C_27
REMARK   10  A    between atoms: C_20  and  C_26
REMARK   11  A    between atoms: N_28  and  C_29
REMARK   12  A    between atoms: N_28  and  C_37
REMARK   13  A    between atoms: C_29  and  C_30
REMARK   14  A    between atoms: C_37  and  C_38
REMARK                            x       y       z     vdW  Elec       q    Type
REMARK                         _______ _______ _______ _____ _____    ______ ____
ROOT
ATOM      1  C   UNL     1       0.596  -4.189  -4.318  0.00  0.00    -0.010 C 
ENDROOT
BRANCH   1   2
ATOM      2  C   UNL     1       0.234  -2.715  -4.507  0.00  0.00    +0.088 C 
ATOM      3  C   UNL     1       1.508  -1.962  -4.839  0.00  0.00    -0.006 C 
ATOM      4  C   UNL     1       1.861  -0.937  -4.013  0.00  0.00    -0.004 A 
ATOM      5  C   UNL     1       3.075  -0.158  -4.261  0.00  0.00    -0.042 A 
ATOM      6  C   UNL     1       3.388   0.855  -3.411  0.00  0.00    +0.007 A 
ATOM      7  C   UNL     1       2.578   1.161  -2.317  0.00  0.00    -0.048 A 
ATOM      8  C   UNL     1       1.440   0.476  -2.033  0.00  0.00    +0.027 A 
ATOM      9  C   UNL     1       1.025  -0.591  -2.851  0.00  0.00    +0.041 A 
ATOM     10  N   UNL     1      -0.095  -1.254  -2.563  0.00  0.00    -0.285 N 
ATOM     11  C   UNL     1      -0.539  -2.267  -3.287  0.00  0.00    +0.223 C 
ATOM     12  O   UNL     1      -1.568  -2.835  -2.974  0.00  0.00    -0.275 OA
ATOM     13  C   UNL     1       2.983   2.297  -1.414  0.00  0.00    +0.044 C 
ATOM     14  C   UNL     1       3.963  -0.474  -5.437  0.00  0.00    +0.044 C 
ATOM     15  H   UNL     1      -0.606  -0.983  -1.785  0.00  0.00    +0.155 HD
ENDBRANCH   1   2
BRANCH   1  17
ATOM     16  N   UNL     1       1.721  -5.744  -2.758  0.00  0.00    -0.211 N 
ATOM     17  C   UNL     1       1.571  -4.329  -3.147  0.00  0.00    +0.183 C 
ATOM     18  N   UNL     1       2.939  -3.953  -3.555  0.00  0.00    -0.229 N 
ATOM     19  N   UNL     1       3.719  -5.103  -3.381  0.00  0.00    -0.064 NA
ATOM     20  N   UNL     1       3.072  -6.054  -2.952  0.00  0.00    -0.061 NA
ATOM     21  H   UNL     1       3.236  -3.088  -3.877  0.00  0.00    +0.172 HD
BRANCH  16  22
ATOM     22  C   UNL     1       0.672  -6.639  -2.264  0.00  0.00    +0.050 C 
ATOM     23  C   UNL     1      -0.203  -7.094  -3.433  0.00  0.00    +0.033 C 
ATOM     24  C   UNL     1      -0.190  -5.898  -1.240  0.00  0.00    +0.033 C 
BRANCH  22  26
ATOM     25  C   UNL     1       0.221  -8.843  -1.177  0.00  0.00    +0.006 C 
ATOM     26  C   UNL     1       1.314  -7.860  -1.602  0.00  0.00    +0.023 C 
ENDBRANCH  22  26
ENDBRANCH  16  22
ENDBRANCH   1  17
BRANCH   1  27
ATOM     27  N   UNL     1       1.225  -4.701  -5.543  0.00  0.00    +0.392 N 
ATOM     28  H   UNL     1       2.111  -4.239  -5.684  0.00  0.00    -0.080 HD
BRANCH  27  29
ATOM     29  C   UNL     1       1.441  -6.148  -5.415  0.00  0.00    -0.042 C 
BRANCH  29  30
ATOM     30  C   UNL     1       2.200  -6.650  -6.617  0.00  0.00    -0.064 A 
ATOM     31  C   UNL     1       1.513  -7.080  -7.737  0.00  0.00    +0.004 A 
ATOM     32  C   UNL     1       2.207  -7.541  -8.839  0.00  0.00    +0.038 A 
ATOM     33  C   UNL     1       3.591  -7.571  -8.822  0.00  0.00    +0.123 A 
ATOM     34  C   UNL     1       4.278  -7.141  -7.699  0.00  0.00    +0.038 A 
ATOM     35  C   UNL     1       3.582  -6.676  -6.600  0.00  0.00    +0.004 A 
ATOM     36  F   UNL     1       4.271  -8.022  -9.899  0.00  0.00    -0.205 F 
ENDBRANCH  29  30
ENDBRANCH  27  29
BRANCH  27  37
ATOM     37  C   UNL     1       0.347  -4.436  -6.691  0.00  0.00    -0.002 C 
BRANCH  37  38
ATOM     38  C   UNL     1       0.976  -3.390  -7.574  0.00  0.00    +0.089 A 
ATOM     39  C   UNL     1       1.895  -3.617  -8.531  0.00  0.00    +0.042 A 
ATOM     40  C   UNL     1       2.205  -2.364  -9.106  0.00  0.00    +0.041 A 
ATOM     41  C   UNL     1       1.458  -1.446  -8.467  0.00  0.00    +0.195 A 
ATOM     42  O   UNL     1       0.712  -2.074  -7.544  0.00  0.00    -0.470 OA
ENDBRANCH  37  38
ENDBRANCH  27  37
ENDBRANCH   1  27
TORSDOF 9
