REMARK  Name = ZINC15512664
REMARK  4 active torsions:
REMARK  status: ('A' for Active; 'I' for Inactive)
REMARK    1  A    between atoms: C_1  and  C_2
REMARK    2  A    between atoms: C_8  and  C_10
REMARK    3  A    between atoms: C_10  and  C_11
REMARK    4  A    between atoms: C_11  and  N_12
REMARK                            x       y       z     vdW  Elec       q    Type
REMARK                         _______ _______ _______ _____ _____    ______ ____
ROOT
ATOM      1  N   UNL     1      -0.016   1.345   0.009  0.00  0.00    -0.224 N 
ATOM      2  C   UNL     1       0.002  -0.004   0.002  0.00  0.00    +0.247 C 
ATOM      3  O   UNL     1      -0.953  -0.751   0.007  0.00  0.00    -0.273 OA
ATOM      4  C   UNL     1       1.464  -0.388  -0.014  0.00  0.00    +0.113 C 
ATOM      5  C   UNL     1       1.792  -1.178  -1.276  0.00  0.00    +0.035 C 
ATOM      6  C   UNL     1       3.281  -1.532  -1.287  0.00  0.00    +0.003 C 
ATOM      7  C   UNL     1       3.616  -2.361  -0.045  0.00  0.00    +0.000 C 
ATOM      8  C   UNL     1       3.305  -1.546   1.212  0.00  0.00    +0.003 C 
ATOM      9  C   UNL     1       1.816  -1.192   1.233  0.00  0.00    +0.035 C 
ATOM     10  N   UNL     1       2.171   0.899  -0.014  0.00  0.00    -0.285 N 
ATOM     11  C   UNL     1       1.222   1.855   0.000  0.00  0.00    +0.309 C 
ATOM     12  O   UNL     1       1.462   3.046   0.004  0.00  0.00    -0.252 OA
ATOM     13  H   UNL     1       3.131   1.035  -0.023  0.00  0.00    +0.151 HD
ENDROOT
BRANCH   1  14
ATOM     14  C   UNL     1      -1.239   2.152   0.020  0.00  0.00    +0.127 C 
BRANCH  14  15
ATOM     15  C   UNL     1      -1.658   2.425   1.466  0.00  0.00    +0.115 C 
BRANCH  15  23
ATOM     16  C   UNL     1      -3.753   6.451   5.812  0.00  0.00    +0.007 C 
ATOM     17  C   UNL     1      -3.964   5.221   4.927  0.00  0.00    -0.011 C 
ATOM     18  C   UNL     1      -4.455   5.664   3.547  0.00  0.00    +0.022 C 
ATOM     19  C   UNL     1      -4.698   4.428   2.675  0.00  0.00    +0.108 C 
ATOM     20  N   UNL     1      -3.472   3.619   2.648  0.00  0.00    -0.301 N 
ATOM     21  C   UNL     1      -2.868   3.211   3.924  0.00  0.00    +0.108 C 
ATOM     22  C   UNL     1      -2.642   4.465   4.782  0.00  0.00    +0.022 C 
ATOM     23  C   UNL     1      -2.915   3.255   1.477  0.00  0.00    +0.217 C 
ATOM     24  O   UNL     1      -3.427   3.594   0.431  0.00  0.00    -0.276 OA
ENDBRANCH  15  23
ENDBRANCH  14  15
ENDBRANCH   1  14
TORSDOF 3
