REMARK  Name = ZINC17167005
REMARK  10 active torsions:
REMARK  status: ('A' for Active; 'I' for Inactive)
REMARK    1  A    between atoms: C_1  and  C_2
REMARK    2  A    between atoms: C_2  and  O_3
REMARK    3  A    between atoms: O_3  and  C_4
REMARK    4  A    between atoms: C_6  and  C_14
REMARK    5  A    between atoms: C_8  and  C_11
REMARK    6  A    between atoms: C_9  and  O_10
REMARK    7  A    between atoms: C_11  and  C_12
REMARK    8  A    between atoms: C_19  and  N_21
REMARK    9  A    between atoms: N_21  and  C_22
REMARK   10  A    between atoms: C_27  and  C_28
REMARK                            x       y       z     vdW  Elec       q    Type
REMARK                         _______ _______ _______ _____ _____    ______ ____
ROOT
ATOM      1  C   UNL     1      -0.293  -5.011   0.330  0.00  0.00    +0.028 C 
ATOM      2  C   UNL     1       0.245  -6.244   0.509  0.00  0.00    +0.079 C 
ATOM      3  C   UNL     1      -0.134  -7.317   1.458  0.00  0.00    +0.276 C 
ATOM      4  O   UNL     1      -1.056  -7.183   2.246  0.00  0.00    -0.267 OA
ATOM      5  N   UNL     1       0.577  -8.422   1.403  0.00  0.00    -0.152 NA
ATOM      6  C   UNL     1       1.579  -8.580   0.553  0.00  0.00    +0.175 C 
ATOM      7  S   UNL     1       1.608  -7.033  -0.339  0.00  0.00    -0.050 S 
ENDROOT
BRANCH   1  10
ATOM      8  C   UNL     1       0.139  -2.062  -1.946  0.00  0.00    +0.162 A 
ATOM      9  C   UNL     1      -0.276  -2.842  -0.884  0.00  0.00    +0.057 A 
ATOM     10  C   UNL     1       0.143  -4.176  -0.796  0.00  0.00    -0.020 A 
ATOM     11  C   UNL     1       0.979  -4.710  -1.784  0.00  0.00    +0.015 A 
ATOM     12  C   UNL     1       1.387  -3.924  -2.839  0.00  0.00    +0.002 A 
ATOM     13  C   UNL     1       0.967  -2.603  -2.928  0.00  0.00    +0.162 A 
BRANCH  13  14
ATOM     14  O   UNL     1       1.368  -1.835  -3.974  0.00  0.00    -0.503 OA
ATOM     15  H   UNL     1       2.195  -1.358  -3.817  0.00  0.00    +0.292 HD
ENDBRANCH  13  14
BRANCH   8  16
ATOM     16  O   UNL     1      -0.266  -0.767  -2.035  0.00  0.00    -0.489 OA
BRANCH  16  18
ATOM     17  C   UNL     1      -1.462   1.187  -1.264  0.00  0.00    +0.048 C 
ATOM     18  C   UNL     1      -1.113  -0.278  -0.994  0.00  0.00    +0.226 C 
ENDBRANCH  16  18
ENDBRANCH   8  16
BRANCH  12  19
ATOM     19  C   UNL     1       2.287  -4.500  -3.902  0.00  0.00    +0.065 C 
BRANCH  19  20
ATOM     20  C   UNL     1       3.722  -4.178  -3.574  0.00  0.00    -0.030 C 
ATOM     21  C   UNL     1       4.605  -5.141  -3.483  0.00  0.00    +0.004 C 
ENDBRANCH  19  20
ENDBRANCH  12  19
ENDBRANCH   1  10
BRANCH   6  22
ATOM     22  N   UNL     1       2.395  -9.670   0.393  0.00  0.00    -0.192 NA
BRANCH  22  23
ATOM     23  C   UNL     1       2.080 -10.878   1.023  0.00  0.00    +0.060 A 
ATOM     24  C   UNL     1       0.764 -11.159   1.369  0.00  0.00    +0.045 A 
ATOM     25  C   UNL     1       0.456 -12.354   1.991  0.00  0.00    +0.043 A 
ATOM     26  C   UNL     1       1.456 -13.270   2.269  0.00  0.00    +0.020 A 
ATOM     27  C   UNL     1       2.766 -12.992   1.925  0.00  0.00    +0.006 A 
ATOM     28  C   UNL     1       3.080 -11.801   1.298  0.00  0.00    -0.027 A 
ATOM     29  C   UNL     1       4.507 -11.502   0.919  0.00  0.00    +0.046 C 
ATOM     30 CL   UNL     1      -1.188 -12.708   2.425  0.00  0.00    -0.083 Cl
ENDBRANCH  22  23
ENDBRANCH   6  22
TORSDOF 8
