REMARK  Name = ZINC21402346
REMARK  6 active torsions:
REMARK  status: ('A' for Active; 'I' for Inactive)
REMARK    1  A    between atoms: C_1  and  C_2
REMARK    2  A    between atoms: C_2  and  N_3
REMARK    3  A    between atoms: C_8  and  C_17
REMARK    4  A    between atoms: C_10  and  C_12
REMARK    5  A    between atoms: N_19  and  C_20
REMARK    6  A    between atoms: C_21  and  O_26
REMARK                            x       y       z     vdW  Elec       q    Type
REMARK                         _______ _______ _______ _____ _____    ______ ____
ROOT
ATOM      1  N   UNL     1       8.266   2.764  -0.061  0.00  0.00    -0.247 N 
ATOM      2  C   UNL     1       7.271   3.708  -0.047  0.00  0.00    +0.160 A 
ATOM      3  C   UNL     1       6.052   2.999  -0.040  0.00  0.00    +0.051 A 
ATOM      4  C   UNL     1       6.370   1.625  -0.050  0.00  0.00    +0.145 A 
ATOM      5  N   UNL     1       7.667   1.499  -0.062  0.00  0.00    -0.177 NA
ATOM      6  C   UNL     1       4.835   3.720  -0.024  0.00  0.00    +0.051 A 
ATOM      7  C   UNL     1       4.899   5.108  -0.023  0.00  0.00    +0.042 A 
ATOM      8  C   UNL     1       6.152   5.735  -0.026  0.00  0.00    +0.081 A 
ATOM      9  N   UNL     1       7.275   5.032  -0.040  0.00  0.00    -0.227 NA
ENDROOT
BRANCH   8  10
ATOM     10  C   UNL     1       6.222   7.210  -0.018  0.00  0.00    +0.038 A 
ATOM     11  C   UNL     1       7.327   8.022  -0.019  0.00  0.00    +0.017 A 
ATOM     12  C   UNL     1       7.145   9.386  -0.016  0.00  0.00    +0.008 A 
ATOM     13  C   UNL     1       5.881   9.885  -0.001  0.00  0.00    +0.046 A 
ATOM     14  S   UNL     1       4.891   8.399   0.001  0.00  0.00    -0.095 S 
ENDBRANCH   8  10
BRANCH   6  15
ATOM     15  C   UNL     1       3.534   3.019  -0.015  0.00  0.00    +0.250 C 
ATOM     16  O   UNL     1       3.498   1.804  -0.022  0.00  0.00    -0.270 OA
ATOM     17  N   UNL     1       2.386   3.726  -0.001  0.00  0.00    -0.265 N 
ATOM     18  H   UNL     1       2.418   4.825   0.005  0.00  0.00    +0.157 HD
BRANCH  17  19
ATOM     19  C   UNL     1       1.159   3.064   0.007  0.00  0.00    +0.145 A 
ATOM     20  C   UNL     1      -0.025   3.802   0.023  0.00  0.00    +0.155 A 
ATOM     21  C   UNL     1      -1.238   3.128   0.031  0.00  0.00    +0.050 A 
ATOM     22  C   UNL     1      -1.223   1.740   0.017  0.00  0.00    +0.021 A 
ATOM     23  C   UNL     1      -0.013   1.076   0.007  0.00  0.00    +0.084 A 
ATOM     24  N   UNL     1       1.127   1.742   0.000  0.00  0.00    -0.347 N 
ATOM     25  H   UNL     1       2.066   1.169  -0.012  0.00  0.00    +0.167 HD
BRANCH  20  26
ATOM     26  O   UNL     1       0.009   5.161   0.031  0.00  0.00    -0.503 OA
ATOM     27  H   UNL     1      -0.930   5.735   0.044  0.00  0.00    +0.292 HD
ENDBRANCH  20  26
ENDBRANCH  17  19
ENDBRANCH   6  15
BRANCH   1  29
ATOM     28  C   UNL     1      10.193   3.135  -1.521  0.00  0.00    +0.029 C 
ATOM     29  C   UNL     1       9.706   3.034  -0.074  0.00  0.00    +0.142 C 
ENDBRANCH   1  29
TORSDOF 5
