REMARK  Name = ZINC16138101
REMARK  8 active torsions:
REMARK  status: ('A' for Active; 'I' for Inactive)
REMARK    1  A    between atoms: C_8  and  N_76
REMARK    2  A    between atoms: N_11  and  O_12
REMARK    3  A    between atoms: C_15  and  C_18
REMARK    4  A    between atoms: C_18  and  C_19
REMARK    5  A    between atoms: C_19  and  C_20
REMARK    6  A    between atoms: C_20  and  C_21
REMARK    7  A    between atoms: C_26  and  N_78
REMARK    8  A    between atoms: N_36  and  O_37
REMARK                            x       y       z     vdW  Elec       q    Type
REMARK                         _______ _______ _______ _____ _____    ______ ____
ROOT
ATOM      1  C   UNL     1       8.840   4.567   2.020  0.00  0.00    +0.001 C 
ENDROOT
BRANCH   1   2
ATOM      2  C   UNL     1       9.181   3.085   2.180  0.00  0.00    +0.003 C 
BRANCH   2   5
ATOM      3  C   UNL     1       6.428   1.515  -0.005  0.00  0.00    -0.078 C 
ATOM      4  C   UNL     1       7.617   2.410   0.350  0.00  0.00    -0.015 C 
ATOM      5  C   UNL     1       7.955   2.238   1.833  0.00  0.00    -0.014 C 
ATOM      6  C   UNL     1       8.255   0.763   2.113  0.00  0.00    -0.015 C 
ATOM      7  C   UNL     1       7.047  -0.084   1.707  0.00  0.00    -0.078 C 
ATOM      8  N   UNL     1       6.790   0.107   0.264  0.00  0.00    +0.385 N 
ATOM      9  H   UNL     1       7.643  -0.123  -0.260  0.00  0.00    -0.081 HD
BRANCH   8  15
ATOM     10  C   UNL     1       4.097  -1.374  -1.953  0.00  0.00    +0.003 C 
ATOM     11  C   UNL     1       4.569  -2.844  -1.864  0.00  0.00    +0.009 C 
ATOM     12  C   UNL     1       6.095  -2.748  -1.558  0.00  0.00    +0.035 C 
ATOM     13  C   UNL     1       6.470  -1.448  -2.353  0.00  0.00    +0.011 C 
ATOM     14  C   UNL     1       5.383  -0.534  -1.683  0.00  0.00    -0.019 C 
ATOM     15  C   UNL     1       5.700  -0.787  -0.177  0.00  0.00    -0.016 C 
ATOM     16  C   UNL     1       6.167  -2.234  -0.114  0.00  0.00    +0.047 C 
ATOM     17  N   UNL     1       6.541  -2.884   0.923  0.00  0.00    -0.098 NA
BRANCH  17  18
ATOM     18  O   UNL     1       6.948  -4.235   0.803  0.00  0.00    -0.409 OA
ATOM     19  H   UNL     1       7.213  -4.641   1.640  0.00  0.00    +0.328 HD
ENDBRANCH  17  18
ENDBRANCH   8  15
ENDBRANCH   2   5
ENDBRANCH   1   2
BRANCH   1  20
ATOM     20  C   UNL     1      10.066   5.414   2.366  0.00  0.00    +0.003 C 
BRANCH  20  21
ATOM     21  C   UNL     1       9.725   6.896   2.206  0.00  0.00    -0.014 C 
ATOM     22  C   UNL     1       9.437   7.198   0.732  0.00  0.00    -0.015 C 
ATOM     23  C   UNL     1       9.156   8.694   0.569  0.00  0.00    -0.078 C 
ATOM     24  C   UNL     1      10.586   9.227   2.451  0.00  0.00    -0.078 C 
ATOM     25  C   UNL     1      10.909   7.748   2.671  0.00  0.00    -0.015 C 
ATOM     26  N   UNL     1      10.343   9.456   1.011  0.00  0.00    +0.385 N 
ATOM     27  H   UNL     1      11.161   9.136   0.480  0.00  0.00    -0.081 HD
BRANCH  26  28
ATOM     28  C   UNL     1      10.140  10.898   0.757  0.00  0.00    -0.016 C 
ATOM     29  C   UNL     1      10.331  11.191  -0.763  0.00  0.00    -0.019 C 
ATOM     30  C   UNL     1      11.659  10.461  -1.133  0.00  0.00    +0.003 C 
ATOM     31  C   UNL     1      12.759  11.270  -0.407  0.00  0.00    +0.009 C 
ATOM     32  C   UNL     1      11.990  12.414   0.321  0.00  0.00    +0.035 C 
ATOM     33  C   UNL     1      10.828  12.679  -0.699  0.00  0.00    +0.011 C 
ATOM     34  C   UNL     1      11.227  11.707   1.450  0.00  0.00    +0.047 C 
ATOM     35  N   UNL     1      11.455  11.782   2.707  0.00  0.00    -0.098 NA
BRANCH  35  36
ATOM     36  O   UNL     1      10.513  11.266   3.630  0.00  0.00    -0.409 OA
ATOM     37  H   UNL     1      10.773  11.369   4.556  0.00  0.00    +0.328 HD
ENDBRANCH  35  36
ENDBRANCH  26  28
ENDBRANCH  20  21
ENDBRANCH   1  20
TORSDOF 8
