REMARK  Name = ZINC59484245
REMARK  6 active torsions:
REMARK  status: ('A' for Active; 'I' for Inactive)
REMARK    1  A    between atoms: C_1  and  C_2
REMARK    2  A    between atoms: C_5  and  C_8
REMARK    3  A    between atoms: C_9  and  C_23
REMARK    4  A    between atoms: N_13  and  N_14
REMARK    5  A    between atoms: C_15  and  C_16
REMARK    6  A    between atoms: C_20  and  O_22
REMARK                            x       y       z     vdW  Elec       q    Type
REMARK                         _______ _______ _______ _____ _____    ______ ____
ROOT
ATOM      1  C   UNL     1       0.030  -4.255   0.002  0.00  0.00    +0.088 A 
ATOM      2  C   UNL     1       0.838  -4.957   0.891  0.00  0.00    +0.049 A 
ATOM      3  S   UNL     1       0.501  -6.639   0.384  0.00  0.00    -0.050 S 
ATOM      4  C   UNL     1      -0.651  -6.252  -0.927  0.00  0.00    +0.179 A 
ATOM      5  N   UNL     1      -0.690  -4.932  -0.874  0.00  0.00    -0.223 NA
ATOM      6  N   UNL     1      -1.328  -7.111  -1.774  0.00  0.00    -0.215 N 
ATOM      7  H   UNL     1      -1.928  -6.755  -2.448  0.00  0.00    +0.176 HD
ENDROOT
BRANCH   1  12
ATOM      8  C   UNL     1      -0.184   1.496   0.151  0.00  0.00    +0.044 C 
ATOM      9  C   UNL     1      -0.128  -0.009   0.113  0.00  0.00    -0.050 A 
ATOM     10  C   UNL     1       1.089  -0.656   0.231  0.00  0.00    +0.004 A 
ATOM     11  C   UNL     1       1.147  -2.034   0.196  0.00  0.00    +0.010 A 
ATOM     12  C   UNL     1      -0.025  -2.775   0.041  0.00  0.00    +0.002 A 
ATOM     13  C   UNL     1      -1.249  -2.117  -0.077  0.00  0.00    +0.010 A 
ATOM     14  C   UNL     1      -1.294  -0.738  -0.035  0.00  0.00    +0.004 A 
ENDBRANCH   1  12
BRANCH   2  15
ATOM     15  C   UNL     1       1.726  -4.455   1.957  0.00  0.00    -0.009 A 
ATOM     16  C   UNL     1       1.261  -3.502   2.867  0.00  0.00    +0.009 A 
ATOM     17  C   UNL     1       2.096  -3.037   3.861  0.00  0.00    +0.001 A 
ATOM     18  C   UNL     1       3.393  -3.511   3.958  0.00  0.00    +0.000 A 
ATOM     19  C   UNL     1       3.860  -4.455   3.060  0.00  0.00    +0.001 A 
ATOM     20  C   UNL     1       3.034  -4.934   2.065  0.00  0.00    +0.009 A 
ENDBRANCH   2  15
BRANCH   6  21
ATOM     21  N   UNL     1      -1.146  -8.495  -1.660  0.00  0.00    -0.188 NA
ATOM     22  C   UNL     1      -1.782  -9.301  -2.455  0.00  0.00    +0.138 C 
BRANCH  22  23
ATOM     23  C   UNL     1      -1.591 -10.758  -2.334  0.00  0.00    -0.002 A 
ATOM     24  C   UNL     1      -0.731 -11.275  -1.361  0.00  0.00    +0.010 A 
ATOM     25  C   UNL     1      -0.555 -12.639  -1.251  0.00  0.00    +0.004 A 
ATOM     26  C   UNL     1      -1.227 -13.498  -2.101  0.00  0.00    +0.045 A 
ATOM     27  C   UNL     1      -2.084 -12.994  -3.071  0.00  0.00    +0.117 A 
ATOM     28  C   UNL     1      -2.273 -11.628  -3.188  0.00  0.00    +0.054 A 
BRANCH  27  29
ATOM     29  O   UNL     1      -2.741 -13.844  -3.904  0.00  0.00    -0.507 OA
ATOM     30  H   UNL     1      -3.603 -14.131  -3.573  0.00  0.00    +0.292 HD
ENDBRANCH  27  29
ENDBRANCH  22  23
ENDBRANCH   6  21
TORSDOF 5
