REMARK  Name = ZINC50971537
REMARK  3 active torsions:
REMARK  status: ('A' for Active; 'I' for Inactive)
REMARK    1  A    between atoms: C_6  and  C_7
REMARK    2  A    between atoms: C_7  and  C_9
REMARK    3  A    between atoms: C_7  and  O_16
REMARK                            x       y       z     vdW  Elec       q    Type
REMARK                         _______ _______ _______ _____ _____    ______ ____
ROOT
ATOM      1  C   UNL     1      -1.293  -0.775   0.011  0.00  0.00    +0.173 C 
ENDROOT
BRANCH   1   7
ATOM      2  C   UNL     1      -0.017   1.378   0.010  0.00  0.00    +0.007 A 
ATOM      3  C   UNL     1       1.171   2.086   0.002  0.00  0.00    +0.020 A 
ATOM      4  C   UNL     1       2.378   1.410  -0.013  0.00  0.00    +0.041 A 
ATOM      5  C   UNL     1       2.396   0.027  -0.021  0.00  0.00    +0.020 A 
ATOM      6  C   UNL     1       1.208  -0.679  -0.013  0.00  0.00    +0.007 A 
ATOM      7  C   UNL     1       0.002  -0.004   0.002  0.00  0.00    -0.017 A 
ATOM      8 CL   UNL     1       3.870   2.298  -0.023  0.00  0.00    -0.084 Cl
ENDBRANCH   1   7
BRANCH   1   9
ATOM      9  C   UNL     1      -1.617  -1.243  -1.409  0.00  0.00    +0.151 C 
ATOM     10  C   UNL     1      -2.933  -2.026  -1.401  0.00  0.00    +0.034 C 
ATOM     11  C   UNL     1      -3.281  -2.440  -2.834  0.00  0.00    +0.005 C 
ATOM     12  C   UNL     1      -3.356  -1.187  -3.712  0.00  0.00    +0.028 C 
ATOM     13  C   UNL     1      -2.024  -0.436  -3.631  0.00  0.00    +0.160 C 
ATOM     14  O   UNL     1      -1.745  -0.108  -2.268  0.00  0.00    -0.374 OA
ENDBRANCH   1   9
BRANCH   1  15
ATOM     15  O   UNL     1      -1.166  -1.910   0.869  0.00  0.00    -0.385 OA
ATOM     16  H   UNL     1      -0.469  -2.526   0.606  0.00  0.00    +0.210 HD
ENDBRANCH   1  15
TORSDOF 3
