REMARK  Name = ZINC29883488
REMARK  6 active torsions:
REMARK  status: ('A' for Active; 'I' for Inactive)
REMARK    1  A    between atoms: C_1  and  C_2
REMARK    2  A    between atoms: C_6  and  C_9
REMARK    3  A    between atoms: C_9  and  C_10
REMARK    4  A    between atoms: C_16  and  C_18
REMARK    5  A    between atoms: C_18  and  C_20
REMARK    6  A    between atoms: C_18  and  N_21
REMARK                            x       y       z     vdW  Elec       q    Type
REMARK                         _______ _______ _______ _____ _____    ______ ____
ROOT
ATOM      1  C   UNL     1       3.644   2.656  -0.018  0.00  0.00    +0.015 A 
ATOM      2  C   UNL     1       2.583   3.499  -0.004  0.00  0.00    +0.124 A 
ATOM      3  N   UNL     1       1.370   2.983  -0.001  0.00  0.00    -0.233 NA
ATOM      4  C   UNL     1       1.183   1.677  -0.000  0.00  0.00    +0.165 A 
ATOM      5  S   UNL     1       2.812   1.075  -0.019  0.00  0.00    -0.057 S 
ATOM      6  N   UNL     1      -0.011   0.966   0.007  0.00  0.00    -0.263 N 
ATOM      7  C   UNL     1      -1.187   1.624   0.017  0.00  0.00    +0.243 C 
ATOM      8  O   UNL     1      -1.204   2.837   0.023  0.00  0.00    -0.273 OA
ATOM      9  H   UNL     1       0.004  -0.134   0.006  0.00  0.00    +0.157 HD
ENDROOT
BRANCH   7  10
ATOM     10  C   UNL     1      -2.482   0.853   0.018  0.00  0.00    +0.192 C 
ATOM     11  C   UNL     1      -2.557  -0.021  -1.235  0.00  0.00    +0.042 C 
BRANCH  10  12
ATOM     12  N   UNL     1      -3.608   1.789   0.029  0.00  0.00    -0.240 N 
ATOM     13  C   UNL     1      -4.169   2.387  -1.037  0.00  0.00    +0.219 A 
ATOM     14  N   UNL     1      -5.146   3.145  -0.610  0.00  0.00    -0.223 NA
ATOM     15  C   UNL     1      -5.234   3.065   0.718  0.00  0.00    +0.245 A 
ATOM     16  N   UNL     1      -4.312   2.247   1.155  0.00  0.00    -0.158 NA
ENDBRANCH  10  12
ENDBRANCH   7  10
BRANCH   1  17
ATOM     17  C   UNL     1       5.119   2.966  -0.031  0.00  0.00    +0.080 C 
BRANCH  17  23
ATOM     18  C   UNL     1       6.886   0.761   4.102  0.00  0.00    +0.045 C 
ATOM     19  C   UNL     1       6.471   2.007   3.363  0.00  0.00    -0.032 A 
ATOM     20  C   UNL     1       6.553   3.239   3.984  0.00  0.00    +0.005 A 
ATOM     21  C   UNL     1       6.171   4.382   3.307  0.00  0.00    +0.001 A 
ATOM     22  C   UNL     1       5.712   4.294   2.006  0.00  0.00    +0.005 A 
ATOM     23  C   UNL     1       5.624   3.062   1.385  0.00  0.00    -0.024 A 
ATOM     24  C   UNL     1       6.006   1.918   2.063  0.00  0.00    +0.047 A 
ATOM     25 CL   UNL     1       5.903   0.371   1.282  0.00  0.00    -0.083 Cl
ENDBRANCH  17  23
ENDBRANCH   1  17
TORSDOF 4
