REMARK  Name = ZINC25572329
REMARK  7 active torsions:
REMARK  status: ('A' for Active; 'I' for Inactive)
REMARK    1  A    between atoms: C_1  and  C_2
REMARK    2  A    between atoms: C_2  and  C_4
REMARK    3  A    between atoms: C_2  and  N_10
REMARK    4  A    between atoms: N_10  and  C_11
REMARK    5  A    between atoms: C_12  and  C_21
REMARK    6  A    between atoms: N_15  and  C_20
REMARK    7  A    between atoms: N_18  and  C_19
REMARK                            x       y       z     vdW  Elec       q    Type
REMARK                         _______ _______ _______ _____ _____    ______ ____
ROOT
ATOM      1  C   UNL     1      -0.635   1.634  -0.370  0.00  0.00    +0.126 A 
ATOM      2  C   UNL     1      -2.008   1.385  -0.267  0.00  0.00    +0.154 A 
ATOM      3  C   UNL     1      -2.871   1.928  -1.256  0.00  0.00    +0.276 A 
ATOM      4  O   UNL     1      -4.072   1.732  -1.200  0.00  0.00    -0.266 OA
ATOM      5  N   UNL     1      -2.347   2.663  -2.257  0.00  0.00    -0.263 N 
ATOM      6  C   UNL     1      -1.024   2.886  -2.329  0.00  0.00    +0.333 A 
ATOM      7  O   UNL     1      -0.585   3.553  -3.246  0.00  0.00    -0.246 OA
ATOM      8  N   UNL     1      -0.174   2.394  -1.411  0.00  0.00    -0.284 N 
ATOM      9  C   UNL     1       1.260   2.669  -1.528  0.00  0.00    +0.155 C 
ATOM     10  C   UNL     1      -3.232   3.227  -3.279  0.00  0.00    +0.157 C 
ENDROOT
BRANCH   1  11
ATOM     11  N   UNL     1       0.231   1.132   0.556  0.00  0.00    -0.322 N 
ATOM     12  H   UNL     1       0.645   1.618   1.452  0.00  0.00    +0.148 HD
BRANCH  11  14
ATOM     13  C   UNL     1       1.829  -0.246  -0.686  0.00  0.00    +0.033 C 
ATOM     14  C   UNL     1       0.605  -0.251   0.232  0.00  0.00    +0.106 C 
BRANCH  14  15
ATOM     15  C   UNL     1       0.933  -0.994   1.501  0.00  0.00    +0.011 A 
ATOM     16  C   UNL     1       0.627  -2.268   1.847  0.00  0.00    +0.014 A 
ATOM     17  C   UNL     1       1.035  -2.745   3.079  0.00  0.00    +0.028 A 
ATOM     18  C   UNL     1       1.730  -1.922   3.905  0.00  0.00    +0.078 A 
ATOM     19  S   UNL     1       1.831  -0.426   2.936  0.00  0.00    -0.080 S 
ATOM     20 CL   UNL     1       2.363  -2.244   5.489  0.00  0.00    -0.076 Cl
ENDBRANCH  14  15
ENDBRANCH  11  14
ENDBRANCH   1  11
BRANCH   2  21
ATOM     21  C   UNL     1      -2.531   0.600   0.810  0.00  0.00    +0.108 C 
ATOM     22  N   UNL     1      -2.945  -0.023   1.665  0.00  0.00    -0.191 NA
ENDBRANCH   2  21
TORSDOF 4
