REMARK  Name = ZINC04732747
REMARK  4 active torsions:
REMARK  status: ('A' for Active; 'I' for Inactive)
REMARK    1  A    between atoms: C_1  and  C_2
REMARK    2  A    between atoms: C_4  and  N_9
REMARK    3  A    between atoms: N_9  and  S_10
REMARK    4  A    between atoms: S_10  and  C_13
REMARK                            x       y       z     vdW  Elec       q    Type
REMARK                         _______ _______ _______ _____ _____    ______ ____
ROOT
ATOM      1  C   UNL     1       2.235  -0.449  -1.348  0.00  0.00    +0.111 A 
ATOM      2  C   UNL     1       1.399   0.651  -1.441  0.00  0.00    +0.031 A 
ATOM      3  C   UNL     1       1.808   1.780  -2.119  0.00  0.00    +0.030 A 
ATOM      4  C   UNL     1       3.065   1.818  -2.713  0.00  0.00    +0.066 A 
ATOM      5  C   UNL     1       3.908   0.710  -2.619  0.00  0.00    +0.068 A 
ATOM      6  C   UNL     1       3.484  -0.423  -1.933  0.00  0.00    +0.056 A 
ATOM      7  N   UNL     1       5.170   0.729  -3.206  0.00  0.00    -0.316 N 
ATOM      8  H   UNL     1       5.749  -0.046  -3.135  0.00  0.00    +0.169 HD
ATOM      9  C   UNL     1       5.589   1.824  -3.873  0.00  0.00    +0.314 A 
ATOM     10  O   UNL     1       6.690   1.845  -4.388  0.00  0.00    -0.262 OA
ATOM     11  C   UNL     1       4.688   3.008  -3.974  0.00  0.00    +0.314 A 
ATOM     12  O   UNL     1       5.047   4.003  -4.570  0.00  0.00    -0.262 OA
ATOM     13  N   UNL     1       3.471   2.962  -3.395  0.00  0.00    -0.316 N 
ATOM     14  H   UNL     1       2.877   3.727  -3.454  0.00  0.00    +0.169 HD
ENDROOT
BRANCH   1  15
ATOM     15  S   UNL     1       1.703  -1.886  -0.480  0.00  0.00    +0.072 S 
ATOM     16  O   UNL     1       2.873  -2.505   0.037  0.00  0.00    -0.150 OA
ATOM     17  O   UNL     1       0.624  -1.482   0.352  0.00  0.00    -0.150 OA
BRANCH  15  18
ATOM     18  N   UNL     1       1.071  -2.929  -1.600  0.00  0.00    -0.216 N 
ATOM     19  H   UNL     1       1.484  -3.795  -1.743  0.00  0.00    +0.174 HD
BRANCH  18  23
ATOM     20  C   UNL     1      -0.898  -1.414  -5.841  0.00  0.00    +0.045 C 
ATOM     21  C   UNL     1      -1.041  -1.823  -4.397  0.00  0.00    -0.035 A 
ATOM     22  C   UNL     1       0.076  -2.185  -3.669  0.00  0.00    +0.029 A 
ATOM     23  C   UNL     1      -0.057  -2.562  -2.339  0.00  0.00    +0.048 A 
ATOM     24  C   UNL     1      -1.313  -2.578  -1.746  0.00  0.00    +0.025 A 
ATOM     25  C   UNL     1      -2.425  -2.210  -2.478  0.00  0.00    +0.017 A 
ATOM     26  C   UNL     1      -2.290  -1.835  -3.803  0.00  0.00    +0.021 A 
ATOM     27 BR   UNL     1      -3.816  -1.338  -4.803  0.00  0.00    -0.050 Br
ENDBRANCH  18  23
ENDBRANCH  15  18
ENDBRANCH   1  15
TORSDOF 3
