REMARK  Name = ZINC66234745
REMARK  11 active torsions:
REMARK  status: ('A' for Active; 'I' for Inactive)
REMARK    1  A    between atoms: C_1  and  N_2
REMARK    2  A    between atoms: C_6  and  C_7
REMARK    3  A    between atoms: C_7  and  C_8
REMARK    4  A    between atoms: C_7  and  C_23
REMARK    5  A    between atoms: C_7  and  O_27
REMARK    6  A    between atoms: C_8  and  C_9
REMARK    7  A    between atoms: C_9  and  N_10
REMARK    8  A    between atoms: N_13  and  C_14
REMARK    9  A    between atoms: C_14  and  C_15
REMARK   10  A    between atoms: C_15  and  C_16
REMARK   11  A    between atoms: C_20  and  O_22
REMARK                            x       y       z     vdW  Elec       q    Type
REMARK                         _______ _______ _______ _____ _____    ______ ____
ROOT
ATOM      1  N   UNL     1       0.393  -2.817   5.348  0.00  0.00    -0.299 N 
ATOM      2  C   UNL     1       0.212  -2.923   6.680  0.00  0.00    +0.300 C 
ATOM      3  O   UNL     1      -0.174  -1.964   7.319  0.00  0.00    -0.253 OA
ATOM      4  N   UNL     1       0.461  -4.092   7.303  0.00  0.00    -0.299 N 
ATOM      5  H   UNL     1       0.701  -3.582   4.838  0.00  0.00    +0.150 HD
ATOM      6  H   UNL     1       0.769  -4.857   6.793  0.00  0.00    +0.150 HD
ENDROOT
BRANCH   1   7
ATOM      7  C   UNL     1       0.123  -1.546   4.672  0.00  0.00    +0.109 C 
BRANCH   7   8
ATOM      8  C   UNL     1       0.405  -1.695   3.175  0.00  0.00    +0.071 C 
BRANCH   8   9
ATOM      9  C   UNL     1       0.254  -0.335   2.490  0.00  0.00    +0.220 C 
BRANCH   9  15
ATOM     10  C   UNL     1       1.322   1.911   0.642  0.00  0.00    +0.150 C 
ATOM     11  N   UNL     1       1.069   0.525   0.240  0.00  0.00    -0.335 N 
ATOM     12  C   UNL     1       1.266  -0.008  -1.005  0.00  0.00    +0.106 A 
ATOM     13  C   UNL     1       0.910  -1.305  -0.934  0.00  0.00    +0.130 A 
ATOM     14  N   UNL     1       0.508  -1.557   0.320  0.00  0.00    -0.237 NA
ATOM     15  C   UNL     1       0.605  -0.467   1.030  0.00  0.00    +0.150 A 
ENDBRANCH   9  15
BRANCH   9  16
ATOM     16  C   UNL     1      -1.192   0.146   2.626  0.00  0.00    +0.425 C 
ATOM     17  F   UNL     1      -2.059  -0.845   2.156  0.00  0.00    -0.167 F 
ATOM     18  F   UNL     1      -1.471   0.412   3.970  0.00  0.00    -0.167 F 
ATOM     19  F   UNL     1      -1.367   1.313   1.874  0.00  0.00    -0.167 F 
ENDBRANCH   9  16
BRANCH   9  20
ATOM     20  O   UNL     1       1.131   0.610   3.107  0.00  0.00    -0.373 OA
ATOM     21  H   UNL     1       2.066   0.368   3.059  0.00  0.00    +0.211 HD
ENDBRANCH   9  20
ENDBRANCH   8   9
ENDBRANCH   7   8
ENDBRANCH   1   7
BRANCH   4  22
ATOM     22  C   UNL     1       0.264  -4.207   8.750  0.00  0.00    +0.110 C 
BRANCH  22  23
ATOM     23  C   UNL     1       0.614  -5.627   9.200  0.00  0.00    +0.054 C 
BRANCH  23  24
ATOM     24  C   UNL     1       0.413  -5.745  10.689  0.00  0.00    -0.042 A 
ATOM     25  C   UNL     1       1.454  -5.457  11.553  0.00  0.00    +0.004 A 
ATOM     26  C   UNL     1       1.272  -5.565  12.919  0.00  0.00    +0.004 A 
ATOM     27  C   UNL     1       0.049  -5.962  13.425  0.00  0.00    +0.045 A 
ATOM     28  C   UNL     1      -0.997  -6.252  12.561  0.00  0.00    +0.117 A 
ATOM     29  C   UNL     1      -0.814  -6.137  11.190  0.00  0.00    +0.049 A 
BRANCH  28  30
ATOM     30  O   UNL     1      -2.201  -6.642  13.056  0.00  0.00    -0.507 OA
ATOM     31  H   UNL     1      -2.809  -5.911  13.232  0.00  0.00    +0.292 HD
ENDBRANCH  28  30
ENDBRANCH  23  24
ENDBRANCH  22  23
ENDBRANCH   4  22
TORSDOF 10
