REMARK  Name = ZINC34931356
REMARK  6 active torsions:
REMARK  status: ('A' for Active; 'I' for Inactive)
REMARK    1  A    between atoms: C_1  and  C_2
REMARK    2  A    between atoms: C_5  and  C_8
REMARK    3  A    between atoms: C_8  and  C_9
REMARK    4  A    between atoms: C_10  and  C_27
REMARK    5  A    between atoms: C_22  and  C_26
REMARK    6  A    between atoms: C_30  and  O_33
REMARK                            x       y       z     vdW  Elec       q    Type
REMARK                         _______ _______ _______ _____ _____    ______ ____
ROOT
ATOM      1  C   UNL     1       0.117  -5.099   1.200  0.00  0.00    +0.077 C 
ATOM      2  C   UNL     1       0.106  -4.576   2.618  0.00  0.00    +0.152 C 
ATOM      3  N   UNL     1       0.214  -5.752   3.489  0.00  0.00    -0.232 N 
ATOM      4  C   UNL     1       0.281  -6.843   2.705  0.00  0.00    +0.293 C 
ATOM      5  O   UNL     1       0.377  -7.986   3.107  0.00  0.00    -0.266 OA
ATOM      6  C   UNL     1       0.216  -6.448   1.283  0.00  0.00    +0.250 C 
ATOM      7  O   UNL     1       0.253  -7.297   0.231  0.00  0.00    -0.282 OA
ATOM      8  C   UNL     1       0.243  -5.741   4.872  0.00  0.00    +0.169 A 
ATOM      9  N   UNL     1       0.176  -4.715   5.689  0.00  0.00    -0.224 NA
ATOM     10  C   UNL     1       0.215  -4.852   7.032  0.00  0.00    +0.080 A 
ATOM     11  C   UNL     1       0.153  -3.838   8.015  0.00  0.00    +0.029 A 
ATOM     12  C   UNL     1       0.207  -4.151   9.348  0.00  0.00    +0.005 A 
ATOM     13  C   UNL     1       0.324  -5.465   9.780  0.00  0.00    -0.049 A 
ATOM     14  C   UNL     1       0.387  -6.482   8.846  0.00  0.00    +0.020 A 
ATOM     15  C   UNL     1       0.333  -6.178   7.508  0.00  0.00    +0.041 A 
ATOM     16  S   UNL     1       0.372  -7.119   6.002  0.00  0.00    -0.052 S 
ATOM     17  C   UNL     1       0.382  -5.779  11.253  0.00  0.00    +0.044 C 
ENDROOT
BRANCH   2  18
ATOM     18  C   UNL     1      -1.183  -3.846   2.891  0.00  0.00    -0.022 A 
ATOM     19  C   UNL     1      -2.317  -4.555   3.242  0.00  0.00    +0.009 A 
ATOM     20  C   UNL     1      -3.501  -3.888   3.492  0.00  0.00    +0.046 A 
ATOM     21  C   UNL     1      -3.551  -2.505   3.392  0.00  0.00    +0.117 A 
ATOM     22  C   UNL     1      -2.412  -1.796   3.040  0.00  0.00    +0.046 A 
ATOM     23  C   UNL     1      -1.229  -2.467   2.796  0.00  0.00    +0.009 A 
BRANCH  21  24
ATOM     24  O   UNL     1      -4.714  -1.846   3.637  0.00  0.00    -0.507 OA
ATOM     25  H   UNL     1      -4.831  -1.586   4.561  0.00  0.00    +0.292 HD
ENDBRANCH  21  24
ENDBRANCH   2  18
BRANCH   1  26
ATOM     26  C   UNL     1       0.030  -4.303  -0.026  0.00  0.00    +0.195 C 
ATOM     27  O   UNL     1      -0.954  -4.387  -0.738  0.00  0.00    -0.287 OA
BRANCH  26  32
ATOM     28  C   UNL     1       4.339  -0.775  -1.479  0.00  0.00    +0.044 C 
ATOM     29  C   UNL     1       3.211  -1.699  -1.098  0.00  0.00    -0.050 A 
ATOM     30  C   UNL     1       2.131  -1.854  -1.950  0.00  0.00    +0.004 A 
ATOM     31  C   UNL     1       1.095  -2.698  -1.608  0.00  0.00    +0.012 A 
ATOM     32  C   UNL     1       1.137  -3.397  -0.400  0.00  0.00    +0.022 A 
ATOM     33  C   UNL     1       2.230  -3.236   0.455  0.00  0.00    +0.012 A 
ATOM     34  C   UNL     1       3.261  -2.393   0.098  0.00  0.00    +0.004 A 
ENDBRANCH  26  32
ENDBRANCH   1  26
TORSDOF 4
