REMARK  Name = ZINC33936467
REMARK  11 active torsions:
REMARK  status: ('A' for Active; 'I' for Inactive)
REMARK    1  A    between atoms: C_1  and  C_2
REMARK    2  A    between atoms: C_2  and  C_3
REMARK    3  A    between atoms: C_3  and  O_4
REMARK    4  A    between atoms: O_4  and  C_5
REMARK    5  A    between atoms: C_5  and  C_7
REMARK    6  A    between atoms: C_8  and  C_34
REMARK    7  A    between atoms: C_12  and  C_14
REMARK    8  A    between atoms: C_24  and  C_30
REMARK    9  A    between atoms: C_26  and  C_29
REMARK   10  A    between atoms: C_30  and  O_32
REMARK   11  A    between atoms: O_32  and  C_33
REMARK                            x       y       z     vdW  Elec       q    Type
REMARK                         _______ _______ _______ _____ _____    ______ ____
ROOT
ATOM      1  C   UNL     1       1.527  -3.943  -2.330  0.00  0.00    +0.065 C 
ATOM      2  C   UNL     1       1.907  -4.521  -3.483  0.00  0.00    +0.016 C 
ATOM      3  N   UNL     1       1.828  -5.877  -3.637  0.00  0.00    -0.321 N 
ATOM      4  C   UNL     1       1.022  -6.626  -2.822  0.00  0.00    +0.016 C 
ATOM      5  C   UNL     1       0.598  -6.135  -1.638  0.00  0.00    +0.025 C 
ATOM      6  C   UNL     1       1.021  -4.761  -1.179  0.00  0.00    +0.096 C 
ATOM      7  C   UNL     1      -0.243  -6.888  -0.800  0.00  0.00    +0.176 C 
ATOM      8  O   UNL     1      -0.600  -6.420   0.263  0.00  0.00    -0.291 OA
ATOM      9  C   UNL     1      -0.710  -8.262  -1.196  0.00  0.00    +0.171 C 
ATOM     10  C   UNL     1      -0.761  -8.351  -2.724  0.00  0.00    +0.013 C 
ATOM     11  C   UNL     1       0.623  -8.008  -3.278  0.00  0.00    +0.055 C 
ATOM     12  C   UNL     1      -1.149  -9.771  -3.143  0.00  0.00    +0.009 C 
ATOM     13  C   UNL     1       2.422  -3.668  -4.614  0.00  0.00    +0.061 C 
ATOM     14  H   UNL     1       2.349  -6.313  -4.330  0.00  0.00    +0.152 HD
ENDROOT
BRANCH   6  15
ATOM     15  C   UNL     1       2.113  -4.892  -0.148  0.00  0.00    +0.018 A 
ATOM     16  C   UNL     1       3.318  -5.484  -0.487  0.00  0.00    +0.129 A 
ATOM     17  C   UNL     1       4.320  -5.604   0.461  0.00  0.00    +0.039 A 
ATOM     18  C   UNL     1       4.117  -5.134   1.744  0.00  0.00    +0.004 A 
ATOM     19  C   UNL     1       2.914  -4.543   2.083  0.00  0.00    +0.020 A 
ATOM     20  C   UNL     1       1.914  -4.417   1.135  0.00  0.00    +0.048 A 
ATOM     21 CL   UNL     1       0.406  -3.668   1.559  0.00  0.00    -0.083 Cl
ATOM     22  F   UNL     1       3.515  -5.945  -1.742  0.00  0.00    -0.205 F 
ENDBRANCH   6  15
BRANCH   1  23
ATOM     23  C   UNL     1       1.611  -2.537  -2.199  0.00  0.00    +0.338 C 
ATOM     24  O   UNL     1       0.600  -1.861  -2.233  0.00  0.00    -0.245 OA
BRANCH  23  25
ATOM     25  O   UNL     1       2.813  -1.946  -2.035  0.00  0.00    -0.461 OA
BRANCH  25  26
ATOM     26  C   UNL     1       2.824  -0.522  -1.909  0.00  0.00    +0.232 C 
BRANCH  26  28
ATOM     27  C   UNL     1       4.275   1.487  -1.597  0.00  0.00    +0.007 C 
ATOM     28  C   UNL     1       4.264  -0.037  -1.732  0.00  0.00    +0.038 C 
ENDBRANCH  26  28
ENDBRANCH  25  26
ENDBRANCH  23  25
ENDBRANCH   1  23
BRANCH   9  29
ATOM     29  C   UNL     1      -2.084  -8.511  -0.627  0.00  0.00    +0.318 C 
ATOM     30  O   UNL     1      -3.010  -8.744  -1.367  0.00  0.00    -0.250 OA
BRANCH  29  31
ATOM     31  O   UNL     1      -2.278  -8.473   0.700  0.00  0.00    -0.467 OA
ATOM     32  C   UNL     1      -3.606  -8.718   1.169  0.00  0.00    +0.280 C 
ENDBRANCH  29  31
ENDBRANCH   9  29
TORSDOF 7
