REMARK  Name = ZINC12602908
REMARK  8 active torsions:
REMARK  status: ('A' for Active; 'I' for Inactive)
REMARK    1  A    between atoms: C_1  and  O_2
REMARK    2  A    between atoms: O_2  and  C_3
REMARK    3  A    between atoms: C_3  and  C_5
REMARK    4  A    between atoms: C_21  and  C_31
REMARK    5  A    between atoms: C_24  and  N_27
REMARK    6  A    between atoms: N_27  and  C_28
REMARK    7  A    between atoms: C_28  and  C_29
REMARK    8  A    between atoms: C_34  and  C_37
REMARK                            x       y       z     vdW  Elec       q    Type
REMARK                         _______ _______ _______ _____ _____    ______ ____
ROOT
ATOM      1  C   UNL     1       0.002  -0.004   0.002  0.00  0.00    +0.049 C 
ATOM      2  C   UNL     1      -0.415   1.470  -0.097  0.00  0.00    +0.033 C 
ATOM      3  C   UNL     1       0.830   2.299  -0.289  0.00  0.00    -0.022 A 
ATOM      4  C   UNL     1       0.960   3.668  -0.735  0.00  0.00    +0.003 A 
ATOM      5  C   UNL     1       0.025   4.635  -1.119  0.00  0.00    +0.010 A 
ATOM      6  C   UNL     1       0.517   5.860  -1.494  0.00  0.00    +0.001 A 
ATOM      7  C   UNL     1       1.874   6.140  -1.496  0.00  0.00    +0.002 A 
ATOM      8  C   UNL     1       2.821   5.203  -1.121  0.00  0.00    +0.026 A 
ATOM      9  C   UNL     1       2.351   3.949  -0.735  0.00  0.00    +0.047 A 
ATOM     10  N   UNL     1       2.995   2.819  -0.317  0.00  0.00    -0.359 N 
ATOM     11  H   UNL     1       4.092   2.809  -0.238  0.00  0.00    +0.166 HD
ATOM     12  C   UNL     1       2.080   1.836  -0.056  0.00  0.00    +0.007 A 
ATOM     13  C   UNL     1       2.356   0.432   0.422  0.00  0.00    -0.017 C 
ATOM     14  N   UNL     1       1.109  -0.137   0.955  0.00  0.00    +0.399 N 
ATOM     15  C   UNL     1       1.304  -1.530   1.372  0.00  0.00    -0.034 C 
ATOM     16  C   UNL     1       2.336  -1.591   2.491  0.00  0.00    +0.008 C 
ATOM     17  C   UNL     1       3.657  -0.989   2.005  0.00  0.00    +0.052 C 
ATOM     18  C   UNL     1       3.414   0.446   1.526  0.00  0.00    +0.009 C 
ATOM     19  H   UNL     1       0.830   0.442   1.848  0.00  0.00    -0.079 HD
ENDROOT
BRANCH  15  20
ATOM     20  C   UNL     1      -0.004  -2.097   1.860  0.00  0.00    -0.061 A 
ATOM     21  C   UNL     1      -0.849  -1.321   2.631  0.00  0.00    +0.002 A 
ATOM     22  C   UNL     1      -2.051  -1.839   3.074  0.00  0.00    +0.012 A 
ATOM     23  C   UNL     1      -2.404  -3.137   2.756  0.00  0.00    +0.055 A 
ATOM     24  C   UNL     1      -1.556  -3.915   1.990  0.00  0.00    +0.012 A 
ATOM     25  C   UNL     1      -0.357  -3.395   1.542  0.00  0.00    +0.002 A 
BRANCH  23  26
ATOM     26  C   UNL     1      -3.712  -3.704   3.244  0.00  0.00    +0.417 C 
ATOM     27  F   UNL     1      -3.522  -4.309   4.490  0.00  0.00    -0.166 F 
ATOM     28  F   UNL     1      -4.651  -2.673   3.364  0.00  0.00    -0.166 F 
ATOM     29  F   UNL     1      -4.179  -4.655   2.329  0.00  0.00    -0.166 F 
ENDBRANCH  23  26
ENDBRANCH  15  20
BRANCH   1  30
ATOM     30  C   UNL     1       0.444  -0.493  -1.353  0.00  0.00    +0.294 C 
ATOM     31  O   UNL     1       1.485  -1.097  -1.468  0.00  0.00    -0.253 OA
BRANCH  30  33
ATOM     32  C   UNL     1       0.171  -0.758  -3.706  0.00  0.00    +0.280 C 
ATOM     33  O   UNL     1      -0.318  -0.258  -2.433  0.00  0.00    -0.469 OA
ENDBRANCH  30  33
ENDBRANCH   1  30
BRANCH  17  34
ATOM     34  N   UNL     1       4.183  -1.794   0.894  0.00  0.00    -0.310 NA
ATOM     35  H   UNL     1       3.346  -2.176   0.290  0.00  0.00    +0.122 HD
BRANCH  34  36
ATOM     36  C   UNL     1       4.963  -2.934   1.393  0.00  0.00    +0.108 C 
BRANCH  36  37
ATOM     37  C   UNL     1       5.485  -3.734   0.227  0.00  0.00    -0.019 C 
ATOM     38  C   UNL     1       6.768  -3.974   0.120  0.00  0.00    +0.005 C 
ENDBRANCH  36  37
ENDBRANCH  34  36
ENDBRANCH  17  34
TORSDOF 7
