REMARK  Name = ZINC66982075
REMARK  10 active torsions:
REMARK  status: ('A' for Active; 'I' for Inactive)
REMARK    1  A    between atoms: C_1  and  C_2
REMARK    2  A    between atoms: C_2  and  C_4
REMARK    3  A    between atoms: C_2  and  N_7
REMARK    4  A    between atoms: C_4  and  C_5
REMARK    5  A    between atoms: C_4  and  C_6
REMARK    6  A    between atoms: C_8  and  C_10
REMARK    7  A    between atoms: N_12  and  C_13
REMARK    8  A    between atoms: C_16  and  O_19
REMARK    9  A    between atoms: O_19  and  C_20
REMARK   10  A    between atoms: C_24  and  C_26
REMARK                            x       y       z     vdW  Elec       q    Type
REMARK                         _______ _______ _______ _____ _____    ______ ____
ROOT
ATOM      1  C   UNL     1      -5.776  -1.220  -2.287  0.00  0.00    +0.034 A 
ATOM      2  C   UNL     1      -6.489  -1.407  -3.465  0.00  0.00    +0.027 A 
ATOM      3  C   UNL     1      -7.619  -2.200  -3.469  0.00  0.00    +0.048 A 
ATOM      4  C   UNL     1      -8.044  -2.809  -2.296  0.00  0.00    +0.129 A 
ATOM      5  C   UNL     1      -7.333  -2.621  -1.119  0.00  0.00    +0.048 A 
ATOM      6  C   UNL     1      -6.199  -1.834  -1.115  0.00  0.00    +0.027 A 
ENDROOT
BRANCH   1   9
ATOM      7  C   UNL     1      -3.659  -0.635  -1.375  0.00  0.00    +0.303 C 
ATOM      8  O   UNL     1      -3.838  -1.427  -0.472  0.00  0.00    -0.265 OA
ATOM      9  N   UNL     1      -4.631  -0.417  -2.282  0.00  0.00    -0.278 N 
ATOM     10  H   UNL     1      -4.536   0.296  -2.933  0.00  0.00    +0.155 HD
BRANCH   7  12
ATOM     11  N   UNL     1      -1.389  -0.122  -0.572  0.00  0.00    -0.305 N 
ATOM     12  C   UNL     1      -2.361   0.096  -1.479  0.00  0.00    +0.300 C 
ATOM     13  O   UNL     1      -2.182   0.887  -2.382  0.00  0.00    -0.265 OA
ATOM     14  H   UNL     1      -1.533  -0.754   0.150  0.00  0.00    +0.149 HD
BRANCH  11  16
ATOM     15  C   UNL     1      -0.243   1.960   0.007  0.00  0.00    +0.028 C 
ATOM     16  C   UNL     1      -0.116   0.595  -0.674  0.00  0.00    +0.073 C 
BRANCH  16  17
ATOM     17  C   UNL     1       0.984  -0.217   0.012  0.00  0.00    +0.003 C 
ATOM     18  C   UNL     1       1.111  -1.581  -0.669  0.00  0.00    +0.009 C 
ATOM     19  C   UNL     1       2.313   0.533  -0.096  0.00  0.00    +0.009 C 
ENDBRANCH  16  17
ENDBRANCH  11  16
ENDBRANCH   7  12
ENDBRANCH   1   9
BRANCH   4  20
ATOM     20  O   UNL     1      -9.157  -3.589  -2.301  0.00  0.00    -0.456 OA
BRANCH  20  21
ATOM     21  C   UNL     1      -9.715  -3.897  -3.501  0.00  0.00    +0.130 A 
ATOM     22  C   UNL     1     -10.863  -3.237  -3.922  0.00  0.00    +0.046 A 
ATOM     23  C   UNL     1     -11.436  -3.546  -5.142  0.00  0.00    +0.005 A 
ATOM     24  C   UNL     1     -10.871  -4.512  -5.949  0.00  0.00    +0.019 A 
ATOM     25  C   UNL     1      -9.717  -5.180  -5.535  0.00  0.00    +0.055 A 
ATOM     26  C   UNL     1      -9.137  -4.863  -4.306  0.00  0.00    +0.065 A 
BRANCH  25  27
ATOM     27  C   UNL     1      -9.128  -6.183  -6.370  0.00  0.00    +0.099 C 
ATOM     28  N   UNL     1      -8.661  -6.979  -7.033  0.00  0.00    -0.191 NA
ENDBRANCH  25  27
ENDBRANCH  20  21
ENDBRANCH   4  20
TORSDOF 7
