REMARK  Name = ZINC02797511
REMARK  6 active torsions:
REMARK  status: ('A' for Active; 'I' for Inactive)
REMARK    1  A    between atoms: C_1  and  C_2
REMARK    2  A    between atoms: C_3  and  C_24
REMARK    3  A    between atoms: C_5  and  C_22
REMARK    4  A    between atoms: C_7  and  C_10
REMARK    5  A    between atoms: N_12  and  N_13
REMARK    6  A    between atoms: C_14  and  C_16
REMARK                            x       y       z     vdW  Elec       q    Type
REMARK                         _______ _______ _______ _____ _____    ______ ____
ROOT
ATOM      1  C   UNL     1       0.168   5.751  -0.063  0.00  0.00    +0.233 C 
ATOM      2  O   UNL     1       0.999   6.179   0.711  0.00  0.00    -0.274 OA
ATOM      3  N   UNL     1      -0.697   6.597  -0.658  0.00  0.00    -0.234 N 
ATOM      4  H   UNL     1      -1.361   6.255  -1.277  0.00  0.00    +0.173 HD
ENDROOT
BRANCH   1  10
ATOM      5  C   UNL     1      -2.577   1.510  -0.000  0.00  0.00    +0.039 C 
ATOM      6  C   UNL     1      -1.251   2.226   0.015  0.00  0.00    -0.073 C 
ATOM      7  C   UNL     1      -0.173   1.510  -0.007  0.00  0.00    -0.073 C 
ATOM      8  C   UNL     1       1.215   2.079  -0.013  0.00  0.00    +0.046 C 
ATOM      9  C   UNL     1       1.187   3.541   0.440  0.00  0.00    +0.118 C 
ATOM     10  C   UNL     1       0.103   4.275  -0.359  0.00  0.00    +0.095 C 
ATOM     11  C   UNL     1      -1.263   3.726   0.060  0.00  0.00    +0.044 C 
ATOM     12  C   UNL     1      -0.322   0.010  -0.036  0.00  0.00    +0.039 C 
BRANCH   9  13
ATOM     13  C   UNL     1       2.528   4.178   0.179  0.00  0.00    +0.360 C 
ATOM     14  O   UNL     1       2.609   5.135  -0.554  0.00  0.00    -0.246 OA
ATOM     15  O   UNL     1       3.631   3.682   0.761  0.00  0.00    -0.246 OA
ENDBRANCH   9  13
ENDBRANCH   1  10
BRANCH   3  16
ATOM     16  N   UNL     1      -0.636   7.969  -0.383  0.00  0.00    -0.228 N 
ATOM     17  C   UNL     1      -1.501   8.815  -0.978  0.00  0.00    +0.295 C 
ATOM     18  O   UNL     1      -2.334   8.386  -1.754  0.00  0.00    -0.265 OA
ATOM     19  H   UNL     1       0.028   8.311   0.236  0.00  0.00    +0.173 HD
BRANCH  17  20
ATOM     20  C   UNL     1      -1.437  10.250  -0.690  0.00  0.00    +0.192 A 
ATOM     21  C   UNL     1      -2.249  11.212  -1.221  0.00  0.00    +0.056 A 
ATOM     22  C   UNL     1      -1.838  12.436  -0.672  0.00  0.00    +0.058 A 
ATOM     23  C   UNL     1      -0.805  12.172   0.161  0.00  0.00    +0.171 A 
ATOM     24  O   UNL     1      -0.570  10.853   0.151  0.00  0.00    -0.444 OA
ATOM     25 BR   UNL     1       0.146  13.452   1.177  0.00  0.00    -0.008 Br
ENDBRANCH  17  20
ENDBRANCH   3  16
TORSDOF 4
