REMARK  Name = ZINC67246400
REMARK  9 active torsions:
REMARK  status: ('A' for Active; 'I' for Inactive)
REMARK    1  A    between atoms: C_1  and  C_2
REMARK    2  A    between atoms: C_5  and  C_29
REMARK    3  A    between atoms: C_6  and  N_8
REMARK    4  A    between atoms: C_9  and  C_11
REMARK    5  A    between atoms: C_11  and  N_12
REMARK    6  A    between atoms: C_16  and  C_28
REMARK    7  A    between atoms: N_19  and  C_20
REMARK    8  A    between atoms: C_22  and  C_27
REMARK    9  A    between atoms: C_24  and  C_26
REMARK                            x       y       z     vdW  Elec       q    Type
REMARK                         _______ _______ _______ _____ _____    ______ ____
ROOT
ATOM      1  N   UNL     1       0.376  -2.079   6.094  0.00  0.00    -0.272 N 
ATOM      2  C   UNL     1       1.579  -1.755   6.616  0.00  0.00    +0.256 A 
ATOM      3  O   UNL     1       2.610  -2.107   6.067  0.00  0.00    -0.268 OA
ATOM      4  C   UNL     1       1.620  -1.004   7.804  0.00  0.00    +0.093 A 
ATOM      5  C   UNL     1       0.445  -0.628   8.387  0.00  0.00    +0.047 A 
ATOM      6  N   UNL     1      -0.716  -0.972   7.834  0.00  0.00    -0.221 NA
ATOM      7  C   UNL     1      -0.762  -1.672   6.718  0.00  0.00    +0.203 A 
ATOM      8  N   UNL     1      -1.979  -2.000   6.180  0.00  0.00    -0.285 N 
ATOM      9  C   UNL     1       0.462   0.177   9.661  0.00  0.00    +0.066 C 
ATOM     10  H   UNL     1      -2.026  -2.582   5.405  0.00  0.00    +0.155 HD
ENDROOT
BRANCH   8  11
ATOM     11  C   UNL     1      -3.154  -1.496   6.747  0.00  0.00    +0.034 A 
ATOM     12  C   UNL     1      -3.165  -0.228   7.313  0.00  0.00    +0.026 A 
ATOM     13  C   UNL     1      -4.327   0.267   7.873  0.00  0.00    -0.048 A 
ATOM     14  C   UNL     1      -5.478  -0.499   7.870  0.00  0.00    +0.006 A 
ATOM     15  C   UNL     1      -5.470  -1.762   7.308  0.00  0.00    -0.048 A 
ATOM     16  C   UNL     1      -4.314  -2.260   6.742  0.00  0.00    +0.026 A 
ATOM     17  C   UNL     1      -6.727  -2.593   7.308  0.00  0.00    +0.044 C 
ATOM     18  C   UNL     1      -4.339   1.643   8.487  0.00  0.00    +0.044 C 
ENDBRANCH   8  11
BRANCH   1  19
ATOM     19  C   UNL     1       0.298  -2.861   4.858  0.00  0.00    +0.224 C 
BRANCH  19  21
ATOM     20  N   UNL     1       0.215  -2.427   2.424  0.00  0.00    -0.284 N 
ATOM     21  C   UNL     1       0.284  -1.928   3.674  0.00  0.00    +0.237 C 
ATOM     22  O   UNL     1       0.334  -0.729   3.846  0.00  0.00    -0.274 OA
ATOM     23  H   UNL     1       0.097  -3.380   2.288  0.00  0.00    +0.155 HD
BRANCH  20  29
ATOM     24  C   UNL     1       1.573   1.907   0.543  0.00  0.00    +0.044 C 
ATOM     25  C   UNL     1       0.968   0.536   0.382  0.00  0.00    -0.049 A 
ATOM     26  C   UNL     1       0.510   0.124  -0.856  0.00  0.00    +0.004 A 
ATOM     27  C   UNL     1      -0.045  -1.133  -1.008  0.00  0.00    +0.005 A 
ATOM     28  C   UNL     1      -0.144  -1.981   0.078  0.00  0.00    -0.029 A 
ATOM     29  C   UNL     1       0.315  -1.570   1.322  0.00  0.00    +0.037 A 
ATOM     30  C   UNL     1       0.877  -0.309   1.470  0.00  0.00    +0.027 A 
ATOM     31  C   UNL     1      -0.750  -3.351  -0.088  0.00  0.00    +0.045 C 
ENDBRANCH  20  29
ENDBRANCH  19  21
ENDBRANCH   1  19
TORSDOF 4
