REMARK  Name = ZINC08869783
REMARK  10 active torsions:
REMARK  status: ('A' for Active; 'I' for Inactive)
REMARK    1  A    between atoms: C_1  and  C_2
REMARK    2  A    between atoms: C_2  and  C_3
REMARK    3  A    between atoms: C_2  and  C_4
REMARK    4  A    between atoms: C_2  and  C_5
REMARK    5  A    between atoms: C_8  and  C_11
REMARK    6  A    between atoms: C_11  and  N_12
REMARK    7  A    between atoms: N_12  and  C_13
REMARK    8  A    between atoms: C_21  and  C_23
REMARK    9  A    between atoms: C_23  and  O_24
REMARK   10  A    between atoms: O_24  and  C_25
REMARK                            x       y       z     vdW  Elec       q    Type
REMARK                         _______ _______ _______ _____ _____    ______ ____
ROOT
ATOM      1  N   UNL     1      -1.763  -0.911  -1.358  0.00  0.00    -0.290 N 
ATOM      2  C   UNL     1      -2.424   0.009  -2.088  0.00  0.00    +0.254 C 
ATOM      3  O   UNL     1      -2.857   1.009  -1.556  0.00  0.00    -0.272 OA
ENDROOT
BRANCH   1   4
ATOM      4  C   UNL     1      -1.337  -2.169  -1.977  0.00  0.00    +0.099 C 
ATOM      5  C   UNL     1      -0.472  -2.960  -0.981  0.00  0.00    +0.047 C 
ATOM      6  C   UNL     1      -0.297  -4.404  -1.532  0.00  0.00    +0.168 C 
ATOM      7  S   UNL     1      -1.996  -4.729  -2.167  0.00  0.00    -0.029 S 
ATOM      8  O   UNL     1      -2.757  -5.361  -1.147  0.00  0.00    -0.174 OA
ATOM      9  O   UNL     1      -1.903  -5.337  -3.448  0.00  0.00    -0.174 OA
ATOM     10  C   UNL     1      -2.584  -2.998  -2.366  0.00  0.00    +0.188 C 
ENDBRANCH   1   4
BRANCH   1  11
ATOM     11  C   UNL     1      -1.471  -0.653   0.054  0.00  0.00    +0.143 C 
BRANCH  11  15
ATOM     12  C   UNL     1       2.118   1.643   0.369  0.00  0.00    -0.042 A 
ATOM     13  C   UNL     1       0.911   2.275   0.134  0.00  0.00    +0.004 A 
ATOM     14  C   UNL     1      -0.250   1.532   0.031  0.00  0.00    +0.005 A 
ATOM     15  C   UNL     1      -0.205   0.157   0.165  0.00  0.00    -0.030 A 
ATOM     16  C   UNL     1       1.002  -0.475   0.402  0.00  0.00    +0.005 A 
ATOM     17  C   UNL     1       2.163   0.268   0.504  0.00  0.00    +0.004 A 
BRANCH  12  19
ATOM     18  C   UNL     1       4.371   2.007  -0.601  0.00  0.00    +0.015 C 
ATOM     19  C   UNL     1       3.384   2.453   0.480  0.00  0.00    -0.013 C 
ATOM     20  C   UNL     1       3.058   3.936   0.293  0.00  0.00    +0.015 C 
ATOM     21  C   UNL     1       4.008   2.237   1.860  0.00  0.00    +0.015 C 
ENDBRANCH  12  19
ENDBRANCH  11  15
ENDBRANCH   1  11
BRANCH   2  22
ATOM     22  C   UNL     1      -2.624  -0.204  -3.567  0.00  0.00    +0.324 C 
BRANCH  22  23
ATOM     23  O   UNL     1      -3.224   0.960  -4.139  0.00  0.00    -0.483 OA
BRANCH  23  24
ATOM     24  C   UNL     1      -3.474   0.932  -5.475  0.00  0.00    +0.121 A 
ATOM     25  C   UNL     1      -3.143  -0.191  -6.220  0.00  0.00    +0.047 A 
ATOM     26  C   UNL     1      -3.404  -0.220  -7.576  0.00  0.00    +0.019 A 
ATOM     27  C   UNL     1      -3.984   0.875  -8.194  0.00  0.00    +0.018 A 
ATOM     28  C   UNL     1      -4.308   1.997  -7.453  0.00  0.00    +0.019 A 
ATOM     29  C   UNL     1      -4.055   2.028  -6.096  0.00  0.00    +0.047 A 
ATOM     30 BR   UNL     1      -4.333   0.835 -10.052  0.00  0.00    -0.050 Br
ENDBRANCH  23  24
ENDBRANCH  22  23
ENDBRANCH   2  22
TORSDOF 7
