REMARK  Name = ZINC03364274
REMARK  7 active torsions:
REMARK  status: ('A' for Active; 'I' for Inactive)
REMARK    1  A    between atoms: C_1  and  C_2
REMARK    2  A    between atoms: C_7  and  O_8
REMARK    3  A    between atoms: O_8  and  C_9
REMARK    4  A    between atoms: C_9  and  C_10
REMARK    5  A    between atoms: N_12  and  N_13
REMARK    6  A    between atoms: C_14  and  C_16
REMARK    7  A    between atoms: C_19  and  O_22
REMARK                            x       y       z     vdW  Elec       q    Type
REMARK                         _______ _______ _______ _____ _____    ______ ____
ROOT
ATOM      1  C   UNL     1       3.627  -4.870  -0.058  0.00  0.00    +0.267 C 
ATOM      2  O   UNL     1       4.667  -4.246  -0.065  0.00  0.00    -0.271 OA
ATOM      3  N   UNL     1       2.449  -4.215  -0.043  0.00  0.00    -0.231 N 
ATOM      4  H   UNL     1       1.617  -4.714  -0.037  0.00  0.00    +0.173 HD
ENDROOT
BRANCH   3   5
ATOM      5  N   UNL     1       2.425  -2.814  -0.036  0.00  0.00    -0.230 N 
ATOM      6  C   UNL     1       1.247  -2.160  -0.021  0.00  0.00    +0.260 C 
ATOM      7  O   UNL     1       0.204  -2.785  -0.014  0.00  0.00    -0.269 OA
ATOM      8  H   UNL     1       3.257  -2.315  -0.041  0.00  0.00    +0.173 HD
BRANCH   6   9
ATOM      9  C   UNL     1       1.223  -0.684  -0.013  0.00  0.00    +0.038 A 
ATOM     10  C   UNL     1       0.002  -0.004   0.002  0.00  0.00    +0.016 A 
ATOM     11  C   UNL     1      -0.017   1.373   0.010  0.00  0.00    +0.046 A 
ATOM     12  C   UNL     1       1.177   2.086   0.002  0.00  0.00    +0.117 A 
ATOM     13  C   UNL     1       2.393   1.413  -0.013  0.00  0.00    +0.046 A 
ATOM     14  C   UNL     1       2.420   0.036  -0.021  0.00  0.00    +0.016 A 
BRANCH  12  15
ATOM     15  O   UNL     1       1.154   3.443   0.009  0.00  0.00    -0.507 OA
ATOM     16  H   UNL     1       1.156   3.832   0.894  0.00  0.00    +0.292 HD
ENDBRANCH  12  15
ENDBRANCH   6   9
ENDBRANCH   3   5
BRANCH   1  17
ATOM     17  C   UNL     1       3.652  -6.376  -0.066  0.00  0.00    +0.326 C 
BRANCH  17  18
ATOM     18  O   UNL     1       5.007  -6.830  -0.081  0.00  0.00    -0.482 OA
BRANCH  18  25
ATOM     19  C   UNL     1       7.678  -7.747  -0.124  0.00  0.00    +0.047 C 
ATOM     20  C   UNL     1       6.497  -8.684  -0.111  0.00  0.00    -0.007 A 
ATOM     21  C   UNL     1       6.699 -10.051  -0.114  0.00  0.00    +0.027 A 
ATOM     22  C   UNL     1       5.615 -10.911  -0.108  0.00  0.00    +0.041 A 
ATOM     23  C   UNL     1       4.328 -10.404  -0.093  0.00  0.00    +0.023 A 
ATOM     24  C   UNL     1       4.122  -9.039  -0.084  0.00  0.00    +0.047 A 
ATOM     25  C   UNL     1       5.207  -8.174  -0.090  0.00  0.00    +0.124 A 
ATOM     26 CL   UNL     1       5.872 -12.628  -0.120  0.00  0.00    -0.084 Cl
ENDBRANCH  18  25
ENDBRANCH  17  18
ENDBRANCH   1  17
TORSDOF 6
