REMARK  Name = ZINC50566342
REMARK  3 active torsions:
REMARK  status: ('A' for Active; 'I' for Inactive)
REMARK    1  A    between atoms: C_1  and  C_2
REMARK    2  A    between atoms: C_8  and  C_10
REMARK    3  A    between atoms: N_15  and  C_16
REMARK                            x       y       z     vdW  Elec       q    Type
REMARK                         _______ _______ _______ _____ _____    ______ ____
ROOT
ATOM      1  C   UNL     1       1.913   1.676   0.965  0.00  0.00    +0.009 C 
ATOM      2  C   UNL     1       1.049   0.428   0.775  0.00  0.00    +0.006 C 
ATOM      3  C   UNL     1       0.918   0.121  -0.719  0.00  0.00    +0.006 C 
ATOM      4  C   UNL     1       0.026  -1.108  -0.912  0.00  0.00    +0.019 C 
ATOM      5  C   UNL     1       0.673  -2.316  -0.225  0.00  0.00    +0.108 C 
ATOM      6  N   UNL     1       0.936  -1.976   1.180  0.00  0.00    -0.297 N 
ATOM      7  C   UNL     1       1.707  -0.762   1.481  0.00  0.00    +0.076 C 
ATOM      8  C   UNL     1       1.715  -0.520   2.992  0.00  0.00    +0.028 C 
ATOM      9  C   UNL     1       0.465  -2.785   2.203  0.00  0.00    +0.218 A 
ATOM     10  N   UNL     1      -0.004  -2.371   3.344  0.00  0.00    -0.137 NA
ATOM     11  N   UNL     1      -0.373  -3.495   4.096  0.00  0.00    -0.253 N 
ATOM     12  C   UNL     1      -0.101  -4.585   3.350  0.00  0.00    +0.177 A 
ATOM     13  N   UNL     1       0.411  -4.159   2.178  0.00  0.00    -0.288 N 
ATOM     14  S   UNL     1      -0.364  -6.215   3.806  0.00  0.00    -0.011 S 
ATOM     15  H   UNL     1      -0.753  -3.489   4.988  0.00  0.00    +0.191 HD
ENDROOT
BRANCH  13  16
ATOM     16  C   UNL     1       0.839  -5.014   1.068  0.00  0.00    +0.092 C 
ATOM     17  C   UNL     1      -0.366  -5.782   0.521  0.00  0.00    +0.025 C 
ATOM     18  C   UNL     1       0.082  -6.674  -0.639  0.00  0.00    +0.002 C 
ATOM     19  C   UNL     1       1.135  -7.666  -0.141  0.00  0.00    +0.000 C 
ATOM     20  C   UNL     1       2.340  -6.899   0.406  0.00  0.00    +0.002 C 
ATOM     21  C   UNL     1       1.893  -6.006   1.565  0.00  0.00    +0.025 C 
ENDBRANCH  13  16
TORSDOF 1
