REMARK  Name = ZINC60414728
REMARK  9 active torsions:
REMARK  status: ('A' for Active; 'I' for Inactive)
REMARK    1  A    between atoms: C_1  and  N_2
REMARK    2  A    between atoms: N_2  and  S_3
REMARK    3  A    between atoms: S_3  and  C_6
REMARK    4  A    between atoms: C_9  and  C_12
REMARK    5  A    between atoms: C_12  and  C_13
REMARK    6  A    between atoms: C_13  and  C_14
REMARK    7  A    between atoms: N_16  and  N_17
REMARK    8  A    between atoms: N_20  and  C_21
REMARK    9  A    between atoms: C_21  and  C_22
REMARK                            x       y       z     vdW  Elec       q    Type
REMARK                         _______ _______ _______ _____ _____    ______ ____
ROOT
ATOM      1  C   UNL     1      -4.106   1.617  -7.310  0.00  0.00    +0.229 C 
ATOM      2  O   UNL     1      -5.185   1.113  -7.543  0.00  0.00    -0.274 OA
ATOM      3  N   UNL     1      -3.541   2.446  -8.210  0.00  0.00    -0.233 N 
ATOM      4  H   UNL     1      -2.678   2.848  -8.023  0.00  0.00    +0.173 HD
ENDROOT
BRANCH   3   5
ATOM      5  N   UNL     1      -4.198   2.726  -9.415  0.00  0.00    -0.218 N 
ATOM      6  C   UNL     1      -3.632   3.554 -10.314  0.00  0.00    +0.316 C 
ATOM      7  O   UNL     1      -4.203   3.797 -11.360  0.00  0.00    -0.251 OA
ATOM      8  N   UNL     1      -2.434   4.114 -10.055  0.00  0.00    -0.290 N 
ATOM      9  H   UNL     1      -5.061   2.323  -9.601  0.00  0.00    +0.174 HD
ATOM     10  H   UNL     1      -1.979   3.920  -9.221  0.00  0.00    +0.151 HD
BRANCH   8  11
ATOM     11  C   UNL     1      -1.819   5.015 -11.033  0.00  0.00    +0.219 C 
BRANCH  11  12
ATOM     12  C   UNL     1      -0.474   5.508 -10.497  0.00  0.00    +0.405 C 
ATOM     13  F   UNL     1       0.370   4.413 -10.276  0.00  0.00    -0.169 F 
ATOM     14  F   UNL     1       0.114   6.368 -11.431  0.00  0.00    -0.169 F 
ATOM     15  F   UNL     1      -0.674   6.192  -9.293  0.00  0.00    -0.169 F 
ENDBRANCH  11  12
ENDBRANCH   8  11
ENDBRANCH   3   5
BRANCH   1  16
ATOM     16  C   UNL     1      -3.399   1.316  -6.014  0.00  0.00    +0.102 C 
BRANCH  16  17
ATOM     17  C   UNL     1      -4.250   0.356  -5.179  0.00  0.00    +0.044 C 
BRANCH  17  21
ATOM     18  C   UNL     1      -2.247  -0.499  -1.505  0.00  0.00    +0.105 A 
ATOM     19  C   UNL     1      -3.117   0.572  -1.585  0.00  0.00    +0.029 A 
ATOM     20  C   UNL     1      -3.765   0.849  -2.774  0.00  0.00    +0.005 A 
ATOM     21  C   UNL     1      -3.543   0.055  -3.883  0.00  0.00    -0.047 A 
ATOM     22  C   UNL     1      -2.672  -1.016  -3.804  0.00  0.00    +0.005 A 
ATOM     23  C   UNL     1      -2.021  -1.290  -2.616  0.00  0.00    +0.029 A 
BRANCH  18  24
ATOM     24  S   UNL     1      -1.421  -0.852   0.011  0.00  0.00    +0.058 S 
ATOM     25  O   UNL     1      -1.073  -2.229  -0.027  0.00  0.00    -0.153 OA
ATOM     26  O   UNL     1      -2.218  -0.295   1.047  0.00  0.00    -0.153 OA
BRANCH  24  28
ATOM     27  C   UNL     1      -0.018   1.461   0.010  0.00  0.00    +0.127 C 
ATOM     28  N   UNL     1       0.002  -0.004   0.002  0.00  0.00    -0.193 NA
ATOM     29  H   UNL     1       0.849  -0.478  -0.009  0.00  0.00    +0.148 HD
ENDBRANCH  24  28
ENDBRANCH  18  24
ENDBRANCH  17  21
ENDBRANCH  16  17
ENDBRANCH   1  16
TORSDOF 8
