REMARK  Name = ZINC38555406
REMARK  8 active torsions:
REMARK  status: ('A' for Active; 'I' for Inactive)
REMARK    1  A    between atoms: C_1  and  C_2
REMARK    2  A    between atoms: C_2  and  O_3
REMARK    3  A    between atoms: O_3  and  C_4
REMARK    4  A    between atoms: C_4  and  C_6
REMARK    5  A    between atoms: C_7  and  N_31
REMARK    6  A    between atoms: C_12  and  O_29
REMARK    7  A    between atoms: C_21  and  C_23
REMARK    8  A    between atoms: O_29  and  C_30
REMARK                            x       y       z     vdW  Elec       q    Type
REMARK                         _______ _______ _______ _____ _____    ______ ____
ROOT
ATOM      1  C   UNL     1       1.463  -2.349   2.423  0.00  0.00    +0.102 C 
ATOM      2  C   UNL     1       1.476  -3.693   2.588  0.00  0.00    +0.194 C 
ATOM      3  O   UNL     1       2.088  -4.277   3.644  0.00  0.00    -0.445 OA
ATOM      4  C   UNL     1       2.839  -3.485   4.413  0.00  0.00    +0.129 C 
ATOM      5  C   UNL     1       4.064  -3.869   4.937  0.00  0.00    +0.039 A 
ATOM      6  C   UNL     1       4.588  -5.159   4.704  0.00  0.00    +0.058 A 
ATOM      7  C   UNL     1       5.792  -5.504   5.245  0.00  0.00    +0.121 A 
ATOM      8  C   UNL     1       6.520  -4.604   6.025  0.00  0.00    +0.047 A 
ATOM      9  C   UNL     1       6.066  -3.345   6.277  0.00  0.00    +0.027 A 
ATOM     10  C   UNL     1       4.834  -2.921   5.751  0.00  0.00    +0.044 A 
ATOM     11  N   UNL     1       4.394  -1.680   5.994  0.00  0.00    -0.284 N 
ATOM     12  C   UNL     1       3.244  -1.208   5.558  0.00  0.00    +0.229 C 
ATOM     13  O   UNL     1       2.916  -0.065   5.817  0.00  0.00    -0.275 OA
ATOM     14  C   UNL     1       2.331  -2.090   4.734  0.00  0.00    +0.154 C 
ATOM     15  C   UNL     1       2.143  -1.405   3.375  0.00  0.00    +0.080 C 
ATOM     16  H   UNL     1       4.957  -1.092   6.523  0.00  0.00    +0.155 HD
ENDROOT
BRANCH  15  17
ATOM     17  C   UNL     1       3.485  -1.010   2.817  0.00  0.00    -0.038 A 
ATOM     18  C   UNL     1       4.439  -1.977   2.561  0.00  0.00    +0.004 A 
ATOM     19  C   UNL     1       5.671  -1.615   2.049  0.00  0.00    +0.000 A 
ATOM     20  C   UNL     1       5.949  -0.285   1.792  0.00  0.00    +0.000 A 
ATOM     21  C   UNL     1       4.995   0.682   2.048  0.00  0.00    +0.000 A 
ATOM     22  C   UNL     1       3.761   0.320   2.556  0.00  0.00    +0.004 A 
ENDBRANCH  15  17
BRANCH   2  23
ATOM     23  N   UNL     1       0.852  -4.483   1.660  0.00  0.00    -0.329 N 
ATOM     24  H   UNL     1       0.476  -4.086   0.859  0.00  0.00    +0.145 HD
ATOM     25  H   UNL     1       0.786  -5.441   1.803  0.00  0.00    +0.145 HD
ENDBRANCH   2  23
BRANCH   1  26
ATOM     26  C   UNL     1       0.791  -1.815   1.311  0.00  0.00    +0.341 C 
ATOM     27  O   UNL     1      -0.322  -1.338   1.444  0.00  0.00    -0.245 OA
BRANCH  26  28
ATOM     28  O   UNL     1       1.379  -1.831   0.095  0.00  0.00    -0.462 OA
BRANCH  28  30
ATOM     29  C   UNL     1       1.459  -1.377  -2.277  0.00  0.00    +0.048 C 
ATOM     30  C   UNL     1       0.638  -1.270  -0.991  0.00  0.00    +0.229 C 
ENDBRANCH  28  30
ENDBRANCH  26  28
ENDBRANCH   1  26
BRANCH   7  31
ATOM     31  O   UNL     1       6.292  -6.749   5.021  0.00  0.00    -0.495 OA
ATOM     32  C   UNL     1       7.556  -7.056   5.612  0.00  0.00    +0.277 C 
ENDBRANCH   7  31
TORSDOF 6
