REMARK  Name = ZINC60349956
REMARK  8 active torsions:
REMARK  status: ('A' for Active; 'I' for Inactive)
REMARK    1  A    between atoms: C_1  and  C_2
REMARK    2  A    between atoms: C_5  and  C_9
REMARK    3  A    between atoms: C_9  and  N_10
REMARK    4  A    between atoms: C_11  and  C_13
REMARK    5  A    between atoms: C_13  and  N_14
REMARK    6  A    between atoms: C_17  and  C_21
REMARK    7  A    between atoms: C_17  and  C_22
REMARK    8  A    between atoms: C_25  and  C_27
REMARK                            x       y       z     vdW  Elec       q    Type
REMARK                         _______ _______ _______ _____ _____    ______ ____
ROOT
ATOM      1  N   UNL     1       3.156  -8.018  -0.065  0.00  0.00    -0.215 N 
ATOM      2  C   UNL     1       3.166  -8.782   1.044  0.00  0.00    +0.254 C 
ATOM      3  O   UNL     1       3.161  -8.402   2.196  0.00  0.00    -0.272 OA
ATOM      4  C   UNL     1       3.183 -10.216   0.554  0.00  0.00    +0.168 C 
ATOM      5  N   UNL     1       3.181 -10.081  -0.913  0.00  0.00    -0.279 N 
ATOM      6  C   UNL     1       3.159  -8.762  -1.177  0.00  0.00    +0.310 C 
ATOM      7  O   UNL     1       3.148  -8.298  -2.301  0.00  0.00    -0.252 OA
ATOM      8  C   UNL     1       4.451 -10.932   1.026  0.00  0.00    +0.050 C 
ATOM      9  H   UNL     1       3.190 -10.802  -1.562  0.00  0.00    +0.152 HD
ENDROOT
BRANCH   4  10
ATOM     10  C   UNL     1       1.953 -10.951   1.020  0.00  0.00    +0.137 A 
ATOM     11  C   UNL     1       1.353 -11.969   0.377  0.00  0.00    +0.047 A 
ATOM     12  C   UNL     1       0.244 -12.354   1.164  0.00  0.00    +0.045 A 
ATOM     13  C   UNL     1       0.233 -11.550   2.242  0.00  0.00    +0.102 A 
ATOM     14  O   UNL     1       1.274 -10.706   2.152  0.00  0.00    -0.462 OA
ATOM     15  C   UNL     1      -0.774 -11.592   3.362  0.00  0.00    +0.086 C 
ENDBRANCH   4  10
BRANCH   1  16
ATOM     16  C   UNL     1       3.137  -6.553  -0.055  0.00  0.00    +0.213 C 
BRANCH  16  18
ATOM     17  N   UNL     1       1.446  -4.747  -0.034  0.00  0.00    -0.310 N 
ATOM     18  C   UNL     1       1.710  -6.069  -0.045  0.00  0.00    +0.231 C 
ATOM     19  O   UNL     1       0.798  -6.869  -0.045  0.00  0.00    -0.274 OA
ATOM     20  H   UNL     1       2.175  -4.107  -0.034  0.00  0.00    +0.149 HD
BRANCH  17  21
ATOM     21  C   UNL     1       0.059  -4.277  -0.024  0.00  0.00    +0.139 C 
BRANCH  21  26
ATOM     22  C   UNL     1      -0.018   1.503   0.010  0.00  0.00    +0.047 C 
ATOM     23  C   UNL     1       0.002  -0.004   0.002  0.00  0.00    -0.015 A 
ATOM     24  C   UNL     1       0.006  -0.689  -1.199  0.00  0.00    +0.006 A 
ATOM     25  C   UNL     1       0.025  -2.071  -1.206  0.00  0.00    +0.005 A 
ATOM     26  C   UNL     1       0.040  -2.770  -0.014  0.00  0.00    -0.028 A 
ATOM     27  C   UNL     1       0.036  -2.088   1.188  0.00  0.00    +0.043 A 
ATOM     28  C   UNL     1       0.023  -0.703   1.197  0.00  0.00    +0.127 A 
ATOM     29  F   UNL     1       0.025  -0.035   2.371  0.00  0.00    -0.205 F 
ENDBRANCH  21  26
ENDBRANCH  17  21
ENDBRANCH  16  18
ENDBRANCH   1  16
TORSDOF 5
