REMARK  Name = ZINC66956645
REMARK  3 active torsions:
REMARK  status: ('A' for Active; 'I' for Inactive)
REMARK    1  A    between atoms: C_3  and  N_16
REMARK    2  A    between atoms: C_6  and  C_7
REMARK    3  A    between atoms: N_19  and  C_20
REMARK                            x       y       z     vdW  Elec       q    Type
REMARK                         _______ _______ _______ _____ _____    ______ ____
ROOT
ATOM      1  C   UNL     1      -0.021   1.415  -0.078  0.00  0.00    +0.013 A 
ATOM      2  C   UNL     1       1.168   2.111  -0.069  0.00  0.00    +0.024 A 
ATOM      3  C   UNL     1       2.377   1.425  -0.031  0.00  0.00    +0.035 A 
ATOM      4  C   UNL     1       2.389   0.035  -0.003  0.00  0.00    +0.024 A 
ATOM      5  C   UNL     1       1.204  -0.667  -0.012  0.00  0.00    +0.013 A 
ATOM      6  C   UNL     1      -0.011   0.019  -0.050  0.00  0.00    +0.019 A 
ENDROOT
BRANCH   6   7
ATOM      7  C   UNL     1      -1.286  -0.731  -0.060  0.00  0.00    +0.164 A 
ATOM      8  N   UNL     1      -2.469  -0.267  -0.408  0.00  0.00    -0.129 NA
ATOM      9  N   UNL     1      -3.353  -1.197  -0.296  0.00  0.00    -0.134 NA
ATOM     10  C   UNL     1      -2.793  -2.292   0.122  0.00  0.00    +0.134 A 
ATOM     11  N   UNL     1      -1.463  -2.036   0.282  0.00  0.00    -0.311 N 
ATOM     12  C   UNL     1      -0.473  -3.010   0.739  0.00  0.00    +0.125 C 
ATOM     13  C   UNL     1      -1.207  -4.186   1.394  0.00  0.00    +0.022 C 
ATOM     14  C   UNL     1      -2.314  -4.685   0.461  0.00  0.00    +0.009 C 
ATOM     15  C   UNL     1      -3.431  -3.631   0.394  0.00  0.00    +0.076 C 
ENDBRANCH   6   7
BRANCH   3  16
ATOM     16  N   UNL     1       3.581   2.134  -0.022  0.00  0.00    -0.269 N 
ATOM     17  C   UNL     1       4.631   1.670   0.685  0.00  0.00    +0.304 C 
ATOM     18  O   UNL     1       4.557   0.595   1.247  0.00  0.00    -0.253 OA
ATOM     19  N   UNL     1       5.761   2.399   0.769  0.00  0.00    -0.296 N 
ATOM     20  H   UNL     1       3.662   2.959  -0.525  0.00  0.00    +0.156 HD
ATOM     21  H   UNL     1       5.820   3.257   0.320  0.00  0.00    +0.151 HD
BRANCH  19  22
ATOM     22  C   UNL     1       6.902   1.895   1.537  0.00  0.00    +0.076 C 
ATOM     23  C   UNL     1       6.707   2.240   3.011  0.00  0.00    +0.033 C 
ATOM     24  C   UNL     1       7.727   1.481   3.864  0.00  0.00    +0.071 C 
ATOM     25  S   UNL     1       9.398   2.019   3.390  0.00  0.00    -0.161 S 
ATOM     26  C   UNL     1       9.403   1.800   1.585  0.00  0.00    +0.071 C 
ATOM     27  C   UNL     1       8.185   2.521   1.000  0.00  0.00    +0.033 C 
ENDBRANCH  19  22
ENDBRANCH   3  16
TORSDOF 3
