REMARK  Name = ZINC29787723
REMARK  10 active torsions:
REMARK  status: ('A' for Active; 'I' for Inactive)
REMARK    1  A    between atoms: C_1  and  C_2
REMARK    2  A    between atoms: C_2  and  C_24
REMARK    3  A    between atoms: C_4  and  N_10
REMARK    4  A    between atoms: C_6  and  C_8
REMARK    5  A    between atoms: C_6  and  C_9
REMARK    6  A    between atoms: C_11  and  C_13
REMARK    7  A    between atoms: C_13  and  N_14
REMARK    8  A    between atoms: N_14  and  C_15
REMARK    9  A    between atoms: N_14  and  S_16
REMARK   10  A    between atoms: S_16  and  C_19
REMARK                            x       y       z     vdW  Elec       q    Type
REMARK                         _______ _______ _______ _____ _____    ______ ____
ROOT
ATOM      1  N   UNL     1       1.294  -1.218  -3.782  0.00  0.00    -0.311 N 
ATOM      2  C   UNL     1       1.714  -0.163  -3.057  0.00  0.00    +0.229 C 
ATOM      3  O   UNL     1       1.042   0.846  -3.007  0.00  0.00    -0.274 OA
ATOM      4  H   UNL     1       1.903  -2.132  -3.827  0.00  0.00    +0.149 HD
ENDROOT
BRANCH   1   8
ATOM      5  C   UNL     1      -1.329  -0.807  -7.295  0.00  0.00    -0.010 C 
ATOM      6  C   UNL     1      -1.261  -2.086  -6.452  0.00  0.00    -0.072 C 
ATOM      7  C   UNL     1       0.060  -2.123  -5.687  0.00  0.00    +0.009 C 
ATOM      8  C   UNL     1       0.021  -1.147  -4.511  0.00  0.00    +0.070 C 
ATOM      9  C   UNL     1      -1.118  -1.557  -3.577  0.00  0.00    +0.009 C 
ATOM     10  C   UNL     1      -2.453  -1.515  -4.316  0.00  0.00    -0.072 C 
ATOM     11  N   UNL     1      -2.417  -2.206  -5.588  0.00  0.00    +0.386 N 
ATOM     12  C   UNL     1      -2.897  -0.057  -4.489  0.00  0.00    -0.010 C 
ATOM     13  C   UNL     1      -3.502  -2.209  -3.420  0.00  0.00    -0.010 C 
ATOM     14  C   UNL     1      -1.265  -3.281  -7.431  0.00  0.00    -0.010 C 
ATOM     15  H   UNL     1      -3.308  -1.833  -6.115  0.00  0.00    -0.084 HD
ATOM     16  H   UNL     1      -2.566  -3.262  -5.318  0.00  0.00    -0.084 HD
ENDBRANCH   1   8
BRANCH   2  17
ATOM     17  C   UNL     1       3.021  -0.235  -2.309  0.00  0.00    +0.204 C 
BRANCH  17  18
ATOM     18  N   UNL     1       3.251   1.029  -1.605  0.00  0.00    -0.170 NA
ATOM     19  C   UNL     1       3.876   2.154  -2.305  0.00  0.00    +0.132 C 
BRANCH  18  20
ATOM     20  S   UNL     1       2.805   1.186  -0.018  0.00  0.00    +0.067 S 
ATOM     21  O   UNL     1       3.612   2.219   0.531  0.00  0.00    -0.152 OA
ATOM     22  O   UNL     1       2.773  -0.126   0.527  0.00  0.00    -0.152 OA
BRANCH  20  23
ATOM     23  C   UNL     1       1.146   1.780   0.001  0.00  0.00    +0.143 A 
ATOM     24  C   UNL     1      -0.013   1.076   0.008  0.00  0.00    +0.036 A 
ATOM     25  C   UNL     1      -1.213   1.761   0.017  0.00  0.00    +0.010 A 
ATOM     26  C   UNL     1      -1.196   3.116   0.030  0.00  0.00    +0.047 A 
ATOM     27  S   UNL     1       0.555   3.464   0.015  0.00  0.00    -0.077 S 
ENDBRANCH  20  23
ENDBRANCH  18  20
ENDBRANCH  17  18
ENDBRANCH   2  17
TORSDOF 5
