REMARK  Name = ZINC09993366
REMARK  5 active torsions:
REMARK  status: ('A' for Active; 'I' for Inactive)
REMARK    1  A    between atoms: C_7  and  N_12
REMARK    2  A    between atoms: C_13  and  C_15
REMARK    3  A    between atoms: C_15  and  S_16
REMARK    4  A    between atoms: S_16  and  C_17
REMARK    5  A    between atoms: C_20  and  C_22
REMARK                            x       y       z     vdW  Elec       q    Type
REMARK                         _______ _______ _______ _____ _____    ______ ____
ROOT
ATOM      1  C   UNL     1       1.624  -6.937  -0.056  0.00  0.00    +0.174 C 
ENDROOT
BRANCH   1   3
ATOM      2  N   UNL     1       1.497  -9.408  -0.071  0.00  0.00    -0.308 N 
ATOM      3  C   UNL     1       2.266  -8.301  -0.072  0.00  0.00    +0.224 C 
ATOM      4  O   UNL     1       3.474  -8.402  -0.084  0.00  0.00    -0.275 OA
ATOM      5  H   UNL     1       0.530  -9.326  -0.061  0.00  0.00    +0.149 HD
BRANCH   2  12
ATOM      6  C   UNL     1       3.372 -10.199  -3.580  0.00  0.00    +0.000 A 
ATOM      7  C   UNL     1       3.327 -11.466  -4.133  0.00  0.00    +0.001 A 
ATOM      8  C   UNL     1       2.874 -12.522  -3.373  0.00  0.00    +0.015 A 
ATOM      9  C   UNL     1       2.464 -12.323  -2.055  0.00  0.00    +0.013 A 
ATOM     10  C   UNL     1       2.517 -11.060  -1.496  0.00  0.00    -0.014 A 
ATOM     11  C   UNL     1       2.971 -10.000  -2.277  0.00  0.00    +0.006 A 
ATOM     12  C   UNL     1       2.120 -10.733  -0.086  0.00  0.00    +0.105 C 
ATOM     13  C   UNL     1       1.153 -11.731   0.525  0.00  0.00    +0.038 C 
ATOM     14  C   UNL     1       1.817 -13.116   0.562  0.00  0.00    +0.076 C 
ATOM     15  S   UNL     1       1.883 -13.723  -1.149  0.00  0.00    -0.125 S 
ENDBRANCH   2  12
ENDBRANCH   1   3
BRANCH   1  16
ATOM     16  S   UNL     1       2.911  -5.665  -0.060  0.00  0.00    -0.056 S 
BRANCH  16  17
ATOM     17  C   UNL     1       1.909  -4.216  -0.041  0.00  0.00    +0.278 A 
ATOM     18  N   UNL     1       0.597  -4.179  -0.029  0.00  0.00    -0.101 NA
ATOM     19  N   UNL     1       0.203  -2.954  -0.017  0.00  0.00    -0.106 NA
ATOM     20  C   UNL     1       1.246  -2.161  -0.022  0.00  0.00    +0.249 A 
ATOM     21  O   UNL     1       2.348  -2.942  -0.042  0.00  0.00    -0.411 OA
BRANCH  20  22
ATOM     22  C   UNL     1       1.222  -0.684  -0.013  0.00  0.00    +0.042 A 
ATOM     23  C   UNL     1       2.418   0.036  -0.021  0.00  0.00    +0.017 A 
ATOM     24  C   UNL     1       2.393   1.415  -0.013  0.00  0.00    +0.050 A 
ATOM     25  C   UNL     1       1.181   2.091   0.002  0.00  0.00    +0.166 A 
ATOM     26  C   UNL     1      -0.017   1.378   0.010  0.00  0.00    +0.167 A 
ATOM     27  C   UNL     1       0.002  -0.004   0.002  0.00  0.00    +0.062 A 
ATOM     28  O   UNL     1      -1.053   2.267   0.030  0.00  0.00    -0.453 OA
ATOM     29  C   UNL     1      -0.478   3.521   0.439  0.00  0.00    +0.466 C 
ATOM     30  O   UNL     1       0.894   3.426   0.012  0.00  0.00    -0.453 OA
ENDBRANCH  20  22
ENDBRANCH  16  17
ENDBRANCH   1  16
TORSDOF 5
