REMARK  Name = ZINC35003499
REMARK  8 active torsions:
REMARK  status: ('A' for Active; 'I' for Inactive)
REMARK    1  A    between atoms: C_10  and  N_11
REMARK    2  A    between atoms: N_17  and  C_20
REMARK    3  A    between atoms: C_20  and  C_21
REMARK    4  A    between atoms: C_21  and  N_22
REMARK    5  A    between atoms: N_22  and  C_23
REMARK    6  A    between atoms: C_23  and  C_24
REMARK    7  A    between atoms: C_31  and  C_33
REMARK    8  A    between atoms: C_33  and  C_34
REMARK                            x       y       z     vdW  Elec       q    Type
REMARK                         _______ _______ _______ _____ _____    ______ ____
ROOT
ATOM      1  N   UNL     1       4.871   0.098  -0.038  0.00  0.00    -0.269 N 
ATOM      2  C   UNL     1       6.047  -0.555   0.043  0.00  0.00    +0.307 C 
ATOM      3  O   UNL     1       6.069  -1.771   0.033  0.00  0.00    -0.252 OA
ATOM      4  N   UNL     1       7.198   0.139   0.137  0.00  0.00    -0.283 N 
ATOM      5  C   UNL     1       7.189   1.604   0.262  0.00  0.00    +0.124 C 
ATOM      6  C   UNL     1       8.129   2.189  -0.796  0.00  0.00    +0.103 C 
ATOM      7  N   UNL     1       9.453   1.564  -0.670  0.00  0.00    -0.298 NA
ATOM      8  C   UNL     1       9.388   0.120  -0.935  0.00  0.00    +0.103 C 
ATOM      9  C   UNL     1       8.498  -0.550   0.124  0.00  0.00    +0.124 C 
ATOM     10  H   UNL     1       4.856   1.068  -0.062  0.00  0.00    +0.156 HD
ENDROOT
BRANCH   1  20
ATOM     11  C   UNL     1       0.064   1.116   1.119  0.00  0.00    +0.001 A 
ATOM     12  C   UNL     1       1.247   1.851   1.177  0.00  0.00    +0.001 A 
ATOM     13  C   UNL     1       2.432   1.304   0.788  0.00  0.00    +0.010 A 
ATOM     14  C   UNL     1       2.466  -0.020   0.322  0.00  0.00    +0.003 A 
ATOM     15  C   UNL     1       1.264  -0.768   0.263  0.00  0.00    -0.016 A 
ATOM     16  C   UNL     1       0.060  -0.170   0.672  0.00  0.00    +0.008 A 
ATOM     17  C   UNL     1       1.297  -2.093  -0.203  0.00  0.00    +0.008 A 
ATOM     18  C   UNL     1       2.478  -2.648  -0.592  0.00  0.00    +0.002 A 
ATOM     19  C   UNL     1       3.665  -1.923  -0.538  0.00  0.00    +0.024 A 
ATOM     20  C   UNL     1       3.675  -0.621  -0.088  0.00  0.00    +0.042 A 
ENDBRANCH   1  20
BRANCH   7  21
ATOM     21  C   UNL     1      10.430   2.217  -1.551  0.00  0.00    +0.103 C 
BRANCH  21  22
ATOM     22  C   UNL     1      11.835   1.714  -1.215  0.00  0.00    +0.123 C 
BRANCH  22  23
ATOM     23  N   UNL     1      12.810   2.366  -2.093  0.00  0.00    -0.296 N 
ATOM     24  C   UNL     1      13.135   1.803  -3.274  0.00  0.00    +0.221 C 
ATOM     25  O   UNL     1      13.942   2.343  -4.001  0.00  0.00    -0.275 OA
BRANCH  23  26
ATOM     26  C   UNL     1      13.431   3.629  -1.688  0.00  0.00    +0.143 C 
BRANCH  26  27
ATOM     27  C   UNL     1      14.695   3.344  -0.918  0.00  0.00    -0.030 A 
ATOM     28  C   UNL     1      14.646   3.188   0.455  0.00  0.00    +0.008 A 
ATOM     29  C   UNL     1      15.803   2.925   1.163  0.00  0.00    +0.038 A 
ATOM     30  C   UNL     1      17.012   2.818   0.497  0.00  0.00    +0.123 A 
ATOM     31  C   UNL     1      17.060   2.974  -0.878  0.00  0.00    +0.038 A 
ATOM     32  C   UNL     1      15.900   3.232  -1.585  0.00  0.00    +0.008 A 
ATOM     33  F   UNL     1      18.145   2.562   1.188  0.00  0.00    -0.205 F 
ENDBRANCH  26  27
ENDBRANCH  23  26
BRANCH  24  34
ATOM     34  C   UNL     1      12.496   0.504  -3.691  0.00  0.00    +0.138 C 
BRANCH  34  35
ATOM     35  C   UNL     1      13.027   0.093  -5.040  0.00  0.00    -0.001 A 
ATOM     36  C   UNL     1      14.102  -0.677  -5.336  0.00  0.00    +0.011 A 
ATOM     37  C   UNL     1      14.404  -0.926  -6.662  0.00  0.00    +0.008 A 
ATOM     38  C   UNL     1      13.616  -0.393  -7.627  0.00  0.00    +0.045 A 
ATOM     39  S   UNL     1      12.397   0.488  -6.663  0.00  0.00    -0.101 S 
ENDBRANCH  34  35
ENDBRANCH  24  34
ENDBRANCH  22  23
ENDBRANCH  21  22
ENDBRANCH   7  21
TORSDOF 8
