REMARK  Name = ZINC20206814
REMARK  7 active torsions:
REMARK  status: ('A' for Active; 'I' for Inactive)
REMARK    1  A    between atoms: C_1  and  C_2
REMARK    2  A    between atoms: C_2  and  S_3
REMARK    3  A    between atoms: S_3  and  C_6
REMARK    4  A    between atoms: C_14  and  C_15
REMARK    5  A    between atoms: C_18  and  O_21
REMARK    6  A    between atoms: O_21  and  C_22
REMARK    7  A    between atoms: C_22  and  C_24
REMARK                            x       y       z     vdW  Elec       q    Type
REMARK                         _______ _______ _______ _____ _____    ______ ____
ROOT
ATOM      1  C   UNL     1       3.344   1.836   1.332  0.00  0.00    +0.257 C 
ATOM      2  N   UNL     1       3.360   2.965   1.971  0.00  0.00    -0.174 NA
ATOM      3  S   UNL     1       2.982   2.550   3.551  0.00  0.00    +0.049 S 
ATOM      4  C   UNL     1       2.859   0.896   3.374  0.00  0.00    +0.183 C 
ATOM      5  N   UNL     1       2.630  -0.037   4.271  0.00  0.00    -0.152 NA
ATOM      6  C   UNL     1       2.639  -1.330   3.898  0.00  0.00    +0.273 C 
ATOM      7  O   UNL     1       2.301  -2.208   4.676  0.00  0.00    -0.268 OA
ATOM      8  C   UNL     1       3.071  -1.663   2.517  0.00  0.00    +0.079 C 
ATOM      9  C   UNL     1       3.599  -2.893   2.197  0.00  0.00    +0.024 C 
ATOM     10  C   UNL     1       2.898  -0.590   1.496  0.00  0.00    +0.138 C 
ATOM     11  N   UNL     1       2.631  -0.829   0.240  0.00  0.00    -0.284 NA
ATOM     12  N   UNL     1       3.047   0.709   2.021  0.00  0.00    -0.201 N 
ATOM     13  H   UNL     1       2.535  -1.744  -0.069  0.00  0.00    +0.188 HD
ENDROOT
BRANCH   9  14
ATOM     14  C   UNL     1       3.935  -3.845   3.260  0.00  0.00    -0.024 A 
ATOM     15  C   UNL     1       3.724  -5.217   3.067  0.00  0.00    +0.011 A 
ATOM     16  C   UNL     1       4.040  -6.103   4.065  0.00  0.00    +0.047 A 
ATOM     17  C   UNL     1       4.569  -5.642   5.266  0.00  0.00    +0.132 A 
ATOM     18  C   UNL     1       4.781  -4.282   5.463  0.00  0.00    +0.047 A 
ATOM     19  C   UNL     1       4.474  -3.387   4.470  0.00  0.00    +0.011 A 
BRANCH  17  20
ATOM     20  O   UNL     1       4.881  -6.524   6.250  0.00  0.00    -0.422 OA
BRANCH  20  21
ATOM     21  C   UNL     1       5.914  -7.364   6.043  0.00  0.00    +0.344 C 
ATOM     22  O   UNL     1       6.597  -7.252   5.045  0.00  0.00    -0.245 OA
BRANCH  21  23
ATOM     23  C   UNL     1       6.215  -8.421   7.029  0.00  0.00    +0.059 A 
ATOM     24  C   UNL     1       5.427  -8.556   8.175  0.00  0.00    +0.016 A 
ATOM     25  C   UNL     1       5.713  -9.544   9.092  0.00  0.00    +0.021 A 
ATOM     26  C   UNL     1       6.779 -10.403   8.880  0.00  0.00    +0.041 A 
ATOM     27  C   UNL     1       7.564 -10.274   7.745  0.00  0.00    +0.021 A 
ATOM     28  C   UNL     1       7.284  -9.293   6.818  0.00  0.00    +0.016 A 
ATOM     29 CL   UNL     1       7.134 -11.645  10.040  0.00  0.00    -0.084 Cl
ENDBRANCH  21  23
ENDBRANCH  20  21
ENDBRANCH  17  20
ENDBRANCH   9  14
BRANCH   1  30
ATOM     30  S   UNL     1       3.694   1.772  -0.393  0.00  0.00    +0.029 S 
ATOM     31  O   UNL     1       4.345   0.524  -0.585  0.00  0.00    -0.167 OA
ATOM     32  O   UNL     1       4.368   2.992  -0.672  0.00  0.00    -0.167 OA
BRANCH  30  34
ATOM     33  C   UNL     1       2.252   1.705  -2.716  0.00  0.00    +0.028 C 
ATOM     34  C   UNL     1       2.068   1.760  -1.198  0.00  0.00    +0.172 C 
ENDBRANCH  30  34
ENDBRANCH   1  30
TORSDOF 6
