REMARK  Name = ZINC47535019
REMARK  11 active torsions:
REMARK  status: ('A' for Active; 'I' for Inactive)
REMARK    1  A    between atoms: C_1  and  C_2
REMARK    2  A    between atoms: C_2  and  C_4
REMARK    3  A    between atoms: C_2  and  N_16
REMARK    4  A    between atoms: C_17  and  C_19
REMARK    5  A    between atoms: C_20  and  C_21
REMARK    6  A    between atoms: C_23  and  O_31
REMARK    7  A    between atoms: C_24  and  O_29
REMARK    8  A    between atoms: C_25  and  O_27
REMARK    9  A    between atoms: O_27  and  C_28
REMARK   10  A    between atoms: O_29  and  C_30
REMARK   11  A    between atoms: O_31  and  C_32
REMARK                            x       y       z     vdW  Elec       q    Type
REMARK                         _______ _______ _______ _____ _____    ______ ____
ROOT
ATOM      1  N   UNL     1      -1.606   0.061   0.041  0.00  0.00    -0.305 N 
ATOM      2  C   UNL     1      -2.316  -0.082  -1.096  0.00  0.00    +0.237 C 
ATOM      3  O   UNL     1      -1.969   0.499  -2.108  0.00  0.00    -0.271 OA
ATOM      4  H   UNL     1      -1.883  -0.402   0.847  0.00  0.00    +0.150 HD
ENDROOT
BRANCH   1   6
ATOM      5  C   UNL     1      -0.833   2.365   0.310  0.00  0.00    +0.033 C 
ATOM      6  C   UNL     1      -0.416   0.915   0.058  0.00  0.00    +0.100 C 
BRANCH   6   7
ATOM      7  C   UNL     1       0.512   0.461   1.156  0.00  0.00    -0.025 A 
ATOM      8  C   UNL     1      -0.007   0.060   2.375  0.00  0.00    +0.007 A 
ATOM      9  C   UNL     1       0.834  -0.357   3.387  0.00  0.00    +0.028 A 
ATOM     10  C   UNL     1       2.206  -0.375   3.181  0.00  0.00    +0.067 A 
ATOM     11  C   UNL     1       2.729   0.030   1.952  0.00  0.00    +0.067 A 
ATOM     12  C   UNL     1       1.875   0.442   0.940  0.00  0.00    +0.033 A 
ATOM     13  N   UNL     1       4.113  -0.095   2.043  0.00  0.00    -0.306 N 
ATOM     14  H   UNL     1       4.750   0.113   1.341  0.00  0.00    +0.170 HD
ATOM     15  C   UNL     1       4.418  -0.555   3.271  0.00  0.00    +0.325 A 
ATOM     16  O   UNL     1       5.543  -0.775   3.678  0.00  0.00    -0.247 OA
ATOM     17  N   UNL     1       3.288  -0.733   3.982  0.00  0.00    -0.306 N 
ATOM     18  H   UNL     1       3.236  -1.056   4.895  0.00  0.00    +0.170 HD
ENDBRANCH   6   7
ENDBRANCH   1   6
BRANCH   2  19
ATOM     19  C   UNL     1      -3.504  -0.934  -1.113  0.00  0.00    +0.068 C 
ATOM     20  C   UNL     1      -4.137  -1.186  -2.279  0.00  0.00    +0.013 C 
BRANCH  20  21
ATOM     21  C   UNL     1      -3.502  -0.822  -3.554  0.00  0.00    -0.018 A 
ATOM     22  C   UNL     1      -2.160  -1.141  -3.785  0.00  0.00    +0.057 A 
ATOM     23  C   UNL     1      -1.566  -0.797  -4.985  0.00  0.00    +0.166 A 
ATOM     24  C   UNL     1      -2.303  -0.133  -5.963  0.00  0.00    +0.204 A 
ATOM     25  C   UNL     1      -3.639   0.187  -5.736  0.00  0.00    +0.166 A 
ATOM     26  C   UNL     1      -4.241  -0.159  -4.541  0.00  0.00    +0.057 A 
BRANCH  25  27
ATOM     27  O   UNL     1      -4.354   0.836  -6.693  0.00  0.00    -0.491 OA
ATOM     28  C   UNL     1      -5.719   1.134  -6.394  0.00  0.00    +0.277 C 
ENDBRANCH  25  27
BRANCH  24  29
ATOM     29  O   UNL     1      -1.716   0.204  -7.141  0.00  0.00    -0.488 OA
ATOM     30  C   UNL     1      -1.787  -0.755  -8.199  0.00  0.00    +0.277 C 
ENDBRANCH  24  29
BRANCH  23  31
ATOM     31  O   UNL     1      -0.262  -1.107  -5.210  0.00  0.00    -0.491 OA
ATOM     32  C   UNL     1       0.434  -1.789  -4.164  0.00  0.00    +0.277 C 
ENDBRANCH  23  31
ENDBRANCH  20  21
ENDBRANCH   2  19
TORSDOF 7
