REMARK  Name = ZINC57788914
REMARK  1 active torsions:
REMARK  status: ('A' for Active; 'I' for Inactive)
REMARK    1  A    between atoms: C_7  and  C_13
REMARK                            x       y       z     vdW  Elec       q    Type
REMARK                         _______ _______ _______ _____ _____    ______ ____
ROOT
ATOM      1  C   UNL     1      -0.017   1.376   0.010  0.00  0.00    +0.001 A 
ATOM      2  C   UNL     1       1.171   2.085   0.002  0.00  0.00    +0.004 A 
ATOM      3  C   UNL     1       2.374   1.409  -0.013  0.00  0.00    +0.046 A 
ATOM      4  C   UNL     1       2.394   0.019  -0.022  0.00  0.00    +0.126 A 
ATOM      5  C   UNL     1       1.208  -0.690  -0.014  0.00  0.00    +0.016 A 
ATOM      6  C   UNL     1       0.002  -0.004   0.002  0.00  0.00    +0.009 A 
ATOM      7  C   UNL     1       1.171  -2.197  -0.021  0.00  0.00    +0.125 C 
ATOM      8  N   UNL     1       2.345  -2.748  -0.706  0.00  0.00    -0.302 NA
ATOM      9  C   UNL     1       3.438  -2.987   0.251  0.00  0.00    +0.122 C 
ATOM     10  C   UNL     1       3.806  -1.659   0.915  0.00  0.00    +0.244 C 
ATOM     11  O   UNL     1       3.595  -0.614  -0.038  0.00  0.00    -0.490 OA
ATOM     12  H   UNL     1       2.109  -3.594  -1.204  0.00  0.00    +0.123 HD
ENDROOT
BRANCH   7  13
ATOM     13  C   UNL     1      -0.077  -2.658  -0.730  0.00  0.00    +0.011 A 
ATOM     14  C   UNL     1      -1.252  -3.079  -0.203  0.00  0.00    +0.013 A 
ATOM     15  C   UNL     1      -2.272  -3.458  -1.056  0.00  0.00    +0.008 A 
ATOM     16  C   UNL     1      -2.066  -3.397  -2.394  0.00  0.00    +0.045 A 
ATOM     17  S   UNL     1      -0.392  -2.783  -2.483  0.00  0.00    -0.100 S 
ENDBRANCH   7  13
TORSDOF 1
