REMARK  Name = ZINC35096415
REMARK  8 active torsions:
REMARK  status: ('A' for Active; 'I' for Inactive)
REMARK    1  A    between atoms: C_1  and  C_2
REMARK    2  A    between atoms: N_8  and  C_9
REMARK    3  A    between atoms: C_9  and  C_10
REMARK    4  A    between atoms: C_10  and  C_11
REMARK    5  A    between atoms: C_11  and  N_12
REMARK    6  A    between atoms: N_12  and  C_13
REMARK    7  A    between atoms: C_13  and  C_14
REMARK    8  A    between atoms: N_25  and  C_26
REMARK                            x       y       z     vdW  Elec       q    Type
REMARK                         _______ _______ _______ _____ _____    ______ ____
ROOT
ATOM      1  N   UNL     1       0.993  -0.184   6.058  0.00  0.00    -0.281 N 
ATOM      2  C   UNL     1       0.708  -1.331   6.707  0.00  0.00    +0.307 C 
ATOM      3  O   UNL     1       1.347  -1.647   7.692  0.00  0.00    -0.252 OA
ATOM      4  N   UNL     1      -0.285  -2.127   6.264  0.00  0.00    -0.268 N 
ATOM      5  H   UNL     1      -0.848  -1.837   5.529  0.00  0.00    +0.156 HD
ENDROOT
BRANCH   4   6
ATOM      6  C   UNL     1      -0.505  -3.372   6.866  0.00  0.00    +0.049 A 
ATOM      7  C   UNL     1       0.533  -4.021   7.521  0.00  0.00    +0.024 A 
ATOM      8  C   UNL     1       0.312  -5.249   8.114  0.00  0.00    +0.002 A 
ATOM      9  C   UNL     1      -0.940  -5.833   8.055  0.00  0.00    +0.001 A 
ATOM     10  C   UNL     1      -1.976  -5.189   7.403  0.00  0.00    +0.017 A 
ATOM     11  C   UNL     1      -1.764  -3.958   6.812  0.00  0.00    +0.039 A 
ATOM     12 BR   UNL     1      -3.182  -3.075   5.927  0.00  0.00    -0.048 Br
ENDBRANCH   4   6
BRANCH   1  13
ATOM     13  C   UNL     1       0.224   0.196   4.872  0.00  0.00    +0.108 C 
BRANCH  13  14
ATOM     14  C   UNL     1       0.895  -0.378   3.622  0.00  0.00    +0.000 C 
BRANCH  14  15
ATOM     15  C   UNL     1       0.091   0.019   2.383  0.00  0.00    -0.077 C 
BRANCH  15  22
ATOM     16  C   UNL     1       0.020   1.478  -0.015  0.00  0.00    -0.013 C 
ATOM     17  C   UNL     1       0.033  -0.052  -0.013  0.00  0.00    -0.072 C 
ATOM     18  C   UNL     1       0.750  -0.558  -1.266  0.00  0.00    -0.016 C 
ATOM     19  C   UNL     1       0.760  -2.089  -1.259  0.00  0.00    -0.003 C 
ATOM     20  C   UNL     1       1.428  -2.579   0.029  0.00  0.00    -0.019 C 
ATOM     21  C   UNL     1       0.686  -1.998   1.235  0.00  0.00    -0.078 C 
ATOM     22  N   UNL     1       0.736  -0.532   1.183  0.00  0.00    +0.381 N 
ATOM     23  H   UNL     1       1.698  -0.229   1.152  0.00  0.00    -0.081 HD
ENDBRANCH  15  22
ENDBRANCH  14  15
ENDBRANCH  13  14
ENDBRANCH   1  13
BRANCH   1  24
ATOM     24  C   UNL     1       2.073   0.681   6.540  0.00  0.00    +0.144 C 
BRANCH  24  25
ATOM     25  C   UNL     1       1.518   1.674   7.528  0.00  0.00    -0.026 A 
ATOM     26  C   UNL     1       1.042   2.894   7.086  0.00  0.00    +0.009 A 
ATOM     27  C   UNL     1       0.531   3.808   7.989  0.00  0.00    +0.050 A 
ATOM     28  C   UNL     1       0.496   3.503   9.340  0.00  0.00    +0.166 A 
ATOM     29  C   UNL     1       0.976   2.274   9.785  0.00  0.00    +0.167 A 
ATOM     30  C   UNL     1       1.481   1.360   8.874  0.00  0.00    +0.054 A 
ATOM     31  O   UNL     1       0.834   2.215  11.142  0.00  0.00    -0.453 OA
ATOM     32  C   UNL     1       0.640   3.577  11.567  0.00  0.00    +0.466 C 
ATOM     33  O   UNL     1       0.053   4.214  10.417  0.00  0.00    -0.453 OA
ENDBRANCH  24  25
ENDBRANCH   1  24
TORSDOF 7
