REMARK  Name = ZINC26964164
REMARK  3 active torsions:
REMARK  status: ('A' for Active; 'I' for Inactive)
REMARK    1  A    between atoms: C_6  and  C_7
REMARK    2  A    between atoms: N_9  and  N_10
REMARK    3  A    between atoms: C_11  and  C_13
REMARK                            x       y       z     vdW  Elec       q    Type
REMARK                         _______ _______ _______ _____ _____    ______ ____
ROOT
ATOM      1  N   UNL     1      -3.645  -0.824   0.035  0.00  0.00    -0.234 N 
ATOM      2  C   UNL     1      -4.822  -0.168   0.051  0.00  0.00    +0.235 C 
ATOM      3  O   UNL     1      -4.840   1.045   0.057  0.00  0.00    -0.274 OA
ATOM      4  H   UNL     1      -3.630  -1.794   0.030  0.00  0.00    +0.173 HD
ENDROOT
BRANCH   2   5
ATOM      5  C   UNL     1      -6.115  -0.941   0.060  0.00  0.00    +0.050 C 
ATOM      6  C   UNL     1      -6.170  -1.828   1.305  0.00  0.00    +0.020 C 
ATOM      7  C   UNL     1      -7.484  -2.613   1.314  0.00  0.00    -0.008 C 
ATOM      8  C   UNL     1      -8.661  -1.636   1.331  0.00  0.00    +0.007 C 
ATOM      9  C   UNL     1      -8.606  -0.749   0.086  0.00  0.00    -0.008 C 
ATOM     10  C   UNL     1      -7.293   0.036   0.077  0.00  0.00    +0.020 C 
ATOM     11  C   UNL     1      -8.687  -1.623  -1.167  0.00  0.00    +0.026 C 
ATOM     12  C   UNL     1      -7.509  -2.599  -1.184  0.00  0.00    +0.047 C 
ATOM     13  C   UNL     1      -7.564  -3.487   0.061  0.00  0.00    +0.026 C 
ATOM     14  C   UNL     1      -6.196  -1.815  -1.193  0.00  0.00    +0.039 C 
ATOM     15 CL   UNL     1      -7.604  -3.629  -2.661  0.00  0.00    -0.118 Cl
ENDBRANCH   2   5
BRANCH   1  18
ATOM     16  C   UNL     1      -1.265  -0.761   0.011  0.00  0.00    +0.260 C 
ATOM     17  O   UNL     1      -1.247  -1.977   0.004  0.00  0.00    -0.269 OA
ATOM     18  N   UNL     1      -2.442  -0.105   0.027  0.00  0.00    -0.230 N 
ATOM     19  H   UNL     1      -2.457   0.865   0.032  0.00  0.00    +0.173 HD
BRANCH  16  25
ATOM     20  C   UNL     1      -0.017   1.392   0.010  0.00  0.00    +0.017 A 
ATOM     21  C   UNL     1       1.167   2.098   0.002  0.00  0.00    +0.050 A 
ATOM     22  C   UNL     1       2.381   1.425  -0.013  0.00  0.00    +0.166 A 
ATOM     23  C   UNL     1       2.407   0.029  -0.021  0.00  0.00    +0.167 A 
ATOM     24  C   UNL     1       1.224  -0.683  -0.014  0.00  0.00    +0.062 A 
ATOM     25  C   UNL     1       0.002  -0.004   0.002  0.00  0.00    +0.042 A 
ATOM     26  O   UNL     1       3.709  -0.382  -0.037  0.00  0.00    -0.453 OA
ATOM     27  C   UNL     1       4.469   0.768  -0.452  0.00  0.00    +0.466 C 
ATOM     28  O   UNL     1       3.665   1.883  -0.024  0.00  0.00    -0.453 OA
ENDBRANCH  16  25
ENDBRANCH   1  18
TORSDOF 3
