REMARK  Name = ZINC09136471
REMARK  7 active torsions:
REMARK  status: ('A' for Active; 'I' for Inactive)
REMARK    1  A    between atoms: C_1  and  C_2
REMARK    2  A    between atoms: C_5  and  S_9
REMARK    3  A    between atoms: C_6  and  C_8
REMARK    4  A    between atoms: S_9  and  N_12
REMARK    5  A    between atoms: N_12  and  C_13
REMARK    6  A    between atoms: C_13  and  C_14
REMARK    7  A    between atoms: N_17  and  C_21
REMARK                            x       y       z     vdW  Elec       q    Type
REMARK                         _______ _______ _______ _____ _____    ______ ____
ROOT
ATOM      1  N   UNL     1      -4.851  -3.451  -1.147  0.00  0.00    -0.186 NA
ATOM      2  H   UNL     1      -5.400  -3.320  -0.358  0.00  0.00    +0.148 HD
ENDROOT
BRANCH   1   3
ATOM      3  S   UNL     1      -5.565  -3.745  -2.612  0.00  0.00    +0.059 S 
ATOM      4  O   UNL     1      -6.966  -3.792  -2.380  0.00  0.00    -0.153 OA
ATOM      5  O   UNL     1      -4.976  -2.842  -3.539  0.00  0.00    -0.153 OA
BRANCH   3  10
ATOM      6  C   UNL     1      -3.913  -9.290  -4.322  0.00  0.00    +0.044 C 
ATOM      7  C   UNL     1      -4.325  -7.905  -3.895  0.00  0.00    -0.050 A 
ATOM      8  C   UNL     1      -3.916  -6.806  -4.627  0.00  0.00    +0.005 A 
ATOM      9  C   UNL     1      -4.298  -5.536  -4.237  0.00  0.00    +0.029 A 
ATOM     10  C   UNL     1      -5.082  -5.364  -3.111  0.00  0.00    +0.108 A 
ATOM     11  C   UNL     1      -5.492  -6.463  -2.381  0.00  0.00    -0.024 A 
ATOM     12  C   UNL     1      -5.113  -7.734  -2.772  0.00  0.00    +0.008 A 
ATOM     13  C   UNL     1      -6.351  -6.277  -1.157  0.00  0.00    +0.046 C 
ENDBRANCH   3  10
ENDBRANCH   1   3
BRANCH   1  14
ATOM     14  C   UNL     1      -3.391  -3.388  -1.043  0.00  0.00    +0.152 C 
BRANCH  14  15
ATOM     15  C   UNL     1      -3.003  -2.733   0.285  0.00  0.00    +0.211 C 
ATOM     16  C   UNL     1      -1.470  -2.655   0.420  0.00  0.00    +0.163 C 
ATOM     17  N   UNL     1      -1.200  -1.212   0.513  0.00  0.00    -0.234 N 
ATOM     18  C   UNL     1      -2.362  -0.548   0.452  0.00  0.00    +0.408 C 
ATOM     19  O   UNL     1      -2.439   0.663   0.511  0.00  0.00    -0.226 OA
ATOM     20  O   UNL     1      -3.431  -1.341   0.316  0.00  0.00    -0.444 OA
BRANCH  17  21
ATOM     21  C   UNL     1       0.065  -0.627   0.650  0.00  0.00    +0.040 A 
ATOM     22  C   UNL     1       0.188   0.753   0.728  0.00  0.00    +0.023 A 
ATOM     23  C   UNL     1       1.437   1.327   0.863  0.00  0.00    +0.002 A 
ATOM     24  C   UNL     1       2.564   0.528   0.921  0.00  0.00    +0.000 A 
ATOM     25  C   UNL     1       2.444  -0.848   0.844  0.00  0.00    +0.002 A 
ATOM     26  C   UNL     1       1.198  -1.427   0.708  0.00  0.00    +0.023 A 
ENDBRANCH  17  21
ENDBRANCH  14  15
ENDBRANCH   1  14
TORSDOF 5
