REMARK  Name = ZINC64862424
REMARK  6 active torsions:
REMARK  status: ('A' for Active; 'I' for Inactive)
REMARK    1  A    between atoms: C_1  and  C_2
REMARK    2  A    between atoms: C_4  and  C_25
REMARK    3  A    between atoms: C_6  and  N_8
REMARK    4  A    between atoms: N_8  and  S_9
REMARK    5  A    between atoms: S_9  and  C_12
REMARK    6  A    between atoms: N_23  and  C_24
REMARK                            x       y       z     vdW  Elec       q    Type
REMARK                         _______ _______ _______ _____ _____    ______ ____
ROOT
ATOM      1  C   UNL     1       0.394  -0.645   4.071  0.00  0.00    +0.109 A 
ATOM      2  C   UNL     1       0.732   0.496   3.367  0.00  0.00    +0.030 A 
ATOM      3  C   UNL     1       0.229   1.722   3.748  0.00  0.00    +0.026 A 
ATOM      4  C   UNL     1      -0.627   1.821   4.846  0.00  0.00    +0.041 A 
ATOM      5  C   UNL     1      -0.961   0.672   5.545  0.00  0.00    -0.023 A 
ATOM      6  C   UNL     1      -0.458  -0.555   5.157  0.00  0.00    +0.034 A 
ATOM      7  C   UNL     1      -1.890   1.050   6.676  0.00  0.00    +0.056 C 
ATOM      8  C   UNL     1      -2.057   2.572   6.548  0.00  0.00    +0.120 C 
ATOM      9  N   UNL     1      -1.241   2.953   5.393  0.00  0.00    -0.255 N 
ATOM     10  C   UNL     1      -1.102   4.209   4.924  0.00  0.00    +0.306 C 
ATOM     11  O   UNL     1      -0.399   4.422   3.955  0.00  0.00    -0.252 OA
ATOM     12  N   UNL     1      -1.742   5.228   5.530  0.00  0.00    -0.302 N 
ATOM     13  C   UNL     1      -1.591   6.594   5.021  0.00  0.00    +0.129 C 
ATOM     14  H   UNL     1      -2.302   5.058   6.303  0.00  0.00    +0.150 HD
ENDROOT
BRANCH   1  15
ATOM     15  S   UNL     1       1.040  -2.209   3.582  0.00  0.00    +0.072 S 
ATOM     16  O   UNL     1       0.887  -3.078   4.697  0.00  0.00    -0.150 OA
ATOM     17  O   UNL     1       2.302  -1.957   2.980  0.00  0.00    -0.150 OA
BRANCH  15  18
ATOM     18  N   UNL     1       0.054  -2.795   2.388  0.00  0.00    -0.216 N 
ATOM     19  H   UNL     1       0.411  -2.960   1.501  0.00  0.00    +0.174 HD
BRANCH  18  25
ATOM     20  C   UNL     1      -3.382  -4.733   5.319  0.00  0.00    +0.044 C 
ATOM     21  C   UNL     1      -2.988  -3.987   4.070  0.00  0.00    -0.048 A 
ATOM     22  C   UNL     1      -3.961  -3.555   3.188  0.00  0.00    +0.006 A 
ATOM     23  C   UNL     1      -3.604  -2.871   2.041  0.00  0.00    -0.048 A 
ATOM     24  C   UNL     1      -2.273  -2.617   1.772  0.00  0.00    +0.028 A 
ATOM     25  C   UNL     1      -1.293  -3.050   2.656  0.00  0.00    +0.049 A 
ATOM     26  C   UNL     1      -1.656  -3.732   3.811  0.00  0.00    +0.028 A 
ATOM     27  C   UNL     1      -4.668  -2.402   1.082  0.00  0.00    +0.044 C 
ENDBRANCH  18  25
ENDBRANCH  15  18
ENDBRANCH   1  15
TORSDOF 3
