REMARK  Name = ZINC12897137
REMARK  5 active torsions:
REMARK  status: ('A' for Active; 'I' for Inactive)
REMARK    1  A    between atoms: C_1  and  C_2
REMARK    2  A    between atoms: C_11  and  O_13
REMARK    3  A    between atoms: O_13  and  C_14
REMARK    4  A    between atoms: C_14  and  C_15
REMARK    5  A    between atoms: N_17  and  C_18
REMARK                            x       y       z     vdW  Elec       q    Type
REMARK                         _______ _______ _______ _____ _____    ______ ____
ROOT
ATOM      1  C   UNL     1      -2.472   0.753   0.134  0.00  0.00    +0.324 C 
ENDROOT
BRANCH   1   2
ATOM      2  C   UNL     1      -1.214   1.574   0.018  0.00  0.00    +0.255 C 
ATOM      3  O   UNL     1      -1.283   2.782  -0.066  0.00  0.00    -0.272 OA
ATOM      4  N   UNL     1      -0.011   0.966   0.007  0.00  0.00    -0.283 N 
ATOM      5  H   UNL     1       0.043  -0.003   0.007  0.00  0.00    +0.155 HD
BRANCH   4   6
ATOM      6  C   UNL     1       1.162   1.733  -0.009  0.00  0.00    +0.034 A 
ATOM      7  C   UNL     1       2.290   1.291   0.681  0.00  0.00    +0.025 A 
ATOM      8  C   UNL     1       3.451   2.029   0.671  0.00  0.00    +0.028 A 
ATOM      9  C   UNL     1       3.504   3.234  -0.023  0.00  0.00    +0.047 A 
ATOM     10  C   UNL     1       2.366   3.686  -0.715  0.00  0.00    +0.001 A 
ATOM     11  C   UNL     1       1.194   2.927  -0.704  0.00  0.00    +0.033 A 
ATOM     12  C   UNL     1       2.744   4.962  -1.328  0.00  0.00    +0.027 A 
ATOM     13  C   UNL     1       4.022   5.197  -0.990  0.00  0.00    +0.083 A 
ATOM     14  N   UNL     1       4.493   4.176  -0.210  0.00  0.00    -0.361 N 
ATOM     15  H   UNL     1       5.390   4.123   0.156  0.00  0.00    +0.165 HD
ENDBRANCH   4   6
ENDBRANCH   1   2
BRANCH   1  16
ATOM     16  O   UNL     1      -3.609   1.620   0.123  0.00  0.00    -0.483 OA
BRANCH  16  27
ATOM     17  C   UNL     1      -8.781  -2.288   0.636  0.00  0.00    +0.045 C 
ATOM     18  C   UNL     1      -8.633  -0.793   0.522  0.00  0.00    -0.033 A 
ATOM     19  C   UNL     1      -9.723   0.017   0.514  0.00  0.00    +0.096 A 
ATOM     20  C   UNL     1      -9.558   1.413   0.406  0.00  0.00    +0.337 A 
ATOM     21  O   UNL     1     -10.544   2.129   0.400  0.00  0.00    -0.245 OA
ATOM     22  O   UNL     1      -8.343   1.975   0.311  0.00  0.00    -0.422 OA
ATOM     23  C   UNL     1      -7.219   1.227   0.314  0.00  0.00    +0.143 A 
ATOM     24  C   UNL     1      -7.310  -0.174   0.418  0.00  0.00    +0.021 A 
ATOM     25  C   UNL     1      -6.147  -0.953   0.422  0.00  0.00    +0.015 A 
ATOM     26  C   UNL     1      -4.927  -0.351   0.318  0.00  0.00    +0.046 A 
ATOM     27  C   UNL     1      -4.830   1.035   0.220  0.00  0.00    +0.125 A 
ATOM     28  C   UNL     1      -5.971   1.822   0.215  0.00  0.00    +0.092 A 
ENDBRANCH  16  27
ENDBRANCH   1  16
TORSDOF 4
