REMARK  Name = ZINC13014451
REMARK  4 active torsions:
REMARK  status: ('A' for Active; 'I' for Inactive)
REMARK    1  A    between atoms: C_2  and  C_3
REMARK    2  A    between atoms: C_7  and  N_9
REMARK    3  A    between atoms: C_10  and  C_12
REMARK    4  A    between atoms: C_16  and  C_17
REMARK                            x       y       z     vdW  Elec       q    Type
REMARK                         _______ _______ _______ _____ _____    ______ ____
ROOT
ATOM      1  C   UNL     1       1.225   7.410   0.457  0.00  0.00    +0.087 A 
ATOM      2  C   UNL     1      -0.010   8.089   0.351  0.00  0.00    +0.148 A 
ATOM      3  N   UNL     1       0.238   9.364   0.234  0.00  0.00    -0.172 NA
ATOM      4  N   UNL     1       1.623   9.561   0.260  0.00  0.00    -0.208 N 
ATOM      5  C   UNL     1       2.221   8.364   0.401  0.00  0.00    +0.161 A 
ATOM      6  C   UNL     1       2.277  10.795   0.160  0.00  0.00    +0.174 A 
ATOM      7  C   UNL     1       1.525  11.986   0.162  0.00  0.00    +0.055 A 
ATOM      8  C   UNL     1       2.161  13.185   0.070  0.00  0.00    +0.075 A 
ATOM      9  C   UNL     1       3.566  13.214  -0.037  0.00  0.00    +0.265 A 
ATOM     10  O   UNL     1       4.154  14.281  -0.124  0.00  0.00    -0.266 OA
ATOM     11  N   UNL     1       4.257  12.056  -0.041  0.00  0.00    -0.241 N 
ATOM     12  H   UNL     1       5.224  12.071  -0.115  0.00  0.00    +0.192 HD
ATOM     13  N   UNL     1       3.583  10.834   0.060  0.00  0.00    -0.151 NA
ENDROOT
BRANCH   1  15
ATOM     14  N   UNL     1       0.343   5.138   0.652  0.00  0.00    -0.281 N 
ATOM     15  C   UNL     1       1.414   5.955   0.606  0.00  0.00    +0.252 C 
ATOM     16  O   UNL     1       2.535   5.493   0.688  0.00  0.00    -0.270 OA
ATOM     17  H   UNL     1      -0.548   5.498   0.516  0.00  0.00    +0.155 HD
BRANCH  14  22
ATOM     18  C   UNL     1       1.703   1.976   1.969  0.00  0.00    +0.026 A 
ATOM     19  C   UNL     1       0.846   1.055   1.365  0.00  0.00    +0.017 A 
ATOM     20  C   UNL     1      -0.168   1.495   0.539  0.00  0.00    +0.003 A 
ATOM     21  C   UNL     1      -0.336   2.847   0.303  0.00  0.00    +0.023 A 
ATOM     22  C   UNL     1       0.516   3.771   0.895  0.00  0.00    +0.035 A 
ATOM     23  C   UNL     1       1.538   3.339   1.726  0.00  0.00    +0.040 A 
BRANCH  18  25
ATOM     24  C   UNL     1       3.613   1.150   3.538  0.00  0.00    +0.009 C 
ATOM     25  C   UNL     1       2.752   1.522   2.832  0.00  0.00    -0.070 C 
ENDBRANCH  18  25
ENDBRANCH  14  22
ENDBRANCH   1  15
BRANCH   5  26
ATOM     26  C   UNL     1       3.705   8.111   0.481  0.00  0.00    +0.435 C 
ATOM     27  F   UNL     1       4.326   9.181   1.133  0.00  0.00    -0.164 F 
ATOM     28  F   UNL     1       3.939   6.931   1.194  0.00  0.00    -0.164 F 
ATOM     29  F   UNL     1       4.226   7.986  -0.811  0.00  0.00    -0.164 F 
ENDBRANCH   5  26
TORSDOF 4
