REMARK  Name = ZINC61462581
REMARK  6 active torsions:
REMARK  status: ('A' for Active; 'I' for Inactive)
REMARK    1  A    between atoms: C_3  and  C_8
REMARK    2  A    between atoms: C_8  and  N_9
REMARK    3  A    between atoms: C_13  and  C_15
REMARK    4  A    between atoms: N_17  and  N_18
REMARK    5  A    between atoms: C_19  and  C_21
REMARK    6  A    between atoms: C_24  and  C_27
REMARK                            x       y       z     vdW  Elec       q    Type
REMARK                         _______ _______ _______ _____ _____    ______ ____
ROOT
ATOM      1  C   UNL     1       6.934   4.482   2.783  0.00  0.00    +0.230 C 
ATOM      2  O   UNL     1       7.431   4.818   1.729  0.00  0.00    -0.274 OA
ATOM      3  N   UNL     1       7.479   4.892   3.946  0.00  0.00    -0.234 N 
ATOM      4  H   UNL     1       7.081   4.623   4.789  0.00  0.00    +0.173 HD
ENDROOT
BRANCH   1   9
ATOM      5  N   UNL     1       4.105   2.430   1.361  0.00  0.00    +0.383 N 
ATOM      6  C   UNL     1       4.413   1.149   2.009  0.00  0.00    -0.078 C 
ATOM      7  C   UNL     1       4.787   1.390   3.473  0.00  0.00    -0.018 C 
ATOM      8  C   UNL     1       6.014   2.304   3.536  0.00  0.00    +0.009 C 
ATOM      9  C   UNL     1       5.707   3.607   2.793  0.00  0.00    +0.060 C 
ATOM     10  C   UNL     1       5.299   3.284   1.354  0.00  0.00    -0.066 C 
ATOM     11  H   UNL     1       3.365   2.892   1.868  0.00  0.00    -0.081 HD
BRANCH   5  12
ATOM     12  C   UNL     1       3.672   2.186  -0.021  0.00  0.00    -0.043 C 
BRANCH  12  15
ATOM     13  C   UNL     1      -0.017   1.377   0.010  0.00  0.00    +0.003 A 
ATOM     14  C   UNL     1       1.171   2.086   0.002  0.00  0.00    +0.002 A 
ATOM     15  C   UNL     1       2.378   1.413  -0.013  0.00  0.00    -0.061 A 
ATOM     16  C   UNL     1       2.399   0.030  -0.021  0.00  0.00    +0.040 A 
ATOM     17  C   UNL     1       1.211  -0.679  -0.013  0.00  0.00    +0.124 A 
ATOM     18  C   UNL     1       0.002  -0.004   0.002  0.00  0.00    +0.038 A 
ATOM     19  F   UNL     1       1.230  -2.030  -0.022  0.00  0.00    -0.205 F 
ENDBRANCH  12  15
ENDBRANCH   5  12
ENDBRANCH   1   9
BRANCH   3  20
ATOM     20  N   UNL     1       8.620   5.705   3.937  0.00  0.00    -0.230 N 
ATOM     21  C   UNL     1       9.165   6.114   5.100  0.00  0.00    +0.260 C 
ATOM     22  O   UNL     1       8.666   5.778   6.156  0.00  0.00    -0.269 OA
ATOM     23  H   UNL     1       9.017   5.973   3.094  0.00  0.00    +0.173 HD
BRANCH  21  24
ATOM     24  C   UNL     1      10.369   6.973   5.090  0.00  0.00    +0.038 A 
ATOM     25  C   UNL     1      10.938   7.364   3.877  0.00  0.00    +0.014 A 
ATOM     26  C   UNL     1      12.059   8.164   3.867  0.00  0.00    +0.019 A 
ATOM     27  C   UNL     1      12.627   8.584   5.072  0.00  0.00    +0.052 A 
ATOM     28  C   UNL     1      12.058   8.193   6.286  0.00  0.00    +0.019 A 
ATOM     29  C   UNL     1      10.933   7.397   6.295  0.00  0.00    +0.014 A 
BRANCH  27  30
ATOM     30  C   UNL     1      13.793   9.415   5.063  0.00  0.00    +0.099 C 
ATOM     31  N   UNL     1      14.719  10.074   5.056  0.00  0.00    -0.191 NA
ENDBRANCH  27  30
ENDBRANCH  21  24
ENDBRANCH   3  20
TORSDOF 6
