REMARK  Name = ZINC51065309
REMARK  8 active torsions:
REMARK  status: ('A' for Active; 'I' for Inactive)
REMARK    1  A    between atoms: C_1  and  C_2
REMARK    2  A    between atoms: C_5  and  C_7
REMARK    3  A    between atoms: N_9  and  C_10
REMARK    4  A    between atoms: N_13  and  C_16
REMARK    5  A    between atoms: C_16  and  C_17
REMARK    6  A    between atoms: C_16  and  C_18
REMARK    7  A    between atoms: C_23  and  C_27
REMARK    8  A    between atoms: C_24  and  C_26
REMARK                            x       y       z     vdW  Elec       q    Type
REMARK                         _______ _______ _______ _____ _____    ______ ____
ROOT
ATOM      1  C   UNL     1       3.902  -4.161  -0.041  0.00  0.00    +0.076 C 
ATOM      2  C   UNL     1       4.121  -4.627  -1.483  0.00  0.00    +0.037 C 
ATOM      3  C   UNL     1       5.123  -5.784  -1.493  0.00  0.00    +0.087 C 
ATOM      4  N   UNL     1       6.393  -5.340  -0.904  0.00  0.00    -0.292 NA
ATOM      5  C   UNL     1       6.215  -4.932   0.495  0.00  0.00    +0.087 C 
ATOM      6  C   UNL     1       5.247  -3.749   0.565  0.00  0.00    +0.037 C 
ENDROOT
BRANCH   1   9
ATOM      7  C   UNL     1       1.656  -3.216  -0.025  0.00  0.00    +0.280 C 
ATOM      8  O   UNL     1       1.211  -4.349  -0.028  0.00  0.00    -0.267 OA
ATOM      9  N   UNL     1       2.989  -3.016  -0.030  0.00  0.00    -0.306 N 
ATOM     10  H   UNL     1       3.343  -2.113  -0.027  0.00  0.00    +0.149 HD
BRANCH   7  15
ATOM     11  C   UNL     1      -0.018   1.503   0.010  0.00  0.00    +0.086 C 
ATOM     12  C   UNL     1       0.002  -0.004   0.002  0.00  0.00    +0.103 A 
ATOM     13  C   UNL     1      -1.086  -0.806   0.003  0.00  0.00    +0.045 A 
ATOM     14  C   UNL     1      -0.622  -2.131  -0.007  0.00  0.00    +0.055 A 
ATOM     15  C   UNL     1       0.742  -2.070  -0.014  0.00  0.00    +0.189 A 
ATOM     16  O   UNL     1       1.101  -0.769  -0.013  0.00  0.00    -0.455 OA
ENDBRANCH   7  15
ENDBRANCH   1   9
BRANCH   4  17
ATOM     17  C   UNL     1       7.421  -6.382  -1.023  0.00  0.00    +0.140 C 
ATOM     18  C   UNL     1       7.014  -7.598  -0.189  0.00  0.00    +0.034 C 
BRANCH  17  19
ATOM     19  C   UNL     1       8.738  -5.847  -0.521  0.00  0.00    +0.236 C 
ATOM     20  O   UNL     1       8.812  -4.710  -0.106  0.00  0.00    -0.274 OA
ATOM     21  N   UNL     1       9.833  -6.632  -0.534  0.00  0.00    -0.263 N 
ATOM     22  C   UNL     1      11.048  -6.139  -0.072  0.00  0.00    +0.165 A 
ATOM     23  N   UNL     1      11.313  -4.946   0.415  0.00  0.00    -0.230 NA
ATOM     24  C   UNL     1      12.531  -4.629   0.816  0.00  0.00    +0.050 A 
ATOM     25  C   UNL     1      13.486  -5.584   0.702  0.00  0.00    +0.011 A 
ATOM     26  S   UNL     1      12.534  -6.926   0.008  0.00  0.00    -0.057 S 
ATOM     27  C   UNL     1      14.947  -5.530   1.066  0.00  0.00    +0.053 C 
ATOM     28  C   UNL     1      12.844  -3.264   1.374  0.00  0.00    +0.066 C 
ATOM     29  H   UNL     1       9.774  -7.542  -0.867  0.00  0.00    +0.157 HD
ENDBRANCH  17  19
ENDBRANCH   4  17
TORSDOF 4
