REMARK  Name = ZINC32829310
REMARK  5 active torsions:
REMARK  status: ('A' for Active; 'I' for Inactive)
REMARK    1  A    between atoms: C_4  and  S_20
REMARK    2  A    between atoms: C_5  and  N_7
REMARK    3  A    between atoms: N_7  and  C_8
REMARK    4  A    between atoms: C_8  and  C_9
REMARK    5  A    between atoms: S_20  and  C_23
REMARK                            x       y       z     vdW  Elec       q    Type
REMARK                         _______ _______ _______ _____ _____    ______ ____
ROOT
ATOM      1  N   UNL     1      -0.011   0.966   0.007  0.00  0.00    -0.338 N 
ATOM      2  H   UNL     1       0.004  -0.134   0.006  0.00  0.00    +0.146 HD
ENDROOT
BRANCH   1   7
ATOM      3  C   UNL     1      -2.458   3.708   0.035  0.00  0.00    +0.002 A 
ATOM      4  C   UNL     1      -3.645   2.998   0.037  0.00  0.00    +0.002 A 
ATOM      5  C   UNL     1      -3.628   1.616   0.029  0.00  0.00    +0.029 A 
ATOM      6  C   UNL     1      -2.424   0.939   0.019  0.00  0.00    +0.118 A 
ATOM      7  C   UNL     1      -1.230   1.648   0.017  0.00  0.00    +0.053 A 
ATOM      8  C   UNL     1      -1.251   3.037   0.030  0.00  0.00    +0.025 A 
BRANCH   6   9
ATOM      9  S   UNL     1      -2.404  -0.823   0.009  0.00  0.00    +0.093 S 
ATOM     10  O   UNL     1      -1.530  -1.182   1.071  0.00  0.00    -0.161 OA
ATOM     11  O   UNL     1      -3.773  -1.202   0.038  0.00  0.00    -0.161 OA
BRANCH   9  12
ATOM     12  C   UNL     1      -1.665  -1.272  -1.586  0.00  0.00    +0.526 C 
ATOM     13  F   UNL     1      -0.374  -0.739  -1.668  0.00  0.00    -0.150 F 
ATOM     14  F   UNL     1      -1.602  -2.666  -1.695  0.00  0.00    -0.150 F 
ATOM     15  F   UNL     1      -2.449  -0.758  -2.624  0.00  0.00    -0.150 F 
ENDBRANCH   9  12
ENDBRANCH   6   9
ENDBRANCH   1   7
BRANCH   1  16
ATOM     16  C   UNL     1       1.248   1.716  -0.001  0.00  0.00    +0.137 C 
BRANCH  16  17
ATOM     17  C   UNL     1       2.406   0.752  -0.017  0.00  0.00    -0.026 A 
ATOM     18  C   UNL     1       2.941   0.304  -1.218  0.00  0.00    +0.023 A 
ATOM     19  C   UNL     1       4.002  -0.578  -1.199  0.00  0.00    +0.084 A 
ATOM     20  N   UNL     1       4.512  -0.998  -0.057  0.00  0.00    -0.350 N 
ATOM     21  C   UNL     1       4.030  -0.595   1.109  0.00  0.00    +0.099 A 
ATOM     22  C   UNL     1       2.965   0.298   1.164  0.00  0.00    +0.047 A 
ATOM     23  N   UNL     1       4.598  -1.063   2.288  0.00  0.00    -0.317 N 
ATOM     24  C   UNL     1       3.614  -1.843   3.080  0.00  0.00    +0.106 C 
ATOM     25  C   UNL     1       4.507  -2.691   4.020  0.00  0.00    +0.020 C 
ATOM     26  C   UNL     1       5.708  -3.057   3.119  0.00  0.00    +0.020 C 
ATOM     27  C   UNL     1       5.715  -1.991   2.007  0.00  0.00    +0.106 C 
ATOM     28  H   UNL     1       5.358  -1.701  -0.058  0.00  0.00    +0.166 HD
ENDBRANCH  16  17
ENDBRANCH   1  16
TORSDOF 5
