REMARK  Name = ZINC08770206
REMARK  10 active torsions:
REMARK  status: ('A' for Active; 'I' for Inactive)
REMARK    1  A    between atoms: C_1  and  C_2
REMARK    2  A    between atoms: C_3  and  C_12
REMARK    3  A    between atoms: C_14  and  C_19
REMARK    4  A    between atoms: C_16  and  C_17
REMARK    5  A    between atoms: C_16  and  C_18
REMARK    6  A    between atoms: C_19  and  C_20
REMARK    7  A    between atoms: C_20  and  N_55
REMARK    8  A    between atoms: C_21  and  S_22
REMARK    9  A    between atoms: C_21  and  N_55
REMARK   10  A    between atoms: S_22  and  C_25
REMARK                            x       y       z     vdW  Elec       q    Type
REMARK                         _______ _______ _______ _____ _____    ______ ____
ROOT
ATOM      1  C   UNL     1       0.734   6.401  -0.360  0.00  0.00    +0.031 C 
ATOM      2  C   UNL     1       0.307   7.696   0.334  0.00  0.00    +0.002 C 
ATOM      3  C   UNL     1       0.655   7.705  -1.157  0.00  0.00    -0.024 C 
ATOM      4  C   UNL     1       1.974   8.361  -1.570  0.00  0.00    +0.012 C 
ATOM      5  C   UNL     1      -0.497   7.857  -2.151  0.00  0.00    +0.012 C 
ENDROOT
BRANCH   1   8
ATOM      6  C   UNL     1       0.205   4.946  -3.050  0.00  0.00    +0.063 C 
ATOM      7  C   UNL     1      -0.567   4.731  -1.774  0.00  0.00    +0.017 A 
ATOM      8  C   UNL     1      -0.331   5.365  -0.615  0.00  0.00    -0.016 A 
ATOM      9  C   UNL     1      -1.305   4.859   0.356  0.00  0.00    +0.003 A 
ATOM     10  C   UNL     1      -1.561   5.126   1.702  0.00  0.00    +0.010 A 
ATOM     11  C   UNL     1      -2.571   4.467   2.344  0.00  0.00    +0.001 A 
ATOM     12  C   UNL     1      -3.345   3.533   1.668  0.00  0.00    +0.002 A 
ATOM     13  C   UNL     1      -3.106   3.251   0.341  0.00  0.00    +0.026 A 
ATOM     14  C   UNL     1      -2.086   3.915  -0.334  0.00  0.00    +0.047 A 
ATOM     15  N   UNL     1      -1.612   3.860  -1.625  0.00  0.00    -0.358 N 
ATOM     16  H   UNL     1      -1.966   3.290  -2.325  0.00  0.00    +0.166 HD
ENDBRANCH   1   8
BRANCH   2  17
ATOM     17  C   UNL     1      -1.167   7.840   0.717  0.00  0.00    -0.014 C 
BRANCH  17  18
ATOM     18  C   UNL     1      -1.277   8.188   2.203  0.00  0.00    -0.080 C 
BRANCH  18  19
ATOM     19  N   UNL     1      -2.699   8.202   2.592  0.00  0.00    +0.392 N 
ATOM     20  H   UNL     1      -3.107   7.275   2.420  0.00  0.00    -0.084 HD
ATOM     21  H   UNL     1      -3.197   8.904   2.032  0.00  0.00    -0.084 HD
BRANCH  19  22
ATOM     22  C   UNL     1      -2.836   8.535   4.022  0.00  0.00    +0.093 C 
BRANCH  22  23
ATOM     23  S   UNL     1      -3.135  10.315   4.202  0.00  0.00    -0.018 S 
ATOM     24  O   UNL     1      -3.340  10.641   5.570  0.00  0.00    -0.171 OA
ATOM     25  O   UNL     1      -2.209  11.049   3.413  0.00  0.00    -0.171 OA
BRANCH  23  26
ATOM     26  C   UNL     1      -4.697  10.591   3.435  0.00  0.00    +0.086 A 
ATOM     27  C   UNL     1      -4.761  10.903   2.090  0.00  0.00    +0.029 A 
ATOM     28  C   UNL     1      -5.986  11.115   1.486  0.00  0.00    +0.040 A 
ATOM     29  C   UNL     1      -7.149  11.026   2.232  0.00  0.00    +0.124 A 
ATOM     30  C   UNL     1      -7.084  10.719   3.581  0.00  0.00    +0.040 A 
ATOM     31  C   UNL     1      -5.858  10.502   4.181  0.00  0.00    +0.029 A 
ATOM     32  F   UNL     1      -8.347  11.237   1.644  0.00  0.00    -0.205 F 
ENDBRANCH  23  26
ENDBRANCH  22  23
ENDBRANCH  19  22
ENDBRANCH  18  19
ENDBRANCH  17  18
ENDBRANCH   2  17
TORSDOF 7
