REMARK  Name = ZINC35564262
REMARK  7 active torsions:
REMARK  status: ('A' for Active; 'I' for Inactive)
REMARK    1  A    between atoms: C_1  and  C_2
REMARK    2  A    between atoms: C_6  and  N_9
REMARK    3  A    between atoms: C_7  and  C_8
REMARK    4  A    between atoms: N_12  and  C_15
REMARK    5  A    between atoms: C_15  and  C_16
REMARK    6  A    between atoms: C_30  and  C_32
REMARK    7  A    between atoms: C_35  and  N_38
REMARK                            x       y       z     vdW  Elec       q    Type
REMARK                         _______ _______ _______ _____ _____    ______ ____
ROOT
ATOM      1  C   UNL     1       1.459  -3.782   6.686  0.00  0.00    +0.034 A 
ATOM      2  C   UNL     1       2.507  -3.023   7.120  0.00  0.00    +0.091 A 
ATOM      3  C   UNL     1       3.599  -3.660   7.735  0.00  0.00    +0.253 A 
ATOM      4  O   UNL     1       4.553  -3.012   8.134  0.00  0.00    -0.268 OA
ATOM      5  N   UNL     1       3.572  -5.003   7.875  0.00  0.00    -0.295 N 
ATOM      6  H   UNL     1       4.315  -5.463   8.297  0.00  0.00    +0.172 HD
ATOM      7  C   UNL     1       2.500  -5.708   7.423  0.00  0.00    +0.198 A 
ATOM      8  N   UNL     1       1.478  -5.103   6.852  0.00  0.00    -0.223 NA
ATOM      9  N   UNL     1       2.480  -7.069   7.569  0.00  0.00    -0.298 N 
ATOM     10  C   UNL     1       3.651  -7.782   8.098  0.00  0.00    +0.127 C 
ATOM     11  C   UNL     1       3.213  -8.614   9.310  0.00  0.00    +0.127 C 
ATOM     12  N   UNL     1       2.020  -9.388   8.940  0.00  0.00    -0.295 N 
ATOM     13  C   UNL     1       0.848  -8.675   8.411  0.00  0.00    +0.127 C 
ATOM     14  C   UNL     1       1.285  -7.843   7.205  0.00  0.00    +0.127 C 
ATOM     15  C   UNL     1       2.000 -10.728   9.084  0.00  0.00    +0.247 C 
ATOM     16  O   UNL     1       1.047 -11.368   8.684  0.00  0.00    -0.270 OA
ENDROOT
BRANCH  15  17
ATOM     17  C   UNL     1       3.137 -11.419   9.728  0.00  0.00    +0.037 A 
ATOM     18  C   UNL     1       3.740 -10.871  10.861  0.00  0.00    +0.015 A 
ATOM     19  C   UNL     1       4.801 -11.521  11.457  0.00  0.00    +0.033 A 
ATOM     20  C   UNL     1       5.268 -12.714  10.934  0.00  0.00    +0.126 A 
ATOM     21  C   UNL     1       4.675 -13.263   9.811  0.00  0.00    +0.033 A 
ATOM     22  C   UNL     1       3.609 -12.626   9.208  0.00  0.00    +0.015 A 
BRANCH  20  23
ATOM     23  N   UNL     1       6.406 -13.406  11.578  0.00  0.00    +0.056 N 
ATOM     24  O   UNL     1       6.926 -12.928  12.560  0.00  0.00    -0.126 OA
ATOM     25  O   UNL     1       6.816 -14.448  11.124  0.00  0.00    -0.126 OA
ENDBRANCH  20  23
ENDBRANCH  15  17
BRANCH   1  26
ATOM     26  C   UNL     1       0.276  -3.124   6.024  0.00  0.00    -0.022 C 
BRANCH  26  30
ATOM     27  N   UNL     1       0.053  -3.282   1.849  0.00  0.00    -0.333 N 
ATOM     28  C   UNL     1      -1.181  -3.571   2.595  0.00  0.00    +0.086 C 
ATOM     29  C   UNL     1      -1.030  -3.018   4.016  0.00  0.00    -0.059 C 
ATOM     30  N   UNL     1       0.189  -3.566   4.626  0.00  0.00    +0.385 N 
ATOM     31  C   UNL     1       1.370  -3.095   3.891  0.00  0.00    -0.059 C 
ATOM     32  C   UNL     1       1.337  -3.656   2.461  0.00  0.00    +0.086 C 
ATOM     33  H   UNL     1       0.156  -4.574   4.596  0.00  0.00    -0.081 HD
BRANCH  27  39
ATOM     34  C   UNL     1       0.052   0.808  -0.877  0.00  0.00    +0.044 C 
ATOM     35  C   UNL     1       0.004  -0.694  -0.760  0.00  0.00    -0.046 A 
ATOM     36  C   UNL     1      -0.085  -1.473  -1.899  0.00  0.00    +0.004 A 
ATOM     37  C   UNL     1      -0.129  -2.851  -1.796  0.00  0.00    +0.002 A 
ATOM     38  C   UNL     1      -0.084  -3.454  -0.555  0.00  0.00    +0.023 A 
ATOM     39  C   UNL     1       0.007  -2.675   0.591  0.00  0.00    +0.033 A 
ATOM     40  C   UNL     1       0.056  -1.291   0.484  0.00  0.00    -0.027 A 
ATOM     41  C   UNL     1       0.160  -0.441   1.725  0.00  0.00    +0.046 C 
ENDBRANCH  27  39
ENDBRANCH  26  30
ENDBRANCH   1  26
TORSDOF 5
