REMARK  Name = ZINC67641795
REMARK  10 active torsions:
REMARK  status: ('A' for Active; 'I' for Inactive)
REMARK    1  A    between atoms: C_1  and  C_2
REMARK    2  A    between atoms: C_3  and  O_27
REMARK    3  A    between atoms: C_6  and  C_10
REMARK    4  A    between atoms: C_7  and  O_8
REMARK    5  A    between atoms: O_8  and  C_9
REMARK    6  A    between atoms: C_12  and  C_16
REMARK    7  A    between atoms: C_13  and  C_15
REMARK    8  A    between atoms: C_16  and  N_17
REMARK    9  A    between atoms: C_21  and  C_24
REMARK   10  A    between atoms: O_27  and  C_28
REMARK                            x       y       z     vdW  Elec       q    Type
REMARK                         _______ _______ _______ _____ _____    ______ ____
ROOT
ATOM      1  C   UNL     1       0.052  -2.856   2.454  0.00  0.00    +0.231 A 
ATOM      2  N   UNL     1       0.075  -4.163   2.571  0.00  0.00    -0.216 NA
ATOM      3  C   UNL     1       0.084  -4.477   3.877  0.00  0.00    +0.066 A 
ATOM      4  C   UNL     1       0.065  -3.329   4.577  0.00  0.00    +0.124 A 
ATOM      5  O   UNL     1       0.051  -2.317   3.686  0.00  0.00    -0.440 OA
ATOM      6  C   UNL     1       0.065  -3.199   6.078  0.00  0.00    +0.088 C 
ENDROOT
BRANCH   1  12
ATOM      7  C   UNL     1      -0.018   1.503   0.010  0.00  0.00    +0.051 C 
ATOM      8  C   UNL     1       0.002  -0.004   0.002  0.00  0.00    +0.033 A 
ATOM      9  C   UNL     1       0.006  -0.691  -1.204  0.00  0.00    +0.126 A 
ATOM     10  C   UNL     1       0.025  -2.080  -1.218  0.00  0.00    +0.047 A 
ATOM     11  C   UNL     1       0.040  -2.786  -0.034  0.00  0.00    +0.020 A 
ATOM     12  C   UNL     1       0.037  -2.103   1.184  0.00  0.00    +0.079 A 
ATOM     13  C   UNL     1       0.023  -0.702   1.197  0.00  0.00    +0.139 A 
BRANCH  13  14
ATOM     14  O   UNL     1       0.025  -0.031   2.377  0.00  0.00    -0.494 OA
ATOM     15  C   UNL     1      -1.247   0.272   2.954  0.00  0.00    +0.277 C 
ENDBRANCH  13  14
BRANCH   9  16
ATOM     16  O   UNL     1      -0.010  -0.003  -2.374  0.00  0.00    -0.495 OA
ATOM     17  C   UNL     1      -0.005  -0.771  -3.579  0.00  0.00    +0.277 C 
ENDBRANCH   9  16
ENDBRANCH   1  12
BRANCH   3  18
ATOM     18  C   UNL     1       0.108  -5.869   4.455  0.00  0.00    -0.019 C 
BRANCH  18  19
ATOM     19  N   UNL     1       1.501  -6.297   4.640  0.00  0.00    +0.384 N 
ATOM     20  C   UNL     1       2.146  -5.440   5.642  0.00  0.00    -0.078 C 
ATOM     21  C   UNL     1       3.619  -5.830   5.780  0.00  0.00    -0.018 C 
ATOM     22  C   UNL     1       3.715  -7.293   6.220  0.00  0.00    +0.009 C 
ATOM     23  C   UNL     1       2.975  -8.171   5.206  0.00  0.00    +0.058 C 
ATOM     24  C   UNL     1       1.526  -7.694   5.090  0.00  0.00    -0.066 C 
ATOM     25  H   UNL     1       1.996  -6.218   3.764  0.00  0.00    -0.081 HD
BRANCH  23  26
ATOM     26  C   UNL     1       2.999  -9.604   5.670  0.00  0.00    +0.212 C 
ATOM     27  O   UNL     1       1.958 -10.190   5.882  0.00  0.00    -0.276 OA
ATOM     28  N   UNL     1       4.176 -10.236   5.848  0.00  0.00    -0.329 N 
ATOM     29  H   UNL     1       5.008  -9.768   5.678  0.00  0.00    +0.145 HD
ATOM     30  H   UNL     1       4.191 -11.159   6.146  0.00  0.00    +0.145 HD
ENDBRANCH  23  26
ENDBRANCH  18  19
ENDBRANCH   3  18
TORSDOF 6
