REMARK  Name = ZINC20527336
REMARK  9 active torsions:
REMARK  status: ('A' for Active; 'I' for Inactive)
REMARK    1  A    between atoms: C_4  and  O_27
REMARK    2  A    between atoms: C_5  and  C_7
REMARK    3  A    between atoms: N_8  and  N_9
REMARK    4  A    between atoms: C_13  and  S_16
REMARK    5  A    between atoms: N_14  and  N_15
REMARK    6  A    between atoms: S_16  and  C_17
REMARK    7  A    between atoms: C_17  and  C_18
REMARK    8  A    between atoms: N_20  and  C_21
REMARK    9  A    between atoms: C_21  and  C_22
REMARK                            x       y       z     vdW  Elec       q    Type
REMARK                         _______ _______ _______ _____ _____    ______ ____
ROOT
ATOM      1  N   UNL     1      -1.202  -0.721   0.010  0.00  0.00    -0.204 N 
ATOM      2  C   UNL     1      -1.183  -2.108   0.002  0.00  0.00    +0.254 A 
ATOM      3  N   UNL     1      -0.112  -2.864  -0.018  0.00  0.00    -0.109 NA
ATOM      4  N   UNL     1      -0.527  -4.202  -0.015  0.00  0.00    -0.119 NA
ATOM      5  C   UNL     1      -1.838  -4.220  -0.003  0.00  0.00    +0.210 A 
ATOM      6  N   UNL     1      -2.278  -2.927   0.008  0.00  0.00    -0.211 N 
ATOM      7  H   UNL     1      -2.162  -0.184   0.022  0.00  0.00    +0.177 HD
ENDROOT
BRANCH   6   8
ATOM      8  N   UNL     1      -3.583  -2.522   0.023  0.00  0.00    -0.294 N 
ATOM      9  H   UNL     1      -4.390  -3.269   0.027  0.00  0.00    +0.163 HD
ATOM     10  H   UNL     1      -3.826  -1.450   0.032  0.00  0.00    +0.163 HD
ENDBRANCH   6   8
BRANCH   1  12
ATOM     11  C   UNL     1      -0.015   1.294   0.009  0.00  0.00    +0.142 C 
ATOM     12  N   UNL     1       0.002  -0.004   0.002  0.00  0.00    -0.187 NA
BRANCH  11  17
ATOM     13  C   UNL     1       2.425   4.145  -0.000  0.00  0.00    +0.001 A 
ATOM     14  C   UNL     1       3.632   3.469  -0.015  0.00  0.00    +0.004 A 
ATOM     15  C   UNL     1       3.660   2.087  -0.022  0.00  0.00    +0.046 A 
ATOM     16  C   UNL     1       2.476   1.368  -0.014  0.00  0.00    +0.125 A 
ATOM     17  C   UNL     1       1.250   2.049   0.001  0.00  0.00    +0.036 A 
ATOM     18  C   UNL     1       1.236   3.445   0.003  0.00  0.00    +0.013 A 
BRANCH  16  19
ATOM     19  O   UNL     1       2.502   0.010  -0.021  0.00  0.00    -0.506 OA
ATOM     20  H   UNL     1       1.560  -0.558  -0.015  0.00  0.00    +0.292 HD
ENDBRANCH  16  19
ENDBRANCH  11  17
ENDBRANCH   1  12
BRANCH   5  21
ATOM     21  S   UNL     1      -2.855  -5.659  -0.002  0.00  0.00    -0.075 S 
BRANCH  21  22
ATOM     22  C   UNL     1      -1.670  -7.033  -0.020  0.00  0.00    +0.173 C 
BRANCH  22  23
ATOM     23  C   UNL     1      -2.418  -8.341  -0.020  0.00  0.00    +0.224 C 
ATOM     24  O   UNL     1      -3.631  -8.347  -0.009  0.00  0.00    -0.275 OA
ATOM     25  N   UNL     1      -1.739  -9.506  -0.033  0.00  0.00    -0.308 N 
ATOM     26  H   UNL     1      -0.639  -9.501  -0.043  0.00  0.00    +0.149 HD
BRANCH  25  27
ATOM     27  C   UNL     1      -2.466 -10.778  -0.033  0.00  0.00    +0.178 C 
BRANCH  27  28
ATOM     28  C   UNL     1      -1.482 -11.919  -0.049  0.00  0.00    +0.122 A 
ATOM     29  C   UNL     1      -0.958 -12.520   1.035  0.00  0.00    +0.046 A 
ATOM     30  C   UNL     1      -0.089 -13.531   0.562  0.00  0.00    +0.041 A 
ATOM     31  C   UNL     1      -0.134 -13.486  -0.782  0.00  0.00    +0.195 A 
ATOM     32  O   UNL     1      -0.984 -12.511  -1.146  0.00  0.00    -0.466 OA
ENDBRANCH  27  28
ENDBRANCH  25  27
ENDBRANCH  22  23
ENDBRANCH  21  22
ENDBRANCH   5  21
TORSDOF 9
