REMARK  Name = ZINC35007504
REMARK  13 active torsions:
REMARK  status: ('A' for Active; 'I' for Inactive)
REMARK    1  A    between atoms: C_1  and  C_2
REMARK    2  A    between atoms: C_2  and  C_4
REMARK    3  A    between atoms: C_2  and  N_16
REMARK    4  A    between atoms: N_16  and  C_17
REMARK    5  A    between atoms: N_16  and  S_21
REMARK    6  A    between atoms: C_17  and  C_18
REMARK    7  A    between atoms: C_18  and  C_19
REMARK    8  A    between atoms: C_18  and  C_20
REMARK    9  A    between atoms: S_21  and  C_24
REMARK   10  A    between atoms: C_27  and  C_30
REMARK   11  A    between atoms: C_30  and  C_31
REMARK   12  A    between atoms: C_30  and  C_32
REMARK   13  A    between atoms: C_30  and  C_33
REMARK                            x       y       z     vdW  Elec       q    Type
REMARK                         _______ _______ _______ _____ _____    ______ ____
ROOT
ATOM      1  N   UNL     1       0.806  -0.645   1.210  0.00  0.00    -0.166 NA
ENDROOT
BRANCH   1   2
ATOM      2  S   UNL     1       1.899  -1.884   1.095  0.00  0.00    +0.061 S 
ATOM      3  O   UNL     1       1.719  -2.693   2.248  0.00  0.00    -0.153 OA
ATOM      4  O   UNL     1       1.788  -2.402  -0.224  0.00  0.00    -0.153 OA
BRANCH   2   5
ATOM      5  C   UNL     1       3.506  -1.174   1.224  0.00  0.00    +0.106 A 
ATOM      6  C   UNL     1       4.168  -0.750   0.086  0.00  0.00    +0.029 A 
ATOM      7  C   UNL     1       5.429  -0.193   0.187  0.00  0.00    +0.006 A 
ATOM      8  C   UNL     1       6.028  -0.059   1.426  0.00  0.00    -0.042 A 
ATOM      9  C   UNL     1       5.366  -0.482   2.563  0.00  0.00    +0.006 A 
ATOM     10  C   UNL     1       4.104  -1.035   2.462  0.00  0.00    +0.029 A 
BRANCH   8  11
ATOM     11  C   UNL     1       7.404   0.547   1.536  0.00  0.00    -0.013 C 
ATOM     12  C   UNL     1       7.378   1.973   0.982  0.00  0.00    +0.015 C 
ATOM     13  C   UNL     1       7.831   0.578   3.005  0.00  0.00    +0.015 C 
ATOM     14  C   UNL     1       8.398  -0.294   0.733  0.00  0.00    +0.015 C 
ENDBRANCH   8  11
ENDBRANCH   2   5
ENDBRANCH   1   2
BRANCH   1  16
ATOM     15  C   UNL     1       0.882  -0.480  -1.229  0.00  0.00    +0.034 C 
ATOM     16  C   UNL     1       0.608   0.265   0.079  0.00  0.00    +0.142 C 
BRANCH  16  17
ATOM     17  C   UNL     1       1.554   1.431   0.201  0.00  0.00    +0.129 A 
ATOM     18  N   UNL     1       1.645   2.299  -0.840  0.00  0.00    -0.309 N 
ATOM     19  H   UNL     1       1.106   2.156  -1.634  0.00  0.00    +0.170 HD
ATOM     20  C   UNL     1       2.480   3.363  -0.780  0.00  0.00    +0.259 A 
ATOM     21  O   UNL     1       2.570   4.149  -1.705  0.00  0.00    -0.267 OA
ATOM     22  C   UNL     1       3.273   3.532   0.447  0.00  0.00    +0.065 A 
ATOM     23  C   UNL     1       4.162   4.593   0.610  0.00  0.00    +0.015 A 
ATOM     24  C   UNL     1       4.880   4.703   1.780  0.00  0.00    +0.001 A 
ATOM     25  C   UNL     1       4.725   3.767   2.795  0.00  0.00    +0.002 A 
ATOM     26  C   UNL     1       3.853   2.712   2.654  0.00  0.00    +0.028 A 
ATOM     27  C   UNL     1       3.113   2.579   1.477  0.00  0.00    +0.078 A 
ATOM     28  N   UNL     1       2.238   1.558   1.298  0.00  0.00    -0.232 NA
ENDBRANCH  16  17
ENDBRANCH   1  16
BRANCH   1  29
ATOM     29  C   UNL     1       0.037  -0.460   2.443  0.00  0.00    +0.113 C 
BRANCH  29  30
ATOM     30  C   UNL     1      -1.294  -1.206   2.331  0.00  0.00    -0.001 C 
ATOM     31  C   UNL     1      -2.032  -1.137   3.670  0.00  0.00    +0.008 C 
ATOM     32  C   UNL     1      -2.152  -0.558   1.242  0.00  0.00    +0.008 C 
ENDBRANCH  29  30
ENDBRANCH   1  29
TORSDOF 7
