REMARK  Name = ZINC01457723
REMARK  6 active torsions:
REMARK  status: ('A' for Active; 'I' for Inactive)
REMARK    1  A    between atoms: C_1  and  C_2
REMARK    2  A    between atoms: C_10  and  C_13
REMARK    3  A    between atoms: C_18  and  C_28
REMARK    4  A    between atoms: C_20  and  C_24
REMARK    5  A    between atoms: C_24  and  O_26
REMARK    6  A    between atoms: O_26  and  C_27
REMARK                            x       y       z     vdW  Elec       q    Type
REMARK                         _______ _______ _______ _____ _____    ______ ____
ROOT
ATOM      1  C   UNL     1      -2.552   1.204   0.020  0.00  0.00    +0.143 C 
ATOM      2  C   UNL     1      -2.858   0.764  -1.392  0.00  0.00    +0.037 C 
ATOM      3  C   UNL     1      -3.820   1.264  -2.183  0.00  0.00    +0.017 C 
ATOM      4  C   UNL     1      -3.991   0.751  -3.604  0.00  0.00    +0.055 C 
ATOM      5  C   UNL     1      -3.625  -0.731  -3.669  0.00  0.00    +0.013 C 
ATOM      6  C   UNL     1      -2.164  -0.871  -3.228  0.00  0.00    +0.171 C 
ATOM      7  C   UNL     1      -2.018  -0.275  -1.860  0.00  0.00    +0.177 C 
ATOM      8  O   UNL     1      -1.146  -0.699  -1.126  0.00  0.00    -0.291 OA
ATOM      9  C   UNL     1      -4.531  -1.530  -2.729  0.00  0.00    +0.009 C 
ATOM     10  N   UNL     1      -4.690   2.242  -1.825  0.00  0.00    -0.316 N 
ATOM     11  C   UNL     1      -4.334   3.427  -1.191  0.00  0.00    +0.052 A 
ATOM     12  C   UNL     1      -4.543   4.666  -1.772  0.00  0.00    +0.025 A 
ATOM     13  C   UNL     1      -4.267   5.811  -1.045  0.00  0.00    +0.002 A 
ATOM     14  C   UNL     1      -3.785   5.718   0.248  0.00  0.00    +0.002 A 
ATOM     15  C   UNL     1      -3.555   4.479   0.822  0.00  0.00    +0.025 A 
ATOM     16  C   UNL     1      -3.815   3.331   0.091  0.00  0.00    +0.049 A 
ATOM     17  N   UNL     1      -3.557   2.064   0.610  0.00  0.00    -0.331 N 
ATOM     18  H   UNL     1      -5.629   2.103  -2.024  0.00  0.00    +0.152 HD
ATOM     19  H   UNL     1      -4.059   1.752   1.379  0.00  0.00    +0.147 HD
ENDROOT
BRANCH   1  29
ATOM     20  C   UNL     1       3.683   3.826   3.344  0.00  0.00    +0.044 C 
ATOM     21  C   UNL     1       2.799   3.641   2.137  0.00  0.00    -0.050 A 
ATOM     22  C   UNL     1       3.186   4.161   0.911  0.00  0.00    +0.007 A 
ATOM     23  C   UNL     1       2.391   4.002  -0.204  0.00  0.00    +0.047 A 
ATOM     24  C   UNL     1       1.188   3.314  -0.105  0.00  0.00    +0.138 A 
ATOM     25  C   UNL     1       0.797   2.787   1.137  0.00  0.00    +0.065 A 
ATOM     26  C   UNL     1       1.610   2.955   2.257  0.00  0.00    +0.018 A 
ATOM     27  C   UNL     1      -0.484   2.060   1.217  0.00  0.00    +0.198 A 
ATOM     28  O   UNL     1      -0.878   1.580   2.266  0.00  0.00    -0.287 OA
ATOM     29  C   UNL     1      -1.236   1.938   0.018  0.00  0.00    +0.059 A 
ATOM     30  C   UNL     1      -0.769   2.486  -1.118  0.00  0.00    +0.205 A 
ATOM     31  O   UNL     1       0.394   3.144  -1.181  0.00  0.00    -0.462 OA
ENDBRANCH   1  29
BRANCH   6  32
ATOM     32  C   UNL     1      -1.270  -0.142  -4.199  0.00  0.00    +0.318 C 
ATOM     33  O   UNL     1      -1.750   0.431  -5.148  0.00  0.00    -0.250 OA
BRANCH  32  34
ATOM     34  O   UNL     1       0.059  -0.131  -4.009  0.00  0.00    -0.467 OA
ATOM     35  C   UNL     1       0.857   0.590  -4.984  0.00  0.00    +0.280 C 
ENDBRANCH  32  34
ENDBRANCH   6  32
TORSDOF 3
