REMARK  Name = ZINC12442608
REMARK  5 active torsions:
REMARK  status: ('A' for Active; 'I' for Inactive)
REMARK    1  A    between atoms: C_1  and  C_2
REMARK    2  A    between atoms: C_11  and  C_12
REMARK    3  A    between atoms: C_15  and  O_18
REMARK    4  A    between atoms: O_18  and  C_19
REMARK    5  A    between atoms: N_22  and  C_25
REMARK                            x       y       z     vdW  Elec       q    Type
REMARK                         _______ _______ _______ _____ _____    ______ ____
ROOT
ATOM      1  C   UNL     1      -0.083   1.510   0.017  0.00  0.00    +0.045 C 
ATOM      2  C   UNL     1      -0.073   0.003   0.006  0.00  0.00    -0.033 A 
ATOM      3  C   UNL     1      -0.096  -0.674  -1.180  0.00  0.00    +0.050 A 
ATOM      4  C   UNL     1      -0.086  -2.068  -1.196  0.00  0.00    +0.131 A 
ATOM      5  C   UNL     1      -0.051  -2.782  -0.011  0.00  0.00    +0.051 A 
ATOM      6  C   UNL     1      -0.030  -2.108   1.206  0.00  0.00    +0.148 A 
ATOM      7  C   UNL     1      -0.035  -0.705   1.208  0.00  0.00    +0.071 A 
ATOM      8  C   UNL     1       0.002  -0.290   2.622  0.00  0.00    +0.232 C 
ATOM      9  O   UNL     1       0.006   0.844   3.067  0.00  0.00    -0.283 OA
ATOM     10  C   UNL     1       0.031  -1.552   3.375  0.00  0.00    +0.176 C 
ATOM     11  C   UNL     1       0.070  -1.680   4.726  0.00  0.00    +0.058 C 
ATOM     12  O   UNL     1       0.002  -2.565   2.477  0.00  0.00    -0.451 OA
ATOM     13  C   UNL     1      -0.031  -4.289  -0.015  0.00  0.00    +0.130 C 
ATOM     14  N   UNL     1      -0.468  -4.784  -1.328  0.00  0.00    -0.261 NA
ATOM     15  C   UNL     1       0.265  -4.090  -2.401  0.00  0.00    +0.319 C 
ATOM     16  O   UNL     1      -0.113  -2.712  -2.393  0.00  0.00    -0.476 OA
ENDROOT
BRANCH  14  17
ATOM     17  C   UNL     1      -0.294  -6.239  -1.427  0.00  0.00    +0.083 C 
ATOM     18  C   UNL     1       1.204  -6.586  -1.397  0.00  0.00    +0.043 C 
ATOM     19  C   UNL     1       1.413  -8.060  -1.818  0.00  0.00    +0.167 C 
ATOM     20  S   UNL     1      -0.023  -8.371  -2.925  0.00  0.00    -0.029 S 
ATOM     21  O   UNL     1      -0.840  -9.381  -2.349  0.00  0.00    -0.174 OA
ATOM     22  O   UNL     1       0.446  -8.526  -4.258  0.00  0.00    -0.174 OA
ATOM     23  C   UNL     1      -0.881  -6.748  -2.775  0.00  0.00    +0.184 C 
ENDBRANCH  14  17
BRANCH  11  24
ATOM     24  C   UNL     1      -0.016  -3.010   5.341  0.00  0.00    -0.021 A 
ATOM     25  C   UNL     1      -0.112  -3.136   6.733  0.00  0.00    +0.011 A 
ATOM     26  C   UNL     1      -0.193  -4.386   7.304  0.00  0.00    +0.046 A 
ATOM     27  C   UNL     1      -0.179  -5.522   6.502  0.00  0.00    +0.120 A 
ATOM     28  C   UNL     1      -0.083  -5.402   5.120  0.00  0.00    +0.046 A 
ATOM     29  C   UNL     1      -0.009  -4.157   4.538  0.00  0.00    +0.011 A 
BRANCH  27  30
ATOM     30  O   UNL     1      -0.258  -6.752   7.070  0.00  0.00    -0.495 OA
ATOM     31  C   UNL     1      -0.238  -7.876   6.189  0.00  0.00    +0.277 C 
ENDBRANCH  27  30
ENDBRANCH  11  24
TORSDOF 3
