REMARK  Name = ZINC37387390
REMARK  2 active torsions:
REMARK  status: ('A' for Active; 'I' for Inactive)
REMARK    1  A    between atoms: C_5  and  C_6
REMARK    2  A    between atoms: C_7  and  C_8
REMARK                            x       y       z     vdW  Elec       q    Type
REMARK                         _______ _______ _______ _____ _____    ______ ____
ROOT
ATOM      1  C   UNL     1      -1.084  -0.911   0.008  0.00  0.00    +0.020 C 
ATOM      2  C   UNL     1      -0.852  -2.248  -0.002  0.00  0.00    +0.068 C 
ENDROOT
BRANCH   1   7
ATOM      3  C   UNL     1      -0.017   1.387   0.010  0.00  0.00    +0.016 A 
ATOM      4  C   UNL     1       1.213   1.998   0.001  0.00  0.00    +0.023 A 
ATOM      5  C   UNL     1       2.332   1.230  -0.014  0.00  0.00    +0.055 A 
ATOM      6  S   UNL     1       1.752  -0.346  -0.017  0.00  0.00    -0.082 S 
ATOM      7  C   UNL     1       0.002  -0.004   0.002  0.00  0.00    +0.013 A 
ATOM      8 BR   UNL     1       4.134   1.803  -0.028  0.00  0.00    -0.043 Br
ENDBRANCH   1   7
BRANCH   2   9
ATOM      9  C   UNL     1      -1.937  -3.154   0.004  0.00  0.00    +0.234 C 
ATOM     10  O   UNL     1      -3.081  -2.735   0.018  0.00  0.00    -0.271 OA
ATOM     11  N   UNL     1      -1.707  -4.482  -0.005  0.00  0.00    -0.326 N 
ATOM     12  H   UNL     1      -0.796  -4.816  -0.016  0.00  0.00    +0.145 HD
ATOM     13  H   UNL     1      -2.451  -5.104  -0.001  0.00  0.00    +0.145 HD
ENDBRANCH   2   9
TORSDOF 2
