REMARK  Name = ZINC20267664
REMARK  7 active torsions:
REMARK  status: ('A' for Active; 'I' for Inactive)
REMARK    1  A    between atoms: C_1  and  C_2
REMARK    2  A    between atoms: C_5  and  N_9
REMARK    3  A    between atoms: C_7  and  C_8
REMARK    4  A    between atoms: C_13  and  N_14
REMARK    5  A    between atoms: N_14  and  C_15
REMARK    6  A    between atoms: C_15  and  C_16
REMARK    7  A    between atoms: C_16  and  N_17
REMARK                            x       y       z     vdW  Elec       q    Type
REMARK                         _______ _______ _______ _____ _____    ______ ____
ROOT
ATOM      1  N   UNL     1      -0.009  -4.172  -0.017  0.00  0.00    -0.190 N 
ATOM      2  C   UNL     1      -0.096  -4.827  -1.193  0.00  0.00    +0.265 C 
ATOM      3  O   UNL     1      -0.230  -4.218  -2.238  0.00  0.00    -0.269 OA
ATOM      4  C   UNL     1      -0.025  -6.298  -1.178  0.00  0.00    +0.113 C 
ATOM      5  C   UNL     1      -0.106  -7.037  -2.345  0.00  0.00    +0.085 C 
ATOM      6  C   UNL     1       0.139  -6.949   0.134  0.00  0.00    +0.258 C 
ATOM      7  N   UNL     1       0.211  -6.165   1.230  0.00  0.00    -0.235 N 
ATOM      8  C   UNL     1       0.144  -4.830   1.141  0.00  0.00    +0.320 C 
ATOM      9  O   UNL     1       0.221  -4.180   2.166  0.00  0.00    -0.251 OA
ATOM     10  O   UNL     1       0.205  -8.160   0.227  0.00  0.00    -0.270 OA
ATOM     11  H   UNL     1       0.319  -6.578   2.101  0.00  0.00    +0.159 HD
ENDROOT
BRANCH   1  16
ATOM     12  C   UNL     1      -0.275   1.497   0.026  0.00  0.00    +0.044 C 
ATOM     13  C   UNL     1      -0.204  -0.009   0.015  0.00  0.00    -0.047 A 
ATOM     14  C   UNL     1       0.987  -0.646   0.312  0.00  0.00    +0.005 A 
ATOM     15  C   UNL     1       1.054  -2.025   0.303  0.00  0.00    +0.024 A 
ATOM     16  C   UNL     1      -0.075  -2.772  -0.006  0.00  0.00    +0.046 A 
ATOM     17  C   UNL     1      -1.269  -2.130  -0.303  0.00  0.00    +0.027 A 
ATOM     18  C   UNL     1      -1.331  -0.750  -0.287  0.00  0.00    -0.046 A 
ATOM     19  C   UNL     1      -2.628  -0.051  -0.605  0.00  0.00    +0.044 C 
ENDBRANCH   1  16
BRANCH   5  20
ATOM     20  N   UNL     1      -0.117  -6.411  -3.539  0.00  0.00    -0.351 N 
ATOM     21  H   UNL     1       0.012  -5.451  -3.584  0.00  0.00    +0.145 HD
BRANCH  20  22
ATOM     22  C   UNL     1      -0.325  -7.182  -4.767  0.00  0.00    +0.082 C 
BRANCH  22  23
ATOM     23  C   UNL     1      -0.293  -6.239  -5.972  0.00  0.00    -0.060 C 
BRANCH  23  24
ATOM     24  N   UNL     1      -0.501  -7.012  -7.204  0.00  0.00    +0.381 N 
ATOM     25  C   UNL     1       0.622  -7.938  -7.394  0.00  0.00    -0.079 C 
ATOM     26  C   UNL     1       0.371  -8.802  -8.632  0.00  0.00    -0.019 C 
ATOM     27  C   UNL     1       0.239  -7.897  -9.861  0.00  0.00    -0.004 C 
ATOM     28  C   UNL     1      -0.887  -6.888  -9.620  0.00  0.00    -0.019 C 
ATOM     29  C   UNL     1      -0.590  -6.094  -8.346  0.00  0.00    -0.079 C 
ATOM     30  H   UNL     1      -1.359  -7.538  -7.129  0.00  0.00    -0.082 HD
ENDBRANCH  23  24
ENDBRANCH  22  23
ENDBRANCH  20  22
ENDBRANCH   5  20
TORSDOF 5
