REMARK  Name = ZINC12791441
REMARK  10 active torsions:
REMARK  status: ('A' for Active; 'I' for Inactive)
REMARK    1  A    between atoms: C_1  and  C_2
REMARK    2  A    between atoms: C_7  and  N_12
REMARK    3  A    between atoms: C_9  and  C_11
REMARK    4  A    between atoms: C_13  and  C_15
REMARK    5  A    between atoms: C_15  and  C_17
REMARK    6  A    between atoms: C_15  and  O_18
REMARK    7  A    between atoms: O_18  and  C_19
REMARK    8  A    between atoms: C_19  and  C_21
REMARK    9  A    between atoms: N_26  and  S_27
REMARK   10  A    between atoms: S_27  and  C_30
REMARK                            x       y       z     vdW  Elec       q    Type
REMARK                         _______ _______ _______ _____ _____    ______ ____
ROOT
ATOM      1  C   UNL     1      -1.519   2.789  -0.737  0.00  0.00    +0.188 C 
ATOM      2  C   UNL     1      -1.232   3.013   0.763  0.00  0.00    +0.033 C 
ATOM      3  C   UNL     1      -0.783   1.608   1.247  0.00  0.00    +0.019 C 
ATOM      4  C   UNL     1      -0.013   1.086   0.008  0.00  0.00    +0.110 C 
ATOM      5  N   UNL     1      -0.768   1.595  -1.151  0.00  0.00    -0.163 NA
ENDROOT
BRANCH   5   6
ATOM      6  S   UNL     1      -0.770   0.932  -2.668  0.00  0.00    +0.062 S 
ATOM      7  O   UNL     1      -1.127   1.974  -3.567  0.00  0.00    -0.153 OA
ATOM      8  O   UNL     1       0.441   0.200  -2.794  0.00  0.00    -0.153 OA
BRANCH   6   9
ATOM      9  C   UNL     1      -2.078  -0.247  -2.720  0.00  0.00    +0.109 A 
ATOM     10  C   UNL     1      -1.835  -1.563  -2.373  0.00  0.00    +0.032 A 
ATOM     11  C   UNL     1      -2.859  -2.491  -2.409  0.00  0.00    +0.051 A 
ATOM     12  C   UNL     1      -4.132  -2.105  -2.802  0.00  0.00    +0.162 A 
ATOM     13  C   UNL     1      -4.376  -0.782  -3.153  0.00  0.00    +0.164 A 
ATOM     14  C   UNL     1      -3.345   0.144  -3.111  0.00  0.00    +0.078 A 
ATOM     15  O   UNL     1      -5.620  -0.381  -3.533  0.00  0.00    -0.485 OA
ATOM     16  C   UNL     1      -6.538  -1.409  -3.921  0.00  0.00    +0.270 C 
ATOM     17  C   UNL     1      -6.470  -2.533  -2.877  0.00  0.00    +0.270 C 
ATOM     18  O   UNL     1      -5.128  -3.032  -2.843  0.00  0.00    -0.485 OA
ENDBRANCH   6   9
ENDBRANCH   5   6
BRANCH   1  19
ATOM     19  C   UNL     1      -1.062   3.984  -1.533  0.00  0.00    +0.327 C 
ATOM     20  O   UNL     1      -0.196   3.860  -2.366  0.00  0.00    -0.249 OA
BRANCH  19  21
ATOM     21  O   UNL     1      -1.618   5.187  -1.317  0.00  0.00    -0.451 OA
BRANCH  21  22
ATOM     22  C   UNL     1      -1.129   6.293  -2.121  0.00  0.00    +0.258 C 
ATOM     23  C   UNL     1       0.044   6.964  -1.404  0.00  0.00    +0.062 C 
BRANCH  22  25
ATOM     24  N   UNL     1      -2.042   8.361  -3.124  0.00  0.00    -0.309 N 
ATOM     25  C   UNL     1      -2.236   7.295  -2.322  0.00  0.00    +0.254 C 
ATOM     26  O   UNL     1      -3.301   7.144  -1.762  0.00  0.00    -0.272 OA
ATOM     27  H   UNL     1      -1.190   8.482  -3.572  0.00  0.00    +0.149 HD
BRANCH  24  33
ATOM     28  C   UNL     1      -4.434  11.857  -2.614  0.00  0.00    +0.008 C 
ATOM     29  C   UNL     1      -3.640  11.706  -3.913  0.00  0.00    -0.009 C 
ATOM     30  C   UNL     1      -4.571  11.222  -5.027  0.00  0.00    +0.003 C 
ATOM     31  C   UNL     1      -5.173   9.870  -4.637  0.00  0.00    +0.002 C 
ATOM     32  C   UNL     1      -4.049   8.852  -4.433  0.00  0.00    +0.022 C 
ATOM     33  C   UNL     1      -3.118   9.336  -3.320  0.00  0.00    +0.076 C 
ATOM     34  C   UNL     1      -2.517  10.688  -3.709  0.00  0.00    +0.009 C 
ATOM     35  C   UNL     1      -1.586  11.172  -2.596  0.00  0.00    +0.009 C 
ENDBRANCH  24  33
ENDBRANCH  22  25
ENDBRANCH  21  22
ENDBRANCH  19  21
ENDBRANCH   1  19
TORSDOF 7
