REMARK  Name = ZINC32136098
REMARK  11 active torsions:
REMARK  status: ('A' for Active; 'I' for Inactive)
REMARK    1  A    between atoms: C_1  and  C_2
REMARK    2  A    between atoms: C_2  and  O_3
REMARK    3  A    between atoms: O_3  and  C_4
REMARK    4  A    between atoms: C_4  and  C_6
REMARK    5  A    between atoms: C_9  and  N_12
REMARK    6  A    between atoms: N_12  and  C_13
REMARK    7  A    between atoms: C_13  and  N_15
REMARK    8  A    between atoms: N_15  and  C_16
REMARK    9  A    between atoms: C_18  and  O_28
REMARK   10  A    between atoms: C_20  and  O_27
REMARK   11  A    between atoms: C_22  and  O_26
REMARK                            x       y       z     vdW  Elec       q    Type
REMARK                         _______ _______ _______ _____ _____    ______ ____
ROOT
ATOM      1  C   UNL     1      -2.527   0.961  -3.657  0.00  0.00    +0.136 C 
ATOM      2  S   UNL     1      -1.657  -0.513  -3.694  0.00  0.00    -0.018 S 
ENDROOT
BRANCH   1   3
ATOM      3  N   UNL     1      -3.298   1.314  -4.705  0.00  0.00    -0.297 N 
ATOM      4  H   UNL     1      -3.928   2.214  -4.645  0.00  0.00    +0.154 HD
BRANCH   3   8
ATOM      5  C   UNL     1      -3.296  -1.000  -8.167  0.00  0.00    +0.059 A 
ATOM      6  C   UNL     1      -4.498  -0.495  -7.663  0.00  0.00    +0.017 A 
ATOM      7  C   UNL     1      -4.495   0.270  -6.518  0.00  0.00    +0.024 A 
ATOM      8  C   UNL     1      -3.298   0.539  -5.863  0.00  0.00    +0.033 A 
ATOM      9  C   UNL     1      -2.099   0.042  -6.365  0.00  0.00    +0.024 A 
ATOM     10  C   UNL     1      -2.095  -0.727  -7.506  0.00  0.00    +0.017 A 
BRANCH   5  11
ATOM     11  C   UNL     1      -3.295  -1.819  -9.393  0.00  0.00    +0.339 C 
ATOM     12  O   UNL     1      -4.340  -2.055  -9.967  0.00  0.00    -0.245 OA
BRANCH  11  13
ATOM     13  O   UNL     1      -2.135  -2.306  -9.877  0.00  0.00    -0.461 OA
BRANCH  13  15
ATOM     14  C   UNL     1      -0.805  -3.565 -11.482  0.00  0.00    +0.048 C 
ATOM     15  C   UNL     1      -2.210  -3.104 -11.088  0.00  0.00    +0.229 C 
ENDBRANCH  13  15
ENDBRANCH  11  13
ENDBRANCH   5  11
ENDBRANCH   3   8
ENDBRANCH   1   3
BRANCH   1  16
ATOM     16  N   UNL     1      -2.442   1.768  -2.581  0.00  0.00    -0.299 N 
ATOM     17  H   UNL     1      -3.001   2.714  -2.558  0.00  0.00    +0.150 HD
BRANCH  16  18
ATOM     18  C   UNL     1      -1.604   1.384  -1.442  0.00  0.00    +0.236 C 
ATOM     19  C   UNL     1      -2.318   1.746  -0.138  0.00  0.00    +0.192 C 
ATOM     20  C   UNL     1      -1.410   1.397   1.046  0.00  0.00    +0.178 C 
ATOM     21  C   UNL     1      -0.077   2.135   0.888  0.00  0.00    +0.171 C 
ATOM     22  C   UNL     1       0.550   1.758  -0.456  0.00  0.00    +0.196 C 
ATOM     23  O   UNL     1      -0.358   2.080  -1.512  0.00  0.00    -0.354 OA
BRANCH  21  24
ATOM     24  O   UNL     1      -0.304   3.546   0.930  0.00  0.00    -0.387 OA
ATOM     25  H   UNL     1       0.542   4.242   0.832  0.00  0.00    +0.210 HD
ENDBRANCH  21  24
BRANCH  20  26
ATOM     26  O   UNL     1      -2.039   1.798   2.265  0.00  0.00    -0.386 OA
ATOM     27  H   UNL     1      -1.533   1.627   3.227  0.00  0.00    +0.210 HD
ENDBRANCH  20  26
BRANCH  19  28
ATOM     28  O   UNL     1      -3.537   1.008  -0.040  0.00  0.00    -0.385 OA
ATOM     29  H   UNL     1      -4.190   1.138   0.836  0.00  0.00    +0.210 HD
ENDBRANCH  19  28
ENDBRANCH  16  18
ENDBRANCH   1  16
TORSDOF 10
