REMARK  Name = ZINC41514591
REMARK  10 active torsions:
REMARK  status: ('A' for Active; 'I' for Inactive)
REMARK    1  A    between atoms: C_1  and  C_2
REMARK    2  A    between atoms: C_2  and  C_3
REMARK    3  A    between atoms: C_6  and  C_9
REMARK    4  A    between atoms: C_14  and  C_31
REMARK    5  A    between atoms: C_16  and  O_30
REMARK    6  A    between atoms: C_17  and  C_20
REMARK    7  A    between atoms: C_20  and  N_21
REMARK    8  A    between atoms: N_21  and  C_22
REMARK    9  A    between atoms: N_21  and  C_23
REMARK   10  A    between atoms: C_23  and  C_24
REMARK                            x       y       z     vdW  Elec       q    Type
REMARK                         _______ _______ _______ _____ _____    ______ ____
ROOT
ATOM      1  C   UNL     1       2.782  -1.908   4.658  0.00  0.00    +0.058 C 
ATOM      2  C   UNL     1       2.117  -2.059   5.830  0.00  0.00    +0.176 C 
ATOM      3  C   UNL     1       2.710  -2.429   7.126  0.00  0.00    +0.232 C 
ATOM      4  O   UNL     1       3.881  -2.662   7.370  0.00  0.00    -0.283 OA
ATOM      5  C   UNL     1       1.571  -2.454   8.060  0.00  0.00    +0.071 A 
ATOM      6  C   UNL     1       1.460  -2.731   9.424  0.00  0.00    -0.033 A 
ATOM      7  C   UNL     1       0.239  -2.674  10.033  0.00  0.00    +0.050 A 
ATOM      8  C   UNL     1      -0.895  -2.340   9.297  0.00  0.00    +0.122 A 
ATOM      9  C   UNL     1      -0.800  -2.063   7.943  0.00  0.00    +0.020 A 
ATOM     10  C   UNL     1       0.434  -2.116   7.308  0.00  0.00    +0.145 A 
ATOM     11  O   UNL     1       0.788  -1.889   6.024  0.00  0.00    -0.451 OA
ATOM     12  C   UNL     1       2.686  -3.093  10.222  0.00  0.00    +0.045 C 
ENDROOT
BRANCH   1  16
ATOM     13  C   UNL     1       0.734  -0.489   1.227  0.00  0.00    -0.048 A 
ATOM     14  C   UNL     1       0.028  -0.762   2.386  0.00  0.00    +0.004 A 
ATOM     15  C   UNL     1       0.686  -1.224   3.506  0.00  0.00    +0.008 A 
ATOM     16  C   UNL     1       2.072  -1.417   3.469  0.00  0.00    -0.021 A 
ATOM     17  C   UNL     1       2.778  -1.138   2.293  0.00  0.00    +0.008 A 
ATOM     18  C   UNL     1       2.104  -0.682   1.180  0.00  0.00    +0.004 A 
BRANCH  13  20
ATOM     19  C   UNL     1      -0.446  -1.172  -0.844  0.00  0.00    +0.009 C 
ATOM     20  C   UNL     1       0.007   0.016   0.007  0.00  0.00    +0.032 C 
ENDBRANCH  13  20
ENDBRANCH   1  16
BRANCH   8  21
ATOM     21  O   UNL     1      -2.104  -2.286   9.912  0.00  0.00    -0.506 OA
ATOM     22  H   UNL     1      -2.323  -1.417  10.274  0.00  0.00    +0.292 HD
ENDBRANCH   8  21
BRANCH   9  23
ATOM     23  C   UNL     1      -2.036  -1.703   7.159  0.00  0.00    -0.035 C 
BRANCH  23  24
ATOM     24  N   UNL     1      -2.232  -0.248   7.193  0.00  0.00    +0.383 N 
ATOM     25  C   UNL     1      -2.509   0.177   8.572  0.00  0.00    -0.095 C 
ATOM     26  H   UNL     1      -1.397   0.211   6.861  0.00  0.00    -0.081 HD
BRANCH  24  27
ATOM     27  C   UNL     1      -3.365   0.114   6.332  0.00  0.00    -0.043 C 
BRANCH  27  28
ATOM     28  C   UNL     1      -3.489   1.615   6.269  0.00  0.00    -0.064 A 
ATOM     29  C   UNL     1      -4.270   2.283   7.194  0.00  0.00    +0.002 A 
ATOM     30  C   UNL     1      -4.384   3.659   7.136  0.00  0.00    +0.000 A 
ATOM     31  C   UNL     1      -3.717   4.368   6.154  0.00  0.00    +0.000 A 
ATOM     32  C   UNL     1      -2.936   3.700   5.230  0.00  0.00    +0.000 A 
ATOM     33  C   UNL     1      -2.818   2.323   5.290  0.00  0.00    +0.002 A 
ENDBRANCH  27  28
ENDBRANCH  24  27
ENDBRANCH  23  24
ENDBRANCH   9  23
TORSDOF 7
