REMARK  Name = ZINC36555343
REMARK  14 active torsions:
REMARK  status: ('A' for Active; 'I' for Inactive)
REMARK    1  A    between atoms: C_1  and  C_2
REMARK    2  A    between atoms: C_5  and  C_7
REMARK    3  A    between atoms: C_7  and  N_8
REMARK    4  A    between atoms: N_8  and  C_9
REMARK    5  A    between atoms: C_9  and  C_11
REMARK    6  A    between atoms: C_9  and  C_18
REMARK    7  A    between atoms: C_14  and  O_17
REMARK    8  A    between atoms: N_20  and  C_21
REMARK    9  A    between atoms: C_21  and  C_22
REMARK   10  A    between atoms: C_21  and  C_23
REMARK   11  A    between atoms: C_21  and  C_24
REMARK   12  A    between atoms: C_25  and  C_27
REMARK   13  A    between atoms: C_27  and  C_35
REMARK   14  A    between atoms: C_28  and  C_29
REMARK                            x       y       z     vdW  Elec       q    Type
REMARK                         _______ _______ _______ _____ _____    ______ ____
ROOT
ATOM      1  N   UNL     1       2.811  -4.105  -2.038  0.00  0.00    -0.275 N 
ATOM      2  C   UNL     1       1.948  -4.763  -2.838  0.00  0.00    +0.248 C 
ATOM      3  O   UNL     1       1.460  -4.200  -3.799  0.00  0.00    -0.270 OA
ENDROOT
BRANCH   2   4
ATOM      4  C   UNL     1       1.597  -6.163  -2.549  0.00  0.00    +0.045 C 
ATOM      5  C   UNL     1       1.535  -7.071  -3.559  0.00  0.00    +0.021 C 
BRANCH   5   6
ATOM      6  C   UNL     1       0.910  -8.381  -3.331  0.00  0.00    -0.024 A 
ATOM      7  C   UNL     1       1.318  -9.494  -4.076  0.00  0.00    +0.008 A 
ATOM      8  C   UNL     1       0.727 -10.720  -3.856  0.00  0.00    +0.001 A 
ATOM      9  C   UNL     1      -0.266 -10.852  -2.901  0.00  0.00    +0.000 A 
ATOM     10  C   UNL     1      -0.675  -9.757  -2.160  0.00  0.00    +0.001 A 
ATOM     11  C   UNL     1      -0.091  -8.525  -2.364  0.00  0.00    +0.008 A 
ENDBRANCH   5   6
BRANCH   4  12
ATOM     12  C   UNL     1       1.312  -6.582  -1.157  0.00  0.00    -0.013 A 
ATOM     13  C   UNL     1       0.350  -5.907  -0.405  0.00  0.00    +0.008 A 
ATOM     14  C   UNL     1       0.089  -6.302   0.890  0.00  0.00    +0.001 A 
ATOM     15  C   UNL     1       0.779  -7.366   1.444  0.00  0.00    +0.000 A 
ATOM     16  C   UNL     1       1.735  -8.039   0.704  0.00  0.00    +0.001 A 
ATOM     17  C   UNL     1       2.000  -7.657  -0.595  0.00  0.00    +0.008 A 
ENDBRANCH   4  12
ENDBRANCH   2   4
BRANCH   1  18
ATOM     18  C   UNL     1       3.293  -4.735  -0.806  0.00  0.00    +0.183 C 
BRANCH  18  23
ATOM     19  C   UNL     1       5.901  -8.893  -1.969  0.00  0.00    +0.086 C 
ATOM     20  C   UNL     1       5.580  -7.459  -1.634  0.00  0.00    +0.102 A 
ATOM     21  C   UNL     1       6.471  -6.458  -1.526  0.00  0.00    +0.045 A 
ATOM     22  C   UNL     1       5.740  -5.292  -1.200  0.00  0.00    +0.046 A 
ATOM     23  C   UNL     1       4.446  -5.651  -1.129  0.00  0.00    +0.122 A 
ATOM     24  O   UNL     1       4.354  -6.964  -1.398  0.00  0.00    -0.463 OA
ENDBRANCH  18  23
ENDBRANCH   1  18
BRANCH   1  25
ATOM     25  C   UNL     1       3.266  -2.761  -2.400  0.00  0.00    +0.193 C 
BRANCH  25  26
ATOM     26  C   UNL     1       2.120  -1.791  -2.273  0.00  0.00    -0.018 A 
ATOM     27  C   UNL     1       0.817  -2.255  -2.297  0.00  0.00    +0.009 A 
ATOM     28  C   UNL     1      -0.235  -1.368  -2.181  0.00  0.00    +0.046 A 
ATOM     29  C   UNL     1       0.015  -0.011  -2.039  0.00  0.00    +0.117 A 
ATOM     30  C   UNL     1       1.323   0.452  -2.015  0.00  0.00    +0.046 A 
ATOM     31  C   UNL     1       2.372  -0.439  -2.126  0.00  0.00    +0.009 A 
BRANCH  29  32
ATOM     32  O   UNL     1      -1.019   0.864  -1.926  0.00  0.00    -0.507 OA
ATOM     33  H   UNL     1      -1.302   1.022  -1.014  0.00  0.00    +0.292 HD
ENDBRANCH  29  32
ENDBRANCH  25  26
BRANCH  25  34
ATOM     34  C   UNL     1       3.765  -2.765  -3.822  0.00  0.00    +0.239 C 
ATOM     35  O   UNL     1       3.733  -3.788  -4.473  0.00  0.00    -0.273 OA
ATOM     36  N   UNL     1       4.247  -1.632  -4.371  0.00  0.00    -0.309 N 
ATOM     37  H   UNL     1       4.272  -0.814  -3.850  0.00  0.00    +0.149 HD
BRANCH  36  38
ATOM     38  C   UNL     1       4.731  -1.637  -5.753  0.00  0.00    +0.026 C 
ATOM     39  C   UNL     1       3.594  -2.047  -6.691  0.00  0.00    +0.031 C 
ATOM     40  C   UNL     1       5.220  -0.235  -6.127  0.00  0.00    +0.031 C 
ATOM     41  C   UNL     1       5.886  -2.631  -5.886  0.00  0.00    +0.031 C 
ENDBRANCH  36  38
ENDBRANCH  25  34
ENDBRANCH   1  25
TORSDOF 10
