REMARK  Name = ZINC27358916
REMARK  8 active torsions:
REMARK  status: ('A' for Active; 'I' for Inactive)
REMARK    1  A    between atoms: C_1  and  C_2
REMARK    2  A    between atoms: C_7  and  C_8
REMARK    3  A    between atoms: C_8  and  N_9
REMARK    4  A    between atoms: N_12  and  C_15
REMARK    5  A    between atoms: C_15  and  C_17
REMARK    6  A    between atoms: C_15  and  C_18
REMARK    7  A    between atoms: N_24  and  C_25
REMARK    8  A    between atoms: N_24  and  C_26
REMARK                            x       y       z     vdW  Elec       q    Type
REMARK                         _______ _______ _______ _____ _____    ______ ____
ROOT
ATOM      1  N   UNL     1      -1.967   4.521   3.353  0.00  0.00    -0.302 NA
ATOM      2  C   UNL     1      -2.322   5.000   2.010  0.00  0.00    +0.066 C 
ATOM      3  C   UNL     1      -2.333   3.819   1.036  0.00  0.00    -0.062 C 
ATOM      4  N   UNL     1      -1.010   3.179   1.032  0.00  0.00    +0.388 N 
ATOM      5  C   UNL     1      -0.655   2.700   2.375  0.00  0.00    -0.062 C 
ATOM      6  C   UNL     1      -0.644   3.881   3.349  0.00  0.00    +0.066 C 
ATOM      7  H   UNL     1      -0.268   3.934   0.733  0.00  0.00    -0.081 HD
ENDROOT
BRANCH   4   8
ATOM      8  C   UNL     1      -0.958   2.085   0.052  0.00  0.00    -0.002 C 
ATOM      9  C   UNL     1      -1.240   2.639  -1.346  0.00  0.00    -0.005 C 
BRANCH   8  10
ATOM     10  C   UNL     1       0.410   1.454   0.076  0.00  0.00    +0.123 A 
ATOM     11  N   UNL     1       1.488   2.219   0.091  0.00  0.00    -0.201 NA
ATOM     12  C   UNL     1       2.699   1.665   0.106  0.00  0.00    +0.217 A 
ATOM     13  N   UNL     1       2.822   0.342   0.107  0.00  0.00    -0.181 NA
ATOM     14  C   UNL     1       1.736  -0.423   0.092  0.00  0.00    +0.222 A 
ATOM     15  N   UNL     1       0.529   0.138   0.077  0.00  0.00    -0.201 NA
ATOM     16  N   UNL     1       1.859  -1.797   0.093  0.00  0.00    -0.306 N 
ATOM     17  C   UNL     1       0.661  -2.640   0.078  0.00  0.00    +0.132 C 
ATOM     18  C   UNL     1       3.188  -2.413   0.111  0.00  0.00    +0.132 C 
ATOM     19  N   UNL     1       3.824   2.464   0.122  0.00  0.00    -0.327 N 
ATOM     20  H   UNL     1       4.824   2.006   0.135  0.00  0.00    +0.145 HD
ATOM     21  H   UNL     1       3.721   3.559   0.122  0.00  0.00    +0.145 HD
ENDBRANCH   8  10
ENDBRANCH   4   8
BRANCH   1  22
ATOM     22  C   UNL     1      -2.019   5.614   4.333  0.00  0.00    +0.119 C 
BRANCH  22  29
ATOM     23  C   UNL     1      -4.414   4.365   5.360  0.00  0.00    +0.044 C 
ATOM     24  C   UNL     1      -3.177   4.442   6.218  0.00  0.00    -0.046 A 
ATOM     25  C   UNL     1      -3.188   3.915   7.496  0.00  0.00    +0.003 A 
ATOM     26  C   UNL     1      -2.053   3.986   8.282  0.00  0.00    +0.000 A 
ATOM     27  C   UNL     1      -0.908   4.583   7.791  0.00  0.00    +0.000 A 
ATOM     28  C   UNL     1      -0.895   5.106   6.511  0.00  0.00    +0.005 A 
ATOM     29  C   UNL     1      -2.031   5.040   5.726  0.00  0.00    -0.030 A 
ENDBRANCH  22  29
ENDBRANCH   1  22
TORSDOF 4
