REMARK  Name = ZINC40720492
REMARK  12 active torsions:
REMARK  status: ('A' for Active; 'I' for Inactive)
REMARK    1  A    between atoms: C_1  and  C_2
REMARK    2  A    between atoms: C_2  and  N_3
REMARK    3  A    between atoms: C_7  and  C_9
REMARK    4  A    between atoms: C_9  and  N_10
REMARK    5  A    between atoms: N_10  and  C_11
REMARK    6  A    between atoms: C_11  and  C_12
REMARK    7  A    between atoms: C_14  and  O_28
REMARK    8  A    between atoms: C_15  and  O_19
REMARK    9  A    between atoms: O_19  and  C_20
REMARK   10  A    between atoms: C_20  and  C_21
REMARK   11  A    between atoms: O_28  and  C_29
REMARK   12  A    between atoms: C_29  and  C_30
REMARK                            x       y       z     vdW  Elec       q    Type
REMARK                         _______ _______ _______ _____ _____    ______ ____
ROOT
ATOM      1  C   UNL     1      -1.674  -0.993  -5.007  0.00  0.00    -0.060 A 
ATOM      2  C   UNL     1      -2.131   0.281  -5.293  0.00  0.00    +0.051 A 
ATOM      3  C   UNL     1      -1.566   1.003  -6.332  0.00  0.00    +0.163 A 
ATOM      4  C   UNL     1      -0.538   0.444  -7.085  0.00  0.00    +0.176 A 
ATOM      5  C   UNL     1      -0.084  -0.833  -6.794  0.00  0.00    +0.063 A 
ATOM      6  C   UNL     1      -0.650  -1.547  -5.752  0.00  0.00    +0.021 A 
ATOM      7 BR   UNL     1       1.312  -1.597  -7.815  0.00  0.00    -0.046 Br
ENDROOT
BRANCH   1   8
ATOM      8  C   UNL     1      -2.290  -1.776  -3.877  0.00  0.00    -0.047 C 
BRANCH   8   9
ATOM      9  N   UNL     1      -1.562  -1.495  -2.632  0.00  0.00    +0.383 N 
ATOM     10  H   UNL     1      -1.617  -0.509  -2.426  0.00  0.00    -0.085 HD
ATOM     11  H   UNL     1      -0.596  -1.764  -2.740  0.00  0.00    -0.085 HD
BRANCH   9  12
ATOM     12  C   UNL     1      -2.163  -2.259  -1.530  0.00  0.00    -0.063 C 
BRANCH  12  17
ATOM     13  N   UNL     1      -1.376  -0.512   0.012  0.00  0.00    -0.301 NA
ATOM     14  C   UNL     1      -2.031  -0.242   1.310  0.00  0.00    +0.084 C 
ATOM     15  C   UNL     1      -2.976  -1.449   1.535  0.00  0.00    +0.017 C 
ATOM     16  C   UNL     1      -2.134  -2.618   0.959  0.00  0.00    +0.018 C 
ATOM     17  C   UNL     1      -1.405  -1.966  -0.234  0.00  0.00    +0.040 C 
BRANCH  13  19
ATOM     18  C   UNL     1      -0.019   1.526   0.010  0.00  0.00    +0.020 C 
ATOM     19  C   UNL     1       0.002  -0.004   0.002  0.00  0.00    +0.081 C 
ENDBRANCH  13  19
ENDBRANCH  12  17
ENDBRANCH   9  12
ENDBRANCH   8   9
ENDBRANCH   1   8
BRANCH   4  20
ATOM     20  O   UNL     1       0.019   1.149  -8.106  0.00  0.00    -0.483 OA
BRANCH  20  21
ATOM     21  C   UNL     1       1.142   1.974  -7.788  0.00  0.00    +0.264 C 
BRANCH  21  22
ATOM     22  C   UNL     1       1.621   2.672  -9.034  0.00  0.00    -0.009 A 
ATOM     23  C   UNL     1       2.575   2.075  -9.838  0.00  0.00    +0.007 A 
ATOM     24  C   UNL     1       3.015   2.715 -10.981  0.00  0.00    +0.002 A 
ATOM     25  C   UNL     1       2.503   3.953 -11.322  0.00  0.00    +0.020 A 
ATOM     26  C   UNL     1       1.549   4.551 -10.518  0.00  0.00    +0.041 A 
ATOM     27  C   UNL     1       1.104   3.907  -9.377  0.00  0.00    +0.027 A 
ATOM     28 CL   UNL     1       0.905   6.106 -10.944  0.00  0.00    -0.084 Cl
ENDBRANCH  21  22
ENDBRANCH  20  21
ENDBRANCH   4  20
BRANCH   3  29
ATOM     29  O   UNL     1      -2.015   2.255  -6.614  0.00  0.00    -0.489 OA
BRANCH  29  30
ATOM     30  C   UNL     1      -3.072   2.764  -5.799  0.00  0.00    +0.226 C 
ATOM     31  C   UNL     1      -3.440   4.175  -6.264  0.00  0.00    +0.048 C 
ENDBRANCH  29  30
ENDBRANCH   3  29
TORSDOF 10
