REMARK  Name = ZINC49812681
REMARK  4 active torsions:
REMARK  status: ('A' for Active; 'I' for Inactive)
REMARK    1  A    between atoms: C_1  and  C_2
REMARK    2  A    between atoms: C_2  and  C_3
REMARK    3  A    between atoms: C_8  and  C_16
REMARK    4  A    between atoms: C_10  and  C_15
REMARK                            x       y       z     vdW  Elec       q    Type
REMARK                         _______ _______ _______ _____ _____    ______ ____
ROOT
ATOM      1  C   UNL     1       0.770  -0.383  -1.266  0.00  0.00    +0.079 C 
ATOM      2  C   UNL     1       0.900  -1.904  -1.345  0.00  0.00    +0.049 C 
ATOM      3  C   UNL     1       1.393  -2.300  -2.713  0.00  0.00    -0.025 A 
ATOM      4  C   UNL     1       2.215  -3.402  -2.858  0.00  0.00    +0.008 A 
ATOM      5  C   UNL     1       2.658  -3.774  -4.114  0.00  0.00    -0.050 A 
ATOM      6  C   UNL     1       2.279  -3.047  -5.228  0.00  0.00    +0.008 A 
ATOM      7  C   UNL     1       1.462  -1.943  -5.088  0.00  0.00    -0.029 A 
ATOM      8  C   UNL     1       1.021  -1.562  -3.827  0.00  0.00    +0.040 A 
ATOM      9  N   UNL     1       0.222  -0.424  -3.682  0.00  0.00    -0.285 N 
ATOM     10  C   UNL     1       0.027   0.128  -2.472  0.00  0.00    +0.221 C 
ATOM     11  O   UNL     1      -0.754   1.048  -2.351  0.00  0.00    -0.275 OA
ATOM     12  C   UNL     1       1.049  -1.151  -6.303  0.00  0.00    +0.045 C 
ATOM     13  C   UNL     1       3.555  -4.975  -4.269  0.00  0.00    +0.044 C 
ATOM     14  H   UNL     1      -0.197  -0.029  -4.463  0.00  0.00    +0.155 HD
ENDROOT
BRANCH   1  16
ATOM     15  C   UNL     1       0.822  -0.399   1.232  0.00  0.00    +0.004 C 
ATOM     16  C   UNL     1       0.002  -0.004   0.002  0.00  0.00    +0.010 C 
ENDBRANCH   1  16
TORSDOF 1
