REMARK  Name = ZINC06812237
REMARK  9 active torsions:
REMARK  status: ('A' for Active; 'I' for Inactive)
REMARK    1  A    between atoms: C_1  and  C_2
REMARK    2  A    between atoms: C_2  and  C_3
REMARK    3  A    between atoms: C_3  and  C_4
REMARK    4  A    between atoms: C_10  and  C_26
REMARK    5  A    between atoms: C_12  and  C_15
REMARK    6  A    between atoms: N_17  and  C_18
REMARK    7  A    between atoms: C_20  and  C_25
REMARK    8  A    between atoms: C_22  and  C_24
REMARK    9  A    between atoms: C_29  and  C_32
REMARK                            x       y       z     vdW  Elec       q    Type
REMARK                         _______ _______ _______ _____ _____    ______ ____
ROOT
ATOM      1  C   UNL     1      -1.204   2.023   0.038  0.00  0.00    +0.151 A 
ATOM      2  N   UNL     1      -1.925   0.949  -0.131  0.00  0.00    -0.132 NA
ATOM      3  N   UNL     1      -1.163  -0.084  -0.240  0.00  0.00    -0.121 NA
ATOM      4  C   UNL     1       0.084   0.285  -0.147  0.00  0.00    +0.209 A 
ATOM      5  N   UNL     1       0.106   1.638   0.040  0.00  0.00    -0.225 N 
ATOM      6  N   UNL     1       1.202   2.424   0.202  0.00  0.00    -0.272 N 
ATOM      7  C   UNL     1       2.432   1.835  -0.328  0.00  0.00    +0.140 C 
ATOM      8  C   UNL     1       2.729   0.499   0.365  0.00  0.00    +0.166 C 
ATOM      9  S   UNL     1       1.530  -0.724  -0.244  0.00  0.00    -0.069 S 
ATOM     10  H   UNL     1       1.046   3.344  -0.183  0.00  0.00    +0.167 HD
ENDROOT
BRANCH   7  11
ATOM     11  C   UNL     1       3.579   2.784  -0.095  0.00  0.00    -0.024 A 
ATOM     12  C   UNL     1       3.676   3.470   1.101  0.00  0.00    +0.006 A 
ATOM     13  C   UNL     1       4.731   4.337   1.317  0.00  0.00    +0.004 A 
ATOM     14  C   UNL     1       5.684   4.525   0.334  0.00  0.00    -0.050 A 
ATOM     15  C   UNL     1       5.584   3.843  -0.865  0.00  0.00    +0.004 A 
ATOM     16  C   UNL     1       4.532   2.973  -1.079  0.00  0.00    +0.006 A 
ATOM     17  C   UNL     1       6.831   5.474   0.567  0.00  0.00    +0.044 C 
ENDBRANCH   7  11
BRANCH   8  18
ATOM     18  C   UNL     1       4.129   0.051   0.033  0.00  0.00    +0.233 C 
ATOM     19  O   UNL     1       4.638   0.380  -1.018  0.00  0.00    -0.274 OA
ATOM     20  N   UNL     1       4.816  -0.717   0.902  0.00  0.00    -0.285 N 
ATOM     21  H   UNL     1       4.440  -0.917   1.774  0.00  0.00    +0.155 HD
BRANCH  20  22
ATOM     22  C   UNL     1       6.070  -1.225   0.548  0.00  0.00    +0.034 A 
ATOM     23  C   UNL     1       7.055  -1.383   1.514  0.00  0.00    +0.026 A 
ATOM     24  C   UNL     1       8.291  -1.889   1.162  0.00  0.00    -0.048 A 
ATOM     25  C   UNL     1       8.552  -2.228  -0.153  0.00  0.00    +0.006 A 
ATOM     26  C   UNL     1       7.575  -2.067  -1.118  0.00  0.00    -0.048 A 
ATOM     27  C   UNL     1       6.335  -1.567  -0.772  0.00  0.00    +0.026 A 
ATOM     28  C   UNL     1       7.863  -2.438  -2.550  0.00  0.00    +0.044 C 
ATOM     29  C   UNL     1       9.359  -2.065   2.211  0.00  0.00    +0.044 C 
ENDBRANCH  20  22
ENDBRANCH   8  18
BRANCH   1  30
ATOM     30  C   UNL     1      -1.721   3.429   0.202  0.00  0.00    +0.078 C 
BRANCH  30  32
ATOM     31  C   UNL     1      -2.363   5.520  -1.005  0.00  0.00    +0.004 C 
ATOM     32  C   UNL     1      -1.838   4.093  -1.172  0.00  0.00    +0.004 C 
ENDBRANCH  30  32
ENDBRANCH   1  30
TORSDOF 5
