REMARK  Name = ZINC01102774
REMARK  6 active torsions:
REMARK  status: ('A' for Active; 'I' for Inactive)
REMARK    1  A    between atoms: C_12  and  C_14
REMARK    2  A    between atoms: N_16  and  N_17
REMARK    3  A    between atoms: C_18  and  C_19
REMARK    4  A    between atoms: C_22  and  O_25
REMARK    5  A    between atoms: O_25  and  C_26
REMARK    6  A    between atoms: C_26  and  C_27
REMARK                            x       y       z     vdW  Elec       q    Type
REMARK                         _______ _______ _______ _____ _____    ______ ____
ROOT
ATOM      1  C   UNL     1       5.901   4.927  -0.030  0.00  0.00    +0.299 C 
ATOM      2  O   UNL     1       6.602   3.932  -0.043  0.00  0.00    -0.265 OA
ATOM      3  N   UNL     1       6.468   6.150  -0.029  0.00  0.00    -0.200 N 
ATOM      4  H   UNL     1       5.909   6.943  -0.019  0.00  0.00    +0.178 HD
ENDROOT
BRANCH   1  16
ATOM      5  C   UNL     1      -1.232   1.746   0.017  0.00  0.00    +0.001 A 
ATOM      6  C   UNL     1      -0.013   1.076   0.008  0.00  0.00    +0.001 A 
ATOM      7  C   UNL     1       1.165   1.765   0.000  0.00  0.00    +0.009 A 
ATOM      8  C   UNL     1       1.149   3.163   0.008  0.00  0.00    -0.007 A 
ATOM      9  C   UNL     1      -0.090   3.848   0.024  0.00  0.00    -0.017 A 
ATOM     10  C   UNL     1      -1.283   3.108   0.031  0.00  0.00    +0.008 A 
ATOM     11  C   UNL     1      -0.104   5.257   0.030  0.00  0.00    +0.012 A 
ATOM     12  C   UNL     1       1.049   5.970   0.022  0.00  0.00    +0.047 A 
ATOM     13  C   UNL     1       2.301   5.345   0.007  0.00  0.00    +0.136 A 
ATOM     14  C   UNL     1       2.382   3.946   0.000  0.00  0.00    +0.029 A 
ATOM     15  C   UNL     1       3.754   3.619  -0.015  0.00  0.00    +0.063 A 
ATOM     16  C   UNL     1       4.440   4.795  -0.016  0.00  0.00    +0.192 A 
ATOM     17  O   UNL     1       3.562   5.822  -0.002  0.00  0.00    -0.450 OA
ENDBRANCH   1  16
BRANCH   3  18
ATOM     18  N   UNL     1       7.863   6.276  -0.043  0.00  0.00    -0.187 NA
ATOM     19  C   UNL     1       8.408   7.454  -0.042  0.00  0.00    +0.138 C 
BRANCH  19  20
ATOM     20  C   UNL     1       9.876   7.586  -0.057  0.00  0.00    -0.005 A 
ATOM     21  C   UNL     1      10.683   6.445  -0.065  0.00  0.00    +0.013 A 
ATOM     22  C   UNL     1      12.055   6.574  -0.083  0.00  0.00    +0.046 A 
ATOM     23  C   UNL     1      12.636   7.835  -0.083  0.00  0.00    +0.121 A 
ATOM     24  C   UNL     1      11.839   8.972  -0.069  0.00  0.00    +0.046 A 
ATOM     25  C   UNL     1      10.466   8.853  -0.056  0.00  0.00    +0.013 A 
BRANCH  23  26
ATOM     26  O   UNL     1      13.989   7.957  -0.095  0.00  0.00    -0.483 OA
BRANCH  26  27
ATOM     27  C   UNL     1      14.750   6.747  -0.109  0.00  0.00    +0.324 C 
BRANCH  27  28
ATOM     28  C   UNL     1      16.220   7.078  -0.122  0.00  0.00    +0.248 C 
ATOM     29  O   UNL     1      16.581   8.236  -0.120  0.00  0.00    -0.272 OA
ATOM     30  N   UNL     1      17.133   6.087  -0.136  0.00  0.00    -0.327 N 
ATOM     31  H   UNL     1      16.845   5.161  -0.138  0.00  0.00    +0.145 HD
ATOM     32  H   UNL     1      18.080   6.300  -0.144  0.00  0.00    +0.145 HD
ENDBRANCH  27  28
ENDBRANCH  26  27
ENDBRANCH  23  26
ENDBRANCH  19  20
ENDBRANCH   3  18
TORSDOF 6
