REMARK  Name = ZINC60543192
REMARK  8 active torsions:
REMARK  status: ('A' for Active; 'I' for Inactive)
REMARK    1  A    between atoms: C_1  and  N_2
REMARK    2  A    between atoms: N_2  and  C_3
REMARK    3  A    between atoms: N_2  and  S_4
REMARK    4  A    between atoms: S_4  and  C_7
REMARK    5  A    between atoms: C_12  and  N_13
REMARK    6  A    between atoms: C_14  and  C_16
REMARK    7  A    between atoms: C_16  and  S_17
REMARK    8  A    between atoms: S_17  and  C_18
REMARK                            x       y       z     vdW  Elec       q    Type
REMARK                         _______ _______ _______ _____ _____    ______ ____
ROOT
ATOM      1  N   UNL     1      -2.058   1.119  -2.016  0.00  0.00    -0.283 N 
ATOM      2  C   UNL     1      -1.614   2.030  -2.904  0.00  0.00    +0.227 C 
ATOM      3  O   UNL     1      -1.436   1.712  -4.061  0.00  0.00    -0.275 OA
ATOM      4  H   UNL     1      -2.264   1.389  -1.107  0.00  0.00    +0.155 HD
ENDROOT
BRANCH   1  10
ATOM      5  C   UNL     1      -1.979  -1.238  -1.496  0.00  0.00    +0.127 A 
ATOM      6  C   UNL     1      -2.146  -2.554  -1.881  0.00  0.00    +0.030 A 
ATOM      7  C   UNL     1      -2.547  -2.854  -3.170  0.00  0.00    +0.002 A 
ATOM      8  C   UNL     1      -2.783  -1.838  -4.077  0.00  0.00    +0.002 A 
ATOM      9  C   UNL     1      -2.619  -0.520  -3.699  0.00  0.00    +0.025 A 
ATOM     10  C   UNL     1      -2.220  -0.215  -2.404  0.00  0.00    +0.060 A 
BRANCH   5  11
ATOM     11  S   UNL     1      -1.468  -0.857   0.146  0.00  0.00    +0.062 S 
ATOM     12  O   UNL     1      -1.323  -2.098   0.825  0.00  0.00    -0.153 OA
ATOM     13  O   UNL     1      -2.332   0.170   0.613  0.00  0.00    -0.153 OA
BRANCH  11  15
ATOM     14  C   UNL     1       0.208   1.263   0.045  0.00  0.00    +0.131 C 
ATOM     15  N   UNL     1       0.046  -0.193   0.046  0.00  0.00    -0.183 NA
ATOM     16  C   UNL     1       1.223  -1.062  -0.041  0.00  0.00    +0.131 C 
ENDBRANCH  11  15
ENDBRANCH   5  11
ENDBRANCH   1  10
BRANCH   2  17
ATOM     17  C   UNL     1      -1.339   3.444  -2.461  0.00  0.00    +0.170 C 
BRANCH  17  18
ATOM     18  S   UNL     1      -0.759   4.420  -3.875  0.00  0.00    -0.116 S 
BRANCH  18  19
ATOM     19  C   UNL     1      -0.485   6.025  -3.203  0.00  0.00    +0.008 A 
ATOM     20  C   UNL     1      -0.721   6.264  -1.854  0.00  0.00    +0.016 A 
ATOM     21  C   UNL     1      -0.506   7.523  -1.330  0.00  0.00    +0.021 A 
ATOM     22  C   UNL     1      -0.055   8.546  -2.146  0.00  0.00    +0.041 A 
ATOM     23  C   UNL     1       0.181   8.311  -3.489  0.00  0.00    +0.021 A 
ATOM     24  C   UNL     1      -0.027   7.053  -4.018  0.00  0.00    +0.016 A 
ATOM     25 CL   UNL     1       0.214  10.128  -1.483  0.00  0.00    -0.084 Cl
ENDBRANCH  18  19
ENDBRANCH  17  18
ENDBRANCH   2  17
TORSDOF 6
