REMARK  Name = ZINC00087675
REMARK  2 active torsions:
REMARK  status: ('A' for Active; 'I' for Inactive)
REMARK    1  A    between atoms: C_7  and  C_13
REMARK    2  A    between atoms: C_18  and  N_19
REMARK                            x       y       z     vdW  Elec       q    Type
REMARK                         _______ _______ _______ _____ _____    ______ ____
ROOT
ATOM      1  C   UNL     1       3.138   6.775  -1.108  0.00  0.00    +0.000 A 
ATOM      2  C   UNL     1       4.375   6.323  -0.684  0.00  0.00    +0.002 A 
ATOM      3  C   UNL     1       4.463   5.424   0.360  0.00  0.00    +0.023 A 
ATOM      4  C   UNL     1       3.308   4.973   0.984  0.00  0.00    +0.037 A 
ATOM      5  C   UNL     1       2.068   5.428   0.557  0.00  0.00    -0.018 A 
ATOM      6  C   UNL     1       1.986   6.327  -0.488  0.00  0.00    +0.006 A 
ATOM      7  C   UNL     1       0.815   4.937   1.234  0.00  0.00    +0.062 C 
ATOM      8  C   UNL     1       1.094   4.706   2.720  0.00  0.00    +0.109 C 
ATOM      9  C   UNL     1       2.354   3.900   2.885  0.00  0.00    +0.218 C 
ATOM     10  O   UNL     1       2.436   3.095   3.788  0.00  0.00    -0.275 OA
ATOM     11  N   UNL     1       3.390   4.062   2.042  0.00  0.00    -0.285 N 
ATOM     12  H   UNL     1       4.200   3.543   2.169  0.00  0.00    +0.155 HD
ENDROOT
BRANCH   7  13
ATOM     13  C   UNL     1       0.373   3.644   0.599  0.00  0.00    -0.009 A 
ATOM     14  C   UNL     1       1.224   2.554   0.586  0.00  0.00    +0.006 A 
ATOM     15  C   UNL     1       0.819   1.369   0.003  0.00  0.00    +0.000 A 
ATOM     16  C   UNL     1      -0.436   1.272  -0.568  0.00  0.00    +0.002 A 
ATOM     17  C   UNL     1      -1.284   2.363  -0.561  0.00  0.00    +0.033 A 
ATOM     18  C   UNL     1      -0.881   3.548   0.027  0.00  0.00    +0.130 A 
BRANCH  18  19
ATOM     19  N   UNL     1      -1.792   4.715   0.040  0.00  0.00    +0.057 N 
ATOM     20  O   UNL     1      -2.980   4.558   0.258  0.00  0.00    -0.126 OA
ATOM     21  O   UNL     1      -1.353   5.832  -0.167  0.00  0.00    -0.126 OA
ENDBRANCH  18  19
ENDBRANCH   7  13
TORSDOF 2
