REMARK  Name = ZINC32754069
REMARK  10 active torsions:
REMARK  status: ('A' for Active; 'I' for Inactive)
REMARK    1  A    between atoms: C_1  and  C_2
REMARK    2  A    between atoms: C_4  and  N_12
REMARK    3  A    between atoms: C_7  and  N_8
REMARK    4  A    between atoms: C_9  and  C_11
REMARK    5  A    between atoms: C_13  and  C_15
REMARK    6  A    between atoms: C_16  and  C_17
REMARK    7  A    between atoms: C_19  and  O_25
REMARK    8  A    between atoms: C_21  and  O_23
REMARK    9  A    between atoms: O_23  and  C_24
REMARK   10  A    between atoms: O_25  and  C_26
REMARK                            x       y       z     vdW  Elec       q    Type
REMARK                         _______ _______ _______ _____ _____    ______ ____
ROOT
ATOM      1  N   UNL     1      -5.969  -0.965  -0.396  0.00  0.00    -0.282 N 
ATOM      2  C   UNL     1      -5.965  -2.310  -0.303  0.00  0.00    +0.241 C 
ATOM      3  O   UNL     1      -4.911  -2.911  -0.219  0.00  0.00    -0.270 OA
ATOM      4  H   UNL     1      -6.916  -0.427  -0.550  0.00  0.00    +0.155 HD
ENDROOT
BRANCH   1   8
ATOM      5  C   UNL     1      -3.537   3.040   1.092  0.00  0.00    +0.046 C 
ATOM      6  C   UNL     1      -3.561   1.691   0.420  0.00  0.00    -0.027 A 
ATOM      7  C   UNL     1      -4.747   0.992   0.318  0.00  0.00    +0.028 A 
ATOM      8  C   UNL     1      -4.767  -0.254  -0.296  0.00  0.00    +0.034 A 
ATOM      9  C   UNL     1      -3.596  -0.793  -0.812  0.00  0.00    +0.025 A 
ATOM     10  C   UNL     1      -2.412  -0.092  -0.715  0.00  0.00    +0.025 A 
ATOM     11  C   UNL     1      -2.391   1.154  -0.101  0.00  0.00    +0.036 A 
BRANCH  11  12
ATOM     12  N   UNL     1      -1.188   1.866  -0.002  0.00  0.00    -0.285 N 
ATOM     13  C   UNL     1      -0.012   1.208  -0.020  0.00  0.00    +0.214 C 
ATOM     14  O   UNL     1       0.004  -0.005  -0.021  0.00  0.00    -0.276 OA
ATOM     15  C   UNL     1       1.282   1.980  -0.046  0.00  0.00    +0.109 C 
ATOM     16  H   UNL     1      -1.204   2.962   0.091  0.00  0.00    +0.155 HD
ENDBRANCH  11  12
ENDBRANCH   1   8
BRANCH   2  17
ATOM     17  C   UNL     1      -7.231  -3.046  -0.302  0.00  0.00    +0.068 C 
ATOM     18  C   UNL     1      -7.227  -4.391  -0.208  0.00  0.00    +0.013 C 
BRANCH  18  19
ATOM     19  C   UNL     1      -8.499  -5.132  -0.208  0.00  0.00    -0.018 A 
ATOM     20  C   UNL     1      -9.712  -4.443  -0.298  0.00  0.00    +0.053 A 
ATOM     21  C   UNL     1     -10.906  -5.145  -0.302  0.00  0.00    +0.124 A 
ATOM     22  C   UNL     1     -10.899  -6.530  -0.206  0.00  0.00    +0.091 A 
ATOM     23  C   UNL     1      -9.698  -7.218  -0.111  0.00  0.00    +0.124 A 
ATOM     24  C   UNL     1      -8.499  -6.527  -0.111  0.00  0.00    +0.053 A 
BRANCH  23  25
ATOM     25  O   UNL     1      -9.699  -8.574  -0.017  0.00  0.00    -0.495 OA
ATOM     26  C   UNL     1     -10.972  -9.224  -0.022  0.00  0.00    +0.277 C 
ENDBRANCH  23  25
BRANCH  21  27
ATOM     27  O   UNL     1     -12.085  -4.477  -0.396  0.00  0.00    -0.495 OA
ATOM     28  C   UNL     1     -13.279  -5.263  -0.389  0.00  0.00    +0.277 C 
ENDBRANCH  21  27
ENDBRANCH  18  19
ENDBRANCH   2  17
TORSDOF 6
