REMARK  Name = ZINC46056938
REMARK  7 active torsions:
REMARK  status: ('A' for Active; 'I' for Inactive)
REMARK    1  A    between atoms: C_1  and  C_2
REMARK    2  A    between atoms: C_5  and  N_9
REMARK    3  A    between atoms: C_6  and  C_8
REMARK    4  A    between atoms: C_12  and  C_14
REMARK    5  A    between atoms: C_15  and  C_21
REMARK    6  A    between atoms: C_21  and  C_23
REMARK    7  A    between atoms: C_26  and  O_29
REMARK                            x       y       z     vdW  Elec       q    Type
REMARK                         _______ _______ _______ _____ _____    ______ ____
ROOT
ATOM      1  N   UNL     1       0.446  -3.794   0.746  0.00  0.00    -0.218 N 
ATOM      2  C   UNL     1       0.597  -4.590  -0.333  0.00  0.00    +0.133 A 
ATOM      3  C   UNL     1       0.907  -5.846   0.120  0.00  0.00    +0.026 A 
ATOM      4  C   UNL     1       0.932  -5.807   1.506  0.00  0.00    +0.066 A 
ATOM      5  N   UNL     1       0.662  -4.580   1.889  0.00  0.00    -0.170 NA
ATOM      6  C   UNL     1       1.227  -6.971   2.417  0.00  0.00    +0.068 C 
ATOM      7  C   UNL     1       1.166  -6.999  -0.816  0.00  0.00    +0.104 C 
ATOM      8  C   UNL     1       0.369  -6.763  -2.103  0.00  0.00    +0.112 C 
ATOM      9  C   UNL     1       0.487  -5.337  -2.562  0.00  0.00    +0.219 C 
ATOM     10  O   UNL     1       0.575  -5.107  -3.750  0.00  0.00    -0.275 OA
ATOM     11  N   UNL     1       0.497  -4.303  -1.694  0.00  0.00    -0.270 N 
ATOM     12  H   UNL     1       0.438  -3.387  -2.007  0.00  0.00    +0.156 HD
ENDROOT
BRANCH   1  17
ATOM     13  C   UNL     1      -0.808   1.740   0.673  0.00  0.00    +0.044 C 
ATOM     14  C   UNL     1      -0.475   0.271   0.692  0.00  0.00    -0.050 A 
ATOM     15  C   UNL     1       0.500  -0.227  -0.153  0.00  0.00    +0.005 A 
ATOM     16  C   UNL     1       0.808  -1.573  -0.137  0.00  0.00    +0.028 A 
ATOM     17  C   UNL     1       0.137  -2.427   0.728  0.00  0.00    +0.070 A 
ATOM     18  C   UNL     1      -0.841  -1.925   1.575  0.00  0.00    -0.025 A 
ATOM     19  C   UNL     1      -1.141  -0.576   1.559  0.00  0.00    +0.008 A 
ATOM     20  C   UNL     1      -1.572  -2.848   2.516  0.00  0.00    +0.046 C 
ENDBRANCH   1  17
BRANCH   7  21
ATOM     21  C   UNL     1       0.722  -8.286  -0.171  0.00  0.00    +0.171 C 
ATOM     22  O   UNL     1      -0.448  -8.456   0.102  0.00  0.00    -0.291 OA
BRANCH  21  23
ATOM     23  C   UNL     1       1.705  -9.336   0.127  0.00  0.00    +0.018 A 
ATOM     24  C   UNL     1       3.057  -9.140  -0.182  0.00  0.00    +0.015 A 
ATOM     25  C   UNL     1       3.971 -10.123   0.098  0.00  0.00    +0.046 A 
ATOM     26  C   UNL     1       3.557 -11.313   0.688  0.00  0.00    +0.117 A 
ATOM     27  C   UNL     1       2.216 -11.512   0.997  0.00  0.00    +0.046 A 
ATOM     28  C   UNL     1       1.295 -10.533   0.726  0.00  0.00    +0.015 A 
BRANCH  26  29
ATOM     29  O   UNL     1       4.465 -12.283   0.963  0.00  0.00    -0.507 OA
ATOM     30  H   UNL     1       4.861 -12.213   1.843  0.00  0.00    +0.292 HD
ENDBRANCH  26  29
ENDBRANCH  21  23
ENDBRANCH   7  21
TORSDOF 4
