REMARK  Name = ZINC15225418
REMARK  5 active torsions:
REMARK  status: ('A' for Active; 'I' for Inactive)
REMARK    1  A    between atoms: C_1  and  C_2
REMARK    2  A    between atoms: C_4  and  N_23
REMARK    3  A    between atoms: C_9  and  C_18
REMARK    4  A    between atoms: C_9  and  O_22
REMARK    5  A    between atoms: C_11  and  C_13
REMARK                            x       y       z     vdW  Elec       q    Type
REMARK                         _______ _______ _______ _____ _____    ______ ____
ROOT
ATOM      1  C   UNL     1      -0.229  -7.248  -0.033  0.00  0.00    +0.066 C 
ATOM      2  C   UNL     1      -1.456  -6.373  -0.017  0.00  0.00    +0.045 A 
ATOM      3  C   UNL     1      -2.717  -6.938  -0.007  0.00  0.00    +0.066 A 
ATOM      4  C   UNL     1      -3.827  -6.091   0.009  0.00  0.00    +0.122 A 
ATOM      5  N   UNL     1      -3.635  -4.776   0.014  0.00  0.00    -0.198 NA
ATOM      6  C   UNL     1      -2.409  -4.273   0.004  0.00  0.00    +0.242 A 
ATOM      7  N   UNL     1      -1.338  -5.054  -0.016  0.00  0.00    -0.218 NA
ATOM      8  N   UNL     1      -2.243  -2.900   0.010  0.00  0.00    -0.150 N 
ATOM      9  C   UNL     1      -3.329  -1.907   0.025  0.00  0.00    +0.257 C 
ATOM     10  C   UNL     1      -2.585  -0.556   0.025  0.00  0.00    +0.124 C 
ATOM     11  C   UNL     1      -1.124  -0.945   0.008  0.00  0.00    +0.078 C 
ATOM     12  N   UNL     1      -1.020  -2.231  -0.005  0.00  0.00    -0.178 NA
ENDROOT
BRANCH  11  13
ATOM     13  C   UNL     1       0.002  -0.004   0.002  0.00  0.00    +0.035 A 
ATOM     14  C   UNL     1       1.360  -0.269  -0.012  0.00  0.00    +0.017 A 
ATOM     15  C   UNL     1       2.234   0.794  -0.015  0.00  0.00    +0.008 A 
ATOM     16  C   UNL     1       1.741   2.059  -0.004  0.00  0.00    +0.046 A 
ATOM     17  S   UNL     1      -0.022   1.781   0.012  0.00  0.00    -0.095 S 
ENDBRANCH  11  13
BRANCH   9  18
ATOM     18  C   UNL     1      -4.175  -2.055   1.291  0.00  0.00    +0.438 C 
ATOM     19  F   UNL     1      -5.115  -1.020   1.348  0.00  0.00    -0.166 F 
ATOM     20  F   UNL     1      -4.838  -3.286   1.268  0.00  0.00    -0.166 F 
ATOM     21  F   UNL     1      -3.346  -1.993   2.417  0.00  0.00    -0.166 F 
ENDBRANCH   9  18
BRANCH   4  22
ATOM     22  N   UNL     1      -5.110  -6.614   0.018  0.00  0.00    -0.343 N 
ATOM     23  H   UNL     1      -5.876  -6.019   0.029  0.00  0.00    +0.144 HD
ATOM     24  H   UNL     1      -5.242  -7.575   0.015  0.00  0.00    +0.144 HD
ENDBRANCH   4  22
BRANCH   9  25
ATOM     25  O   UNL     1      -4.142  -2.033  -1.143  0.00  0.00    -0.363 OA
ATOM     26  H   UNL     1      -4.633  -2.865  -1.192  0.00  0.00    +0.212 HD
ENDBRANCH   9  25
TORSDOF 4
