REMARK  Name = ZINC13271827
REMARK  12 active torsions:
REMARK  status: ('A' for Active; 'I' for Inactive)
REMARK    1  A    between atoms: C_1  and  C_2
REMARK    2  A    between atoms: C_2  and  C_4
REMARK    3  A    between atoms: C_2  and  S_15
REMARK    4  A    between atoms: N_6  and  C_7
REMARK    5  A    between atoms: C_7  and  C_13
REMARK    6  A    between atoms: S_15  and  C_16
REMARK    7  A    between atoms: C_19  and  C_29
REMARK    8  A    between atoms: N_20  and  C_21
REMARK    9  A    between atoms: C_21  and  C_23
REMARK   10  A    between atoms: C_21  and  C_26
REMARK   11  A    between atoms: C_23  and  C_24
REMARK   12  A    between atoms: C_23  and  C_25
REMARK                            x       y       z     vdW  Elec       q    Type
REMARK                         _______ _______ _______ _____ _____    ______ ____
ROOT
ATOM      1  C   UNL     1       2.509  -0.029  -1.285  0.00  0.00    +0.193 A 
ATOM      2  N   UNL     1       2.981   0.650  -0.264  0.00  0.00    -0.122 NA
ATOM      3  N   UNL     1       4.230   0.896  -0.436  0.00  0.00    -0.128 NA
ATOM      4  C   UNL     1       4.635   0.390  -1.580  0.00  0.00    +0.172 A 
ATOM      5  N   UNL     1       3.545  -0.224  -2.156  0.00  0.00    -0.287 N 
ENDROOT
BRANCH   4   6
ATOM      6  C   UNL     1       5.996   0.459  -2.136  0.00  0.00    +0.056 A 
ATOM      7  C   UNL     1       7.170   0.788  -1.508  0.00  0.00    +0.019 A 
ATOM      8  C   UNL     1       8.335   0.784  -2.242  0.00  0.00    +0.008 A 
ATOM      9  C   UNL     1       8.287   0.457  -3.559  0.00  0.00    +0.046 A 
ATOM     10  S   UNL     1       6.549   0.131  -3.801  0.00  0.00    -0.094 S 
ENDBRANCH   4   6
BRANCH   1  11
ATOM     11  S   UNL     1       0.851  -0.589  -1.490  0.00  0.00    -0.073 S 
BRANCH  11  13
ATOM     12  C   UNL     1      -0.019   1.526   0.010  0.00  0.00    +0.029 C 
ATOM     13  C   UNL     1       0.002  -0.004   0.002  0.00  0.00    +0.137 C 
BRANCH  13  14
ATOM     14  C   UNL     1      -1.412  -0.526   0.013  0.00  0.00    +0.227 C 
ATOM     15  O   UNL     1      -1.927  -0.901  -1.019  0.00  0.00    -0.275 OA
ATOM     16  N   UNL     1      -2.103  -0.575   1.169  0.00  0.00    -0.296 N 
ATOM     17  H   UNL     1      -1.691  -0.275   1.994  0.00  0.00    +0.150 HD
BRANCH  16  18
ATOM     18  C   UNL     1      -3.478  -1.082   1.179  0.00  0.00    +0.121 C 
ATOM     19  C   UNL     1      -4.347  -0.217   0.265  0.00  0.00    +0.041 C 
ATOM     20  C   UNL     1      -5.783  -0.747   0.276  0.00  0.00    +0.003 C 
ATOM     21  C   UNL     1      -6.334  -0.696   1.702  0.00  0.00    +0.000 C 
ATOM     22  C   UNL     1      -5.465  -1.561   2.616  0.00  0.00    +0.003 C 
ATOM     23  C   UNL     1      -4.029  -1.031   2.605  0.00  0.00    +0.041 C 
BRANCH  18  24
ATOM     24  C   UNL     1      -3.491  -2.473   0.697  0.00  0.00    +0.088 C 
ATOM     25  N   UNL     1      -3.502  -3.546   0.325  0.00  0.00    -0.194 NA
ENDBRANCH  18  24
ENDBRANCH  16  18
ENDBRANCH  13  14
ENDBRANCH  11  13
ENDBRANCH   1  11
BRANCH   5  26
ATOM     26  C   UNL     1       3.503  -0.935  -3.437  0.00  0.00    +0.206 C 
BRANCH  26  27
ATOM     27  C   UNL     1       2.498  -0.252  -4.367  0.00  0.00    +0.017 C 
ATOM     28  C   UNL     1       2.926   1.198  -4.602  0.00  0.00    +0.010 C 
ATOM     29  C   UNL     1       2.455  -0.994  -5.704  0.00  0.00    +0.010 C 
ENDBRANCH  26  27
BRANCH  26  30
ATOM     30  C   UNL     1       3.082  -2.363  -3.204  0.00  0.00    +0.379 C 
ATOM     31  O   UNL     1       2.839  -2.751  -2.074  0.00  0.00    -0.244 OA
ATOM     32  O   UNL     1       2.984  -3.131  -4.147  0.00  0.00    -0.244 OA
ENDBRANCH  26  30
ENDBRANCH   5  26
TORSDOF 9
