REMARK  Name = ZINC32876424
REMARK  9 active torsions:
REMARK  status: ('A' for Active; 'I' for Inactive)
REMARK    1  A    between atoms: C_1  and  C_2
REMARK    2  A    between atoms: C_12  and  S_20
REMARK    3  A    between atoms: N_13  and  C_14
REMARK    4  A    between atoms: C_14  and  C_15
REMARK    5  A    between atoms: S_20  and  C_21
REMARK    6  A    between atoms: C_21  and  C_22
REMARK    7  A    between atoms: C_22  and  C_24
REMARK    8  A    between atoms: C_24  and  C_35
REMARK    9  A    between atoms: N_33  and  C_34
REMARK                            x       y       z     vdW  Elec       q    Type
REMARK                         _______ _______ _______ _____ _____    ______ ____
ROOT
ATOM      1  C   UNL     1      -8.165  -2.824  -0.193  0.00  0.00    +0.009 C 
ATOM      2  C   UNL     1      -6.723  -3.331  -0.138  0.00  0.00    +0.003 C 
ATOM      3  C   UNL     1      -6.548  -4.247   1.077  0.00  0.00    +0.006 C 
ATOM      4  C   UNL     1      -5.089  -4.702   1.157  0.00  0.00    +0.019 C 
ATOM      5  C   UNL     1      -4.180  -3.474   1.242  0.00  0.00    +0.108 C 
ATOM      6  N   UNL     1      -4.383  -2.630   0.057  0.00  0.00    -0.299 N 
ATOM      7  C   UNL     1      -5.767  -2.142  -0.016  0.00  0.00    +0.111 C 
ATOM      8  C   UNL     1      -3.482  -1.574   0.037  0.00  0.00    +0.221 A 
ATOM      9  N   UNL     1      -3.748  -0.328   0.340  0.00  0.00    -0.112 NA
ATOM     10  N   UNL     1      -2.569   0.415   0.197  0.00  0.00    -0.121 NA
ATOM     11  C   UNL     1      -1.622  -0.402  -0.197  0.00  0.00    +0.194 A 
ATOM     12  N   UNL     1      -2.161  -1.653  -0.303  0.00  0.00    -0.283 N 
ENDROOT
BRANCH  12  13
ATOM     13  C   UNL     1      -1.447  -2.866  -0.709  0.00  0.00    +0.201 C 
BRANCH  13  14
ATOM     14  C   UNL     1      -1.627  -3.083  -2.190  0.00  0.00    +0.125 A 
ATOM     15  C   UNL     1      -0.774  -2.685  -3.152  0.00  0.00    +0.046 A 
ATOM     16  C   UNL     1      -1.332  -3.092  -4.386  0.00  0.00    +0.041 A 
ATOM     17  C   UNL     1      -2.491  -3.713  -4.104  0.00  0.00    +0.195 A 
ATOM     18  O   UNL     1      -2.661  -3.710  -2.772  0.00  0.00    -0.466 OA
ENDBRANCH  13  14
ENDBRANCH  12  13
BRANCH  11  19
ATOM     19  S   UNL     1       0.053   0.036  -0.524  0.00  0.00    -0.078 S 
BRANCH  19  20
ATOM     20  C   UNL     1       0.112   1.820  -0.199  0.00  0.00    +0.157 C 
BRANCH  20  21
ATOM     21  C   UNL     1       1.509   2.329  -0.444  0.00  0.00    +0.187 C 
ATOM     22  O   UNL     1       2.381   1.562  -0.804  0.00  0.00    -0.290 OA
BRANCH  21  23
ATOM     23  C   UNL     1       1.804   3.690  -0.257  0.00  0.00    +0.131 C 
ATOM     24  C   UNL     1       3.107   4.165  -0.486  0.00  0.00    +0.116 C 
ATOM     25  N   UNL     1       4.188   3.393  -0.769  0.00  0.00    -0.300 N 
ATOM     26  C   UNL     1       5.289   4.226  -0.932  0.00  0.00    +0.054 A 
ATOM     27  C   UNL     1       6.624   3.986  -1.228  0.00  0.00    +0.025 A 
ATOM     28  C   UNL     1       7.508   5.041  -1.321  0.00  0.00    +0.002 A 
ATOM     29  C   UNL     1       7.070   6.340  -1.120  0.00  0.00    +0.002 A 
ATOM     30  C   UNL     1       5.745   6.590  -0.826  0.00  0.00    +0.025 A 
ATOM     31  C   UNL     1       4.847   5.535  -0.730  0.00  0.00    +0.056 A 
ATOM     32  N   UNL     1       3.486   5.469  -0.454  0.00  0.00    -0.289 N 
ATOM     33  C   UNL     1       2.611   6.611  -0.176  0.00  0.00    +0.137 C 
ATOM     34  H   UNL     1       4.081   2.300  -0.832  0.00  0.00    +0.153 HD
BRANCH  23  35
ATOM     35  C   UNL     1       0.776   4.593   0.167  0.00  0.00    +0.106 C 
ATOM     36  N   UNL     1      -0.038   5.310   0.503  0.00  0.00    -0.191 NA
ENDBRANCH  23  35
ENDBRANCH  21  23
ENDBRANCH  20  21
ENDBRANCH  19  20
ENDBRANCH  11  19
TORSDOF 7
