REMARK  Name = ZINC39109909
REMARK  3 active torsions:
REMARK  status: ('A' for Active; 'I' for Inactive)
REMARK    1  A    between atoms: C_1  and  C_2
REMARK    2  A    between atoms: C_6  and  C_12
REMARK    3  A    between atoms: C_8  and  C_10
REMARK                            x       y       z     vdW  Elec       q    Type
REMARK                         _______ _______ _______ _____ _____    ______ ____
ROOT
ATOM      1  C   UNL     1       0.054   1.596  -0.006  0.00  0.00    +0.029 C 
ATOM      2  C   UNL     1       0.008   0.067  -0.003  0.00  0.00    +0.088 C 
ATOM      3  C   UNL     1       0.681  -0.453  -1.258  0.00  0.00    +0.163 C 
ATOM      4  N   UNL     1       1.997   0.104  -1.465  0.00  0.00    -0.286 NA
ATOM      5  C   UNL     1       2.877   0.392  -0.602  0.00  0.00    +0.048 C 
ATOM      6  C   UNL     1       2.883   0.321   0.778  0.00  0.00    +0.055 C 
ATOM      7  C   UNL     1       1.892  -0.012   1.597  0.00  0.00    +0.017 C 
ATOM      8  N   UNL     1       0.668  -0.426   1.190  0.00  0.00    -0.342 N 
ATOM      9  C   UNL     1       2.148   0.075   3.079  0.00  0.00    +0.061 C 
ATOM     10 BR   UNL     1       4.523   0.757   1.613  0.00  0.00    -0.047 Br
ATOM     11  C   UNL     1       4.163   0.909  -1.192  0.00  0.00    +0.066 C 
ATOM     12  H   UNL     1       0.207  -1.088   1.729  0.00  0.00    +0.146 HD
ENDROOT
TORSDOF 0
