REMARK  Name = ZINC16044019
REMARK  8 active torsions:
REMARK  status: ('A' for Active; 'I' for Inactive)
REMARK    1  A    between atoms: C_1  and  C_2
REMARK    2  A    between atoms: C_2  and  N_3
REMARK    3  A    between atoms: N_3  and  C_4
REMARK    4  A    between atoms: C_5  and  N_20
REMARK    5  A    between atoms: N_6  and  C_13
REMARK    6  A    between atoms: C_13  and  C_14
REMARK    7  A    between atoms: C_21  and  C_23
REMARK    8  A    between atoms: C_23  and  N_24
REMARK                            x       y       z     vdW  Elec       q    Type
REMARK                         _______ _______ _______ _____ _____    ______ ____
ROOT
ATOM      1  C   UNL     1       2.044  -0.619  -1.307  0.00  0.00    +0.140 A 
ATOM      2  C   UNL     1       2.752  -1.526  -0.546  0.00  0.00    +0.128 A 
ATOM      3  N   UNL     1       4.113  -1.628  -0.718  0.00  0.00    -0.276 N 
ATOM      4  C   UNL     1       4.747  -0.851  -1.615  0.00  0.00    +0.331 A 
ATOM      5  O   UNL     1       5.950  -0.956  -1.751  0.00  0.00    -0.246 OA
ATOM      6  N   UNL     1       4.073   0.038  -2.365  0.00  0.00    -0.273 N 
ATOM      7  H   UNL     1       4.552   0.587  -3.006  0.00  0.00    +0.173 HD
ATOM      8  C   UNL     1       2.738   0.173  -2.241  0.00  0.00    +0.277 A 
ATOM      9  O   UNL     1       2.136   0.980  -2.929  0.00  0.00    -0.266 OA
ENDROOT
BRANCH   1  10
ATOM     10  N   UNL     1       0.647  -0.490  -1.155  0.00  0.00    -0.263 N 
ATOM     11  C   UNL     1      -0.176  -0.834  -2.167  0.00  0.00    +0.234 C 
ATOM     12  O   UNL     1       0.276  -1.344  -3.171  0.00  0.00    -0.274 OA
BRANCH  10  14
ATOM     13  C   UNL     1       0.073   1.545   0.073  0.00  0.00    +0.025 C 
ATOM     14  C   UNL     1       0.090   0.016   0.102  0.00  0.00    +0.110 C 
ENDBRANCH  10  14
BRANCH  11  15
ATOM     15  C   UNL     1      -1.658  -0.585  -2.051  0.00  0.00    +0.181 C 
BRANCH  15  16
ATOM     16  N   UNL     1      -2.329  -1.043  -3.275  0.00  0.00    -0.289 NA
ATOM     17  C   UNL     1      -3.740  -0.624  -3.292  0.00  0.00    +0.090 C 
ATOM     18  C   UNL     1      -4.280  -0.796  -4.711  0.00  0.00    +0.051 C 
ATOM     19  C   UNL     1      -3.962  -2.180  -5.218  0.00  0.00    -0.042 A 
ATOM     20  C   UNL     1      -4.659  -2.657  -6.318  0.00  0.00    +0.004 A 
ATOM     21  C   UNL     1      -4.397  -3.917  -6.817  0.00  0.00    +0.000 A 
ATOM     22  C   UNL     1      -3.433  -4.707  -6.218  0.00  0.00    +0.000 A 
ATOM     23  C   UNL     1      -2.740  -4.233  -5.122  0.00  0.00    +0.005 A 
ATOM     24  C   UNL     1      -3.005  -2.968  -4.618  0.00  0.00    -0.030 A 
ATOM     25  C   UNL     1      -2.230  -2.500  -3.414  0.00  0.00    +0.120 C 
ENDBRANCH  15  16
ENDBRANCH  11  15
ENDBRANCH   1  10
BRANCH   2  26
ATOM     26  N   UNL     1       2.106  -2.319   0.371  0.00  0.00    -0.343 N 
ATOM     27  H   UNL     1       1.157  -2.197   0.535  0.00  0.00    +0.144 HD
ATOM     28  H   UNL     1       2.598  -3.001   0.855  0.00  0.00    +0.144 HD
ENDBRANCH   2  26
BRANCH   3  29
ATOM     29  C   UNL     1       4.878  -2.588   0.083  0.00  0.00    +0.163 C 
BRANCH  29  30
ATOM     30  C   UNL     1       4.941  -3.908  -0.640  0.00  0.00    -0.028 A 
ATOM     31  C   UNL     1       3.959  -4.859  -0.430  0.00  0.00    +0.005 A 
ATOM     32  C   UNL     1       4.017  -6.070  -1.094  0.00  0.00    +0.000 A 
ATOM     33  C   UNL     1       5.055  -6.331  -1.968  0.00  0.00    +0.000 A 
ATOM     34  C   UNL     1       6.036  -5.380  -2.179  0.00  0.00    +0.000 A 
ATOM     35  C   UNL     1       5.977  -4.167  -1.518  0.00  0.00    +0.005 A 
ENDBRANCH  29  30
ENDBRANCH   3  29
TORSDOF 7
