REMARK  Name = ZINC19502086
REMARK  10 active torsions:
REMARK  status: ('A' for Active; 'I' for Inactive)
REMARK    1  A    between atoms: C_1  and  C_2
REMARK    2  A    between atoms: C_2  and  C_3
REMARK    3  A    between atoms: C_3  and  C_4
REMARK    4  A    between atoms: C_7  and  C_11
REMARK    5  A    between atoms: C_7  and  O_31
REMARK    6  A    between atoms: C_11  and  N_12
REMARK    7  A    between atoms: C_19  and  C_30
REMARK    8  A    between atoms: C_20  and  C_29
REMARK    9  A    between atoms: N_21  and  C_22
REMARK   10  A    between atoms: C_22  and  C_23
REMARK                            x       y       z     vdW  Elec       q    Type
REMARK                         _______ _______ _______ _____ _____    ______ ____
ROOT
ATOM      1  N   UNL     1       1.428  -0.750  -0.031  0.00  0.00    -0.296 N 
ATOM      2  C   UNL     1       0.428   0.164   0.060  0.00  0.00    +0.204 A 
ATOM      3  N   UNL     1       0.652   1.447   0.055  0.00  0.00    -0.219 NA
ATOM      4  C   UNL     1       1.899   1.938  -0.040  0.00  0.00    +0.148 A 
ATOM      5  C   UNL     1       2.975   1.047  -0.136  0.00  0.00    +0.086 A 
ATOM      6  C   UNL     1       2.715  -0.344  -0.130  0.00  0.00    +0.263 A 
ATOM      7  O   UNL     1       3.623  -1.152  -0.213  0.00  0.00    -0.267 OA
ATOM      8  C   UNL     1       4.180   1.866  -0.224  0.00  0.00    -0.015 A 
ATOM      9  C   UNL     1       3.778   3.149  -0.177  0.00  0.00    +0.022 A 
ATOM     10  N   UNL     1       2.414   3.200  -0.067  0.00  0.00    -0.325 N 
ATOM     11  C   UNL     1       4.690   4.347  -0.237  0.00  0.00    +0.064 C 
ATOM     12  C   UNL     1       5.598   1.371  -0.345  0.00  0.00    +0.046 C 
ENDROOT
BRANCH   1  13
ATOM     13  C   UNL     1       1.113  -2.180  -0.021  0.00  0.00    +0.160 C 
BRANCH  13  16
ATOM     14  C   UNL     1      -1.500  -2.242  -1.395  0.00  0.00    -0.069 C 
ATOM     15  C   UNL     1      -0.197  -1.935  -2.136  0.00  0.00    +0.021 C 
ATOM     16  C   UNL     1       0.958  -2.678  -1.460  0.00  0.00    +0.081 C 
ATOM     17  C   UNL     1       0.653  -4.179  -1.452  0.00  0.00    +0.017 C 
ATOM     18  C   UNL     1      -0.674  -4.421  -0.730  0.00  0.00    -0.079 C 
ATOM     19  N   UNL     1      -1.747  -3.690  -1.416  0.00  0.00    +0.381 N 
ATOM     20  H   UNL     1      -2.699  -3.907  -0.910  0.00  0.00    -0.086 HD
ATOM     21  H   UNL     1      -1.798  -4.038  -2.458  0.00  0.00    -0.086 HD
BRANCH  16  22
ATOM     22  O   UNL     1       2.168  -2.439  -2.181  0.00  0.00    -0.387 OA
ATOM     23  H   UNL     1       3.110  -2.894  -1.841  0.00  0.00    +0.210 HD
ENDBRANCH  16  22
BRANCH  14  24
ATOM     24  C   UNL     1      -2.660  -1.518  -2.080  0.00  0.00    -0.016 C 
BRANCH  24  26
ATOM     25  C   UNL     1      -5.101  -0.998  -1.953  0.00  0.00    +0.004 C 
ATOM     26  C   UNL     1      -3.941  -1.723  -1.268  0.00  0.00    -0.005 C 
ENDBRANCH  24  26
ENDBRANCH  14  24
ENDBRANCH  13  16
ENDBRANCH   1  13
BRANCH  10  27
ATOM     27  C   UNL     1       1.624   4.431   0.011  0.00  0.00    +0.158 C 
BRANCH  27  28
ATOM     28  C   UNL     1       1.239   4.869  -1.379  0.00  0.00    -0.028 A 
ATOM     29  C   UNL     1       2.063   5.723  -2.088  0.00  0.00    +0.005 A 
ATOM     30  C   UNL     1       1.712   6.121  -3.364  0.00  0.00    +0.000 A 
ATOM     31  C   UNL     1       0.531   5.673  -3.928  0.00  0.00    +0.000 A 
ATOM     32  C   UNL     1      -0.295   4.823  -3.217  0.00  0.00    +0.000 A 
ATOM     33  C   UNL     1       0.059   4.421  -1.942  0.00  0.00    +0.005 A 
ENDBRANCH  27  28
ENDBRANCH  10  27
TORSDOF 7
