REMARK  Name = ZINC24071422
REMARK  6 active torsions:
REMARK  status: ('A' for Active; 'I' for Inactive)
REMARK    1  A    between atoms: C_1  and  C_2
REMARK    2  A    between atoms: C_2  and  S_3
REMARK    3  A    between atoms: S_3  and  C_4
REMARK    4  A    between atoms: C_10  and  C_12
REMARK    5  A    between atoms: C_15  and  N_18
REMARK    6  A    between atoms: C_19  and  C_29
REMARK                            x       y       z     vdW  Elec       q    Type
REMARK                         _______ _______ _______ _____ _____    ______ ____
ROOT
ATOM      1  C   UNL     1      -0.553  -6.870   0.511  0.00  0.00    +0.037 A 
ATOM      2  C   UNL     1       0.729  -6.314   0.480  0.00  0.00    +0.015 A 
ATOM      3  C   UNL     1       0.884  -4.952   0.352  0.00  0.00    +0.027 A 
ATOM      4  C   UNL     1      -0.233  -4.129   0.254  0.00  0.00    +0.051 A 
ATOM      5  C   UNL     1      -1.510  -4.678   0.290  0.00  0.00    +0.027 A 
ATOM      6  C   UNL     1      -1.673  -6.040   0.412  0.00  0.00    +0.015 A 
ENDROOT
BRANCH   4   7
ATOM      7  N   UNL     1      -0.072  -2.748   0.125  0.00  0.00    -0.265 N 
ATOM      8  C   UNL     1      -0.014  -1.968   1.239  0.00  0.00    +0.114 A 
ATOM      9  N   UNL     1       0.134  -0.679   1.201  0.00  0.00    -0.233 NA
ATOM     10  C   UNL     1       0.243  -0.010   0.025  0.00  0.00    +0.078 A 
ATOM     11  C   UNL     1       0.403   1.377  -0.016  0.00  0.00    +0.028 A 
ATOM     12  C   UNL     1       0.511   2.015  -1.231  0.00  0.00    +0.002 A 
ATOM     13  C   UNL     1       0.463   1.296  -2.418  0.00  0.00    +0.001 A 
ATOM     14  C   UNL     1       0.306  -0.072  -2.404  0.00  0.00    +0.015 A 
ATOM     15  C   UNL     1       0.195  -0.737  -1.184  0.00  0.00    +0.065 A 
ATOM     16  C   UNL     1       0.027  -2.196  -1.107  0.00  0.00    +0.266 A 
ATOM     17  O   UNL     1      -0.023  -2.881  -2.112  0.00  0.00    -0.267 OA
ATOM     18  C   UNL     1      -0.129  -2.635   2.586  0.00  0.00    +0.086 C 
ENDBRANCH   4   7
BRANCH   1  25
ATOM     19  C   UNL     1      -2.796 -12.805   1.044  0.00  0.00    +0.160 A 
ATOM     20  N   UNL     1      -1.531 -12.411   1.028  0.00  0.00    -0.133 NA
ATOM     21  N   UNL     1      -1.212 -11.196   0.916  0.00  0.00    -0.125 NA
ATOM     22  C   UNL     1      -2.121 -10.240   0.808  0.00  0.00    +0.189 A 
ATOM     23  S   UNL     1      -3.616 -11.222   0.883  0.00  0.00    -0.024 S 
ATOM     24  N   UNL     1      -1.960  -8.864   0.678  0.00  0.00    -0.259 N 
ATOM     25  C   UNL     1      -0.723  -8.329   0.648  0.00  0.00    +0.250 C 
ATOM     26  O   UNL     1       0.252  -9.050   0.735  0.00  0.00    -0.270 OA
ATOM     27  H   UNL     1      -2.843  -8.212   0.600  0.00  0.00    +0.157 HD
BRANCH  19  28
ATOM     28  S   UNL     1      -3.476 -14.424   1.190  0.00  0.00    -0.097 S 
BRANCH  28  30
ATOM     29  C   UNL     1      -2.475 -16.956   1.453  0.00  0.00    +0.016 C 
ATOM     30  C   UNL     1      -2.022 -15.501   1.319  0.00  0.00    +0.073 C 
ENDBRANCH  28  30
ENDBRANCH  19  28
ENDBRANCH   1  25
TORSDOF 4
