REMARK  Name = ZINC53091356
REMARK  9 active torsions:
REMARK  status: ('A' for Active; 'I' for Inactive)
REMARK    1  A    between atoms: C_1  and  C_2
REMARK    2  A    between atoms: C_4  and  C_14
REMARK    3  A    between atoms: C_7  and  N_8
REMARK    4  A    between atoms: N_16  and  C_17
REMARK    5  A    between atoms: C_19  and  O_26
REMARK    6  A    between atoms: C_20  and  O_24
REMARK    7  A    between atoms: C_22  and  C_23
REMARK    8  A    between atoms: O_24  and  C_25
REMARK    9  A    between atoms: O_26  and  C_27
REMARK                            x       y       z     vdW  Elec       q    Type
REMARK                         _______ _______ _______ _____ _____    ______ ____
ROOT
ATOM      1  C   UNL     1       0.026  -2.816  -2.482  0.00  0.00    +0.248 C 
ATOM      2  O   UNL     1       0.019  -2.204  -3.532  0.00  0.00    -0.270 OA
ATOM      3  N   UNL     1       0.047  -4.163  -2.486  0.00  0.00    -0.281 N 
ATOM      4  H   UNL     1       0.134  -4.650  -1.652  0.00  0.00    +0.155 HD
ENDROOT
BRANCH   1   8
ATOM      5  C   UNL     1      -0.050   1.502   0.011  0.00  0.00    +0.046 C 
ATOM      6  C   UNL     1      -0.026  -0.005   0.003  0.00  0.00    -0.028 A 
ATOM      7  C   UNL     1      -0.012  -0.686  -1.194  0.00  0.00    +0.018 A 
ATOM      8  C   UNL     1       0.011  -2.083  -1.201  0.00  0.00    +0.037 A 
ATOM      9  C   UNL     1       0.018  -2.785   0.008  0.00  0.00    +0.015 A 
ATOM     10  C   UNL     1       0.003  -2.098   1.201  0.00  0.00    +0.024 A 
ATOM     11  C   UNL     1      -0.014  -0.707   1.204  0.00  0.00    +0.041 A 
BRANCH  11  12
ATOM     12  N   UNL     1      -0.023  -0.014   2.414  0.00  0.00    -0.254 N 
ATOM     13  C   UNL     1      -1.227   0.385   3.158  0.00  0.00    +0.134 C 
ATOM     14  C   UNL     1      -0.671   1.109   4.400  0.00  0.00    +0.125 C 
ATOM     15  N   UNL     1       0.787   1.040   4.224  0.00  0.00    -0.297 N 
ATOM     16  C   UNL     1       1.063   0.389   3.087  0.00  0.00    +0.307 C 
ATOM     17  O   UNL     1       2.197   0.185   2.698  0.00  0.00    -0.252 OA
ATOM     18  H   UNL     1       1.445   1.406   4.836  0.00  0.00    +0.150 HD
ENDBRANCH  11  12
ENDBRANCH   1   8
BRANCH   3  19
ATOM     19  C   UNL     1      -0.055  -4.861  -3.696  0.00  0.00    +0.040 A 
ATOM     20  C   UNL     1      -0.675  -4.269  -4.789  0.00  0.00    +0.073 A 
ATOM     21  C   UNL     1      -0.775  -4.959  -5.985  0.00  0.00    +0.163 A 
ATOM     22  C   UNL     1      -0.254  -6.246  -6.089  0.00  0.00    +0.162 A 
ATOM     23  C   UNL     1       0.364  -6.833  -4.998  0.00  0.00    +0.054 A 
ATOM     24  C   UNL     1       0.469  -6.142  -3.806  0.00  0.00    -0.026 A 
ATOM     25  C   UNL     1       1.147  -6.781  -2.621  0.00  0.00    +0.046 C 
BRANCH  22  26
ATOM     26  O   UNL     1      -0.351  -6.926  -7.264  0.00  0.00    -0.491 OA
ATOM     27  C   UNL     1       0.205  -8.241  -7.300  0.00  0.00    +0.277 C 
ENDBRANCH  22  26
BRANCH  21  28
ATOM     28  O   UNL     1      -1.383  -4.382  -7.056  0.00  0.00    -0.491 OA
ATOM     29  C   UNL     1      -1.895  -3.060  -6.876  0.00  0.00    +0.277 C 
ENDBRANCH  21  28
ENDBRANCH   3  19
TORSDOF 5
