REMARK  Name = ZINC06750409
REMARK  10 active torsions:
REMARK  status: ('A' for Active; 'I' for Inactive)
REMARK    1  A    between atoms: C_1  and  C_2
REMARK    2  A    between atoms: C_3  and  C_29
REMARK    3  A    between atoms: C_5  and  N_24
REMARK    4  A    between atoms: C_6  and  C_7
REMARK    5  A    between atoms: C_7  and  C_9
REMARK    6  A    between atoms: C_7  and  N_10
REMARK    7  A    between atoms: N_13  and  C_14
REMARK    8  A    between atoms: C_17  and  C_20
REMARK    9  A    between atoms: C_20  and  O_22
REMARK   10  A    between atoms: O_22  and  C_23
REMARK                            x       y       z     vdW  Elec       q    Type
REMARK                         _______ _______ _______ _____ _____    ______ ____
ROOT
ATOM      1  N   UNL     1       1.616  -0.670   3.174  0.00  0.00    -0.292 N 
ATOM      2  C   UNL     1       2.343  -0.029   4.111  0.00  0.00    +0.304 C 
ATOM      3  O   UNL     1       2.119   1.140   4.359  0.00  0.00    -0.252 OA
ATOM      4  N   UNL     1       3.317  -0.684   4.772  0.00  0.00    -0.269 N 
ATOM      5  H   UNL     1       1.794  -1.603   2.976  0.00  0.00    +0.151 HD
ATOM      6  H   UNL     1       3.450  -1.634   4.625  0.00  0.00    +0.156 HD
ENDROOT
BRANCH   4   7
ATOM      7  C   UNL     1       4.134   0.002   5.670  0.00  0.00    +0.035 A 
ATOM      8  C   UNL     1       3.603   1.026   6.448  0.00  0.00    +0.024 A 
ATOM      9  C   UNL     1       4.406   1.707   7.334  0.00  0.00    +0.017 A 
ATOM     10  C   UNL     1       5.757   1.367   7.452  0.00  0.00    +0.059 A 
ATOM     11  C   UNL     1       6.287   0.337   6.670  0.00  0.00    +0.017 A 
ATOM     12  C   UNL     1       5.476  -0.342   5.789  0.00  0.00    +0.024 A 
BRANCH  10  13
ATOM     13  C   UNL     1       6.622   2.094   8.401  0.00  0.00    +0.339 C 
ATOM     14  O   UNL     1       6.160   2.990   9.080  0.00  0.00    -0.245 OA
BRANCH  13  15
ATOM     15  O   UNL     1       7.923   1.766   8.514  0.00  0.00    -0.464 OA
ATOM     16  C   UNL     1       8.702   2.512   9.452  0.00  0.00    +0.280 C 
ENDBRANCH  13  15
ENDBRANCH  10  13
ENDBRANCH   4   7
BRANCH   1  17
ATOM     17  C   UNL     1       0.557   0.043   2.455  0.00  0.00    +0.104 C 
ATOM     18  C   UNL     1      -0.664   0.196   3.365  0.00  0.00    +0.033 C 
BRANCH  17  24
ATOM     19  C   UNL     1       0.309   1.371  -0.126  0.00  0.00    +0.045 C 
ATOM     20  C   UNL     1       0.054  -0.109  -0.000  0.00  0.00    -0.034 A 
ATOM     21  C   UNL     1      -0.289  -0.842  -1.087  0.00  0.00    -0.008 A 
ATOM     22  S   UNL     1      -0.466  -2.477  -0.393  0.00  0.00    -0.075 S 
ATOM     23  C   UNL     1      -0.072  -2.077   1.302  0.00  0.00    +0.090 A 
ATOM     24  C   UNL     1       0.172  -0.739   1.225  0.00  0.00    +0.007 A 
ATOM     25  C   UNL     1      -0.473  -0.393  -2.514  0.00  0.00    +0.052 C 
BRANCH  23  26
ATOM     26  N   UNL     1      -0.021  -2.919   2.418  0.00  0.00    -0.317 N 
ATOM     27  C   UNL     1       0.142  -2.517   3.713  0.00  0.00    +0.092 A 
ATOM     28  C   UNL     1       0.140  -3.613   4.498  0.00  0.00    +0.019 A 
ATOM     29  C   UNL     1      -0.029  -4.734   3.660  0.00  0.00    +0.019 A 
ATOM     30  C   UNL     1      -0.131  -4.280   2.394  0.00  0.00    +0.092 A 
ENDBRANCH  23  26
ENDBRANCH  17  24
ENDBRANCH   1  17
TORSDOF 6
