REMARK  Name = ZINC58551211
REMARK  11 active torsions:
REMARK  status: ('A' for Active; 'I' for Inactive)
REMARK    1  A    between atoms: C_1  and  C_2
REMARK    2  A    between atoms: C_3  and  C_25
REMARK    3  A    between atoms: C_7  and  N_24
REMARK    4  A    between atoms: C_9  and  C_11
REMARK    5  A    between atoms: C_11  and  C_13
REMARK    6  A    between atoms: C_11  and  S_14
REMARK    7  A    between atoms: S_14  and  C_15
REMARK    8  A    between atoms: N_19  and  C_20
REMARK    9  A    between atoms: C_20  and  C_21
REMARK   10  A    between atoms: C_21  and  C_22
REMARK   11  A    between atoms: C_21  and  C_23
REMARK                            x       y       z     vdW  Elec       q    Type
REMARK                         _______ _______ _______ _____ _____    ______ ____
ROOT
ATOM      1  C   UNL     1      -1.596   1.384   0.669  0.00  0.00    +0.045 C 
ATOM      2  C   UNL     1      -1.424  -0.111   0.597  0.00  0.00    -0.028 A 
ATOM      3  C   UNL     1      -2.079  -0.826  -0.330  0.00  0.00    -0.008 A 
ATOM      4  S   UNL     1      -1.557  -2.500  -0.011  0.00  0.00    -0.074 S 
ATOM      5  C   UNL     1      -0.472  -2.195   1.358  0.00  0.00    +0.114 A 
ATOM      6  C   UNL     1      -0.541  -0.794   1.526  0.00  0.00    +0.050 A 
ATOM      7  C   UNL     1       0.255  -0.267   2.579  0.00  0.00    +0.128 A 
ATOM      8  N   UNL     1       0.991  -1.091   3.307  0.00  0.00    -0.216 NA
ATOM      9  C   UNL     1       1.012  -2.394   3.089  0.00  0.00    +0.145 A 
ATOM     10  N   UNL     1       0.286  -2.944   2.134  0.00  0.00    -0.224 NA
ATOM     11  C   UNL     1      -3.032  -0.331  -1.388  0.00  0.00    +0.052 C 
ENDROOT
BRANCH   7  12
ATOM     12  N   UNL     1       0.262   1.092   2.839  0.00  0.00    -0.343 N 
ATOM     13  H   UNL     1       0.110   1.724   2.119  0.00  0.00    +0.144 HD
ATOM     14  H   UNL     1       0.418   1.412   3.741  0.00  0.00    +0.144 HD
ENDBRANCH   7  12
BRANCH   9  15
ATOM     15  C   UNL     1       1.873  -3.273   3.958  0.00  0.00    +0.119 C 
ATOM     16  C   UNL     1       1.216  -3.436   5.330  0.00  0.00    +0.028 C 
BRANCH  15  17
ATOM     17  S   UNL     1       3.507  -2.511   4.157  0.00  0.00    -0.074 S 
BRANCH  17  18
ATOM     18  C   UNL     1       4.431  -3.711   5.059  0.00  0.00    +0.210 A 
ATOM     19  N   UNL     1       3.998  -4.883   5.469  0.00  0.00    -0.101 NA
ATOM     20  N   UNL     1       4.926  -5.511   6.097  0.00  0.00    -0.022 NA
ATOM     21  N   UNL     1       6.001  -4.800   6.135  0.00  0.00    -0.043 NA
ATOM     22  N   UNL     1       5.721  -3.602   5.454  0.00  0.00    -0.220 N 
BRANCH  22  23
ATOM     23  C   UNL     1       6.630  -2.476   5.225  0.00  0.00    +0.151 C 
BRANCH  23  24
ATOM     24  C   UNL     1       6.516  -1.484   6.384  0.00  0.00    +0.004 C 
ATOM     25  C   UNL     1       7.008  -2.146   7.672  0.00  0.00    +0.009 C 
ATOM     26  C   UNL     1       7.370  -0.251   6.085  0.00  0.00    +0.009 C 
ENDBRANCH  23  24
ENDBRANCH  22  23
ENDBRANCH  17  18
ENDBRANCH  15  17
ENDBRANCH   9  15
TORSDOF 6
