REMARK  Name = ZINC09520721
REMARK  10 active torsions:
REMARK  status: ('A' for Active; 'I' for Inactive)
REMARK    1  A    between atoms: C_1  and  C_2
REMARK    2  A    between atoms: C_2  and  O_3
REMARK    3  A    between atoms: O_3  and  C_4
REMARK    4  A    between atoms: C_4  and  C_6
REMARK    5  A    between atoms: C_10  and  N_11
REMARK    6  A    between atoms: C_12  and  C_14
REMARK    7  A    between atoms: C_14  and  C_16
REMARK    8  A    between atoms: C_14  and  N_17
REMARK    9  A    between atoms: C_25  and  C_30
REMARK   10  A    between atoms: C_27  and  C_29
REMARK                            x       y       z     vdW  Elec       q    Type
REMARK                         _______ _______ _______ _____ _____    ______ ____
ROOT
ATOM      1  C   UNL     1       2.078   5.563  -0.245  0.00  0.00    +0.176 C 
ATOM      2  C   UNL     1       2.824   5.303   1.066  0.00  0.00    +0.041 C 
ENDROOT
BRANCH   1   3
ATOM      3  N   UNL     1       1.234   6.752  -0.099  0.00  0.00    -0.265 N 
ATOM      4  C   UNL     1       0.289   6.800   0.861  0.00  0.00    +0.260 A 
ATOM      5  O   UNL     1       0.127   5.857   1.617  0.00  0.00    -0.267 OA
ATOM      6  C   UNL     1      -0.508   7.961   0.981  0.00  0.00    +0.038 A 
ATOM      7  C   UNL     1      -0.297   8.992   0.125  0.00  0.00    +0.053 A 
ATOM      8  N   UNL     1       0.652   8.886  -0.815  0.00  0.00    -0.217 NA
ATOM      9  C   UNL     1       1.395   7.812  -0.933  0.00  0.00    +0.236 A 
ATOM     10  N   UNL     1       2.360   7.758  -1.925  0.00  0.00    -0.204 N 
ATOM     11  C   UNL     1       3.629   8.244  -1.837  0.00  0.00    +0.045 A 
ATOM     12  C   UNL     1       4.245   7.992  -3.013  0.00  0.00    +0.048 A 
ATOM     13  C   UNL     1       3.331   7.333  -3.847  0.00  0.00    +0.061 A 
ATOM     14  N   UNL     1       2.207   7.188  -3.195  0.00  0.00    -0.169 NA
ATOM     15  C   UNL     1       3.601   6.864  -5.254  0.00  0.00    +0.067 C 
ATOM     16  C   UNL     1       4.236   8.938  -0.645  0.00  0.00    +0.066 C 
ATOM     17  C   UNL     1      -1.084  10.274   0.188  0.00  0.00    +0.056 C 
ATOM     18  C   UNL     1      -2.371  10.077   0.986  0.00  0.00    +0.006 C 
ATOM     19  C   UNL     1      -2.014   9.423   2.326  0.00  0.00    +0.005 C 
ATOM     20  C   UNL     1      -1.561   7.989   2.056  0.00  0.00    +0.042 C 
ENDBRANCH   1   3
BRANCH   1  22
ATOM     21  N   UNL     1       1.779   3.162  -0.757  0.00  0.00    -0.278 N 
ATOM     22  C   UNL     1       1.216   4.373  -0.576  0.00  0.00    +0.240 C 
ATOM     23  O   UNL     1       0.015   4.505  -0.680  0.00  0.00    -0.273 OA
ATOM     24  H   UNL     1       2.740   3.057  -0.673  0.00  0.00    +0.155 HD
BRANCH  21  29
ATOM     25  C   UNL     1       1.377   0.753  -1.282  0.00  0.00    +0.091 A 
ATOM     26  C   UNL     1       0.336  -0.214  -1.589  0.00  0.00    -0.021 A 
ATOM     27  C   UNL     1      -0.919   0.284  -1.627  0.00  0.00    -0.004 A 
ATOM     28  S   UNL     1      -0.734   2.006  -1.262  0.00  0.00    -0.077 S 
ATOM     29  C   UNL     1       0.986   2.067  -1.062  0.00  0.00    +0.086 A 
ATOM     30  C   UNL     1      -2.181  -0.469  -1.916  0.00  0.00    +0.043 C 
ATOM     31  C   UNL     1      -1.805  -1.824  -2.535  0.00  0.00    +0.005 C 
ATOM     32  C   UNL     1      -0.705  -2.466  -1.685  0.00  0.00    +0.005 C 
ATOM     33  C   UNL     1       0.603  -1.690  -1.855  0.00  0.00    +0.037 C 
BRANCH  25  34
ATOM     34  C   UNL     1       2.784   0.356  -1.209  0.00  0.00    +0.342 C 
ATOM     35  O   UNL     1       3.481   0.398  -2.205  0.00  0.00    -0.245 OA
BRANCH  34  36
ATOM     36  O   UNL     1       3.309  -0.054  -0.036  0.00  0.00    -0.461 OA
BRANCH  36  38
ATOM     37  C   UNL     1       5.123  -0.867   1.370  0.00  0.00    +0.048 C 
ATOM     38  C   UNL     1       4.711  -0.432  -0.037  0.00  0.00    +0.229 C 
ENDBRANCH  36  38
ENDBRANCH  34  36
ENDBRANCH  25  34
ENDBRANCH  21  29
ENDBRANCH   1  22
TORSDOF 6
