REMARK  Name = ZINC06134841
REMARK  15 active torsions:
REMARK  status: ('A' for Active; 'I' for Inactive)
REMARK    1  A    between atoms: C_1  and  C_2
REMARK    2  A    between atoms: C_2  and  C_3
REMARK    3  A    between atoms: C_6  and  N_9
REMARK    4  A    between atoms: N_9  and  C_10
REMARK    5  A    between atoms: C_10  and  N_12
REMARK    6  A    between atoms: N_12  and  C_13
REMARK    7  A    between atoms: N_12  and  C_19
REMARK    8  A    between atoms: C_13  and  C_14
REMARK    9  A    between atoms: C_14  and  N_66
REMARK   10  A    between atoms: C_15  and  C_16
REMARK   11  A    between atoms: C_15  and  N_66
REMARK   12  A    between atoms: C_17  and  C_18
REMARK   13  A    between atoms: C_17  and  N_66
REMARK   14  A    between atoms: C_19  and  C_20
REMARK   15  A    between atoms: C_24  and  C_32
REMARK                            x       y       z     vdW  Elec       q    Type
REMARK                         _______ _______ _______ _____ _____    ______ ____
ROOT
ATOM      1  N   UNL     1       1.002  -2.971   1.273  0.00  0.00    -0.310 N 
ENDROOT
BRANCH   1   2
ATOM      2  C   UNL     1       2.102  -3.235   2.006  0.00  0.00    +0.137 C 
ATOM      3  S   UNL     1       3.649  -3.198   1.273  0.00  0.00    -0.018 S 
BRANCH   2   4
ATOM      4  N   UNL     1       1.984  -3.528   3.317  0.00  0.00    -0.297 N 
ATOM      5  H   UNL     1       1.105  -3.610   3.718  0.00  0.00    +0.154 HD
BRANCH   4   9
ATOM      6  C   UNL     1       5.395  -4.081   5.643  0.00  0.00    -0.048 A 
ATOM      7  C   UNL     1       4.354  -3.306   6.119  0.00  0.00    +0.005 A 
ATOM      8  C   UNL     1       3.221  -3.121   5.350  0.00  0.00    +0.023 A 
ATOM      9  C   UNL     1       3.129  -3.714   4.098  0.00  0.00    +0.033 A 
ATOM     10  C   UNL     1       4.175  -4.497   3.625  0.00  0.00    +0.023 A 
ATOM     11  C   UNL     1       5.307  -4.673   4.396  0.00  0.00    +0.005 A 
BRANCH   6  13
ATOM     12  C   UNL     1       6.449  -5.519   7.367  0.00  0.00    +0.009 C 
ATOM     13  C   UNL     1       6.629  -4.282   6.484  0.00  0.00    +0.032 C 
ENDBRANCH   6  13
ENDBRANCH   4   9
ENDBRANCH   2   4
ENDBRANCH   1   2
BRANCH   1  14
ATOM     14  C   UNL     1      -0.321  -3.002   1.900  0.00  0.00    +0.088 C 
BRANCH  14  15
ATOM     15  C   UNL     1      -0.902  -4.414   1.794  0.00  0.00    -0.060 C 
BRANCH  15  16
ATOM     16  N   UNL     1      -2.169  -4.462   2.555  0.00  0.00    +0.380 N 
ATOM     17  H   UNL     1      -2.048  -3.951   3.438  0.00  0.00    -0.082 HD
BRANCH  16  18
ATOM     18  C   UNL     1      -3.251  -3.825   1.776  0.00  0.00    -0.082 C 
ATOM     19  C   UNL     1      -4.487  -3.688   2.668  0.00  0.00    -0.017 C 
ENDBRANCH  16  18
BRANCH  16  20
ATOM     20  C   UNL     1      -2.522  -5.865   2.858  0.00  0.00    -0.082 C 
ATOM     21  C   UNL     1      -1.654  -6.350   4.021  0.00  0.00    -0.017 C 
ENDBRANCH  16  20
ENDBRANCH  15  16
ENDBRANCH  14  15
ENDBRANCH   1  14
BRANCH   1  22
ATOM     22  C   UNL     1       1.131  -2.652  -0.151  0.00  0.00    +0.147 C 
BRANCH  22  23
ATOM     23  C   UNL     1       1.293  -1.164  -0.320  0.00  0.00    +0.035 A 
ATOM     24  C   UNL     1       2.534  -0.627  -0.420  0.00  0.00    +0.020 A 
ATOM     25  C   UNL     1       2.658   0.823  -0.584  0.00  0.00    -0.001 A 
ATOM     26  C   UNL     1       3.912   1.435  -0.692  0.00  0.00    +0.013 A 
ATOM     27  C   UNL     1       3.993   2.790  -0.845  0.00  0.00    -0.050 A 
ATOM     28  C   UNL     1       2.842   3.565  -0.893  0.00  0.00    +0.005 A 
ATOM     29  C   UNL     1       1.597   2.984  -0.789  0.00  0.00    +0.026 A 
ATOM     30  C   UNL     1       1.490   1.606  -0.633  0.00  0.00    +0.049 A 
ATOM     31  N   UNL     1       0.257   0.998  -0.526  0.00  0.00    -0.322 N 
ATOM     32  H   UNL     1      -0.572   1.556  -0.561  0.00  0.00    +0.169 HD
ATOM     33  C   UNL     1       0.153  -0.334  -0.375  0.00  0.00    +0.254 A 
ATOM     34  O   UNL     1      -0.953  -0.837  -0.284  0.00  0.00    -0.268 OA
ATOM     35  C   UNL     1       5.343   3.448  -0.962  0.00  0.00    +0.044 C 
ENDBRANCH  22  23
ENDBRANCH   1  22
TORSDOF 11
