REMARK  Name = ZINC04713141
REMARK  6 active torsions:
REMARK  status: ('A' for Active; 'I' for Inactive)
REMARK    1  A    between atoms: C_1  and  C_2
REMARK    2  A    between atoms: C_4  and  C_25
REMARK    3  A    between atoms: C_9  and  N_13
REMARK    4  A    between atoms: N_13  and  N_14
REMARK    5  A    between atoms: C_15  and  C_16
REMARK    6  A    between atoms: C_21  and  O_22
REMARK                            x       y       z     vdW  Elec       q    Type
REMARK                         _______ _______ _______ _____ _____    ______ ____
ROOT
ATOM      1  N   UNL     1       1.049  -4.292   4.816  0.00  0.00    -0.221 N 
ATOM      2  H   UNL     1       1.400  -3.467   5.186  0.00  0.00    +0.176 HD
ENDROOT
BRANCH   1  11
ATOM      3  C   UNL     1      -0.018   1.503   0.010  0.00  0.00    +0.067 C 
ATOM      4  C   UNL     1       0.002  -0.004   0.002  0.00  0.00    +0.061 A 
ATOM      5  C   UNL     1       0.008  -0.817  -1.138  0.00  0.00    +0.048 A 
ATOM      6  C   UNL     1       0.027  -2.107  -0.730  0.00  0.00    +0.044 A 
ATOM      7  N   UNL     1       0.034  -2.108   0.628  0.00  0.00    -0.219 N 
ATOM      8  N   UNL     1       0.023  -0.775   1.058  0.00  0.00    -0.170 NA
ATOM      9  C   UNL     1       0.052  -3.237   1.450  0.00  0.00    +0.159 A 
ATOM     10  C   UNL     1       0.558  -3.160   2.741  0.00  0.00    +0.093 A 
ATOM     11  C   UNL     1       0.555  -4.316   3.521  0.00  0.00    +0.143 A 
ATOM     12  N   UNL     1       0.071  -5.443   3.003  0.00  0.00    -0.219 NA
ATOM     13  C   UNL     1      -0.400  -5.473   1.773  0.00  0.00    +0.225 A 
ATOM     14  N   UNL     1      -0.418  -4.401   1.008  0.00  0.00    -0.216 NA
ATOM     15  C   UNL     1       0.039  -3.321  -1.622  0.00  0.00    +0.066 C 
ENDBRANCH   1  11
BRANCH   1  16
ATOM     16  N   UNL     1       1.041  -5.459   5.590  0.00  0.00    -0.189 NA
ATOM     17  C   UNL     1       1.503  -5.437   6.803  0.00  0.00    +0.142 C 
BRANCH  17  18
ATOM     18  C   UNL     1       1.494  -6.665   7.618  0.00  0.00    +0.039 A 
ATOM     19  C   UNL     1       1.986  -6.643   8.925  0.00  0.00    +0.033 A 
ATOM     20  C   UNL     1       1.975  -7.797   9.683  0.00  0.00    +0.043 A 
ATOM     21  C   UNL     1       1.479  -8.976   9.153  0.00  0.00    +0.043 A 
ATOM     22  C   UNL     1       0.990  -9.010   7.859  0.00  0.00    +0.084 A 
ATOM     23  C   UNL     1       0.988  -7.858   7.087  0.00  0.00    +0.144 A 
ATOM     24 CL   UNL     1       0.371 -10.493   7.205  0.00  0.00    -0.080 Cl
ATOM     25 CL   UNL     1       2.586  -7.769  11.308  0.00  0.00    -0.083 Cl
BRANCH  23  26
ATOM     26  O   UNL     1       0.502  -7.889   5.819  0.00  0.00    -0.505 OA
ATOM     27  H   UNL     1       1.165  -8.104   5.149  0.00  0.00    +0.292 HD
ENDBRANCH  23  26
ENDBRANCH  17  18
ENDBRANCH   1  16
TORSDOF 4
