REMARK  Name = ZINC49979142
REMARK  9 active torsions:
REMARK  status: ('A' for Active; 'I' for Inactive)
REMARK    1  A    between atoms: C_1  and  C_2
REMARK    2  A    between atoms: C_5  and  C_30
REMARK    3  A    between atoms: C_10  and  C_12
REMARK    4  A    between atoms: C_17  and  N_18
REMARK    5  A    between atoms: C_19  and  C_21
REMARK    6  A    between atoms: C_21  and  N_22
REMARK    7  A    between atoms: C_23  and  C_25
REMARK    8  A    between atoms: C_25  and  N_26
REMARK    9  A    between atoms: C_27  and  C_29
REMARK                            x       y       z     vdW  Elec       q    Type
REMARK                         _______ _______ _______ _____ _____    ______ ____
ROOT
ATOM      1  C   UNL     1       1.996   1.074   3.362  0.00  0.00    +0.058 A 
ATOM      2  C   UNL     1       0.658   0.730   3.568  0.00  0.00    +0.015 A 
ATOM      3  C   UNL     1       0.022   1.109   4.730  0.00  0.00    +0.001 A 
ATOM      4  C   UNL     1       0.702   1.832   5.696  0.00  0.00    +0.002 A 
ATOM      5  C   UNL     1       2.024   2.180   5.507  0.00  0.00    +0.024 A 
ATOM      6  C   UNL     1       2.684   1.801   4.345  0.00  0.00    +0.046 A 
ENDROOT
BRANCH   1  14
ATOM      7  C   UNL     1       1.893   3.896   0.680  0.00  0.00    +0.009 C 
ATOM      8  C   UNL     1       0.977   2.894  -0.025  0.00  0.00    +0.004 C 
ATOM      9  C   UNL     1       1.580   2.515  -1.379  0.00  0.00    +0.009 C 
ATOM     10  C   UNL     1       2.973   1.916  -1.170  0.00  0.00    +0.004 C 
ATOM     11  C   UNL     1       2.855   0.646  -0.321  0.00  0.00    +0.111 C 
ATOM     12  N   UNL     1       2.145   0.973   0.923  0.00  0.00    -0.297 N 
ATOM     13  C   UNL     1       0.836   1.635   0.837  0.00  0.00    +0.111 C 
ATOM     14  C   UNL     1       2.684   0.670   2.121  0.00  0.00    +0.248 C 
ATOM     15  O   UNL     1       3.736   0.065   2.178  0.00  0.00    -0.270 OA
ATOM     16  C   UNL     1       3.589   1.569  -2.526  0.00  0.00    +0.009 C 
ENDBRANCH   1  14
BRANCH   6  17
ATOM     17  N   UNL     1       4.020   2.146   4.154  0.00  0.00    -0.284 N 
ATOM     18  C   UNL     1       4.851   2.234   5.211  0.00  0.00    +0.234 C 
ATOM     19  O   UNL     1       4.420   2.082   6.335  0.00  0.00    -0.274 OA
ATOM     20  H   UNL     1       4.352   2.323   3.260  0.00  0.00    +0.155 HD
BRANCH  18  21
ATOM     21  C   UNL     1       6.314   2.521   4.997  0.00  0.00    +0.200 C 
BRANCH  21  22
ATOM     22  N   UNL     1       6.998   2.566   6.293  0.00  0.00    -0.305 N 
ATOM     23  C   UNL     1       8.322   2.809   6.348  0.00  0.00    +0.231 C 
ATOM     24  O   UNL     1       8.948   2.991   5.325  0.00  0.00    -0.274 OA
ATOM     25  H   UNL     1       6.497   2.420   7.111  0.00  0.00    +0.149 HD
BRANCH  23  26
ATOM     26  C   UNL     1       9.025   2.856   7.680  0.00  0.00    +0.200 C 
BRANCH  26  27
ATOM     27  N   UNL     1      10.448   3.134   7.472  0.00  0.00    -0.307 N 
ATOM     28  C   UNL     1      11.279   3.222   8.530  0.00  0.00    +0.210 C 
ATOM     29  O   UNL     1      10.849   3.070   9.653  0.00  0.00    -0.276 OA
ATOM     30  C   UNL     1      12.743   3.509   8.316  0.00  0.00    +0.109 C 
ATOM     31  H   UNL     1      10.792   3.256   6.573  0.00  0.00    +0.149 HD
ENDBRANCH  26  27
ENDBRANCH  23  26
ENDBRANCH  21  22
ENDBRANCH  18  21
ENDBRANCH   6  17
TORSDOF 6
