REMARK  Name = ZINC06224461
REMARK  3 active torsions:
REMARK  status: ('A' for Active; 'I' for Inactive)
REMARK    1  A    between atoms: C_3  and  N_22
REMARK    2  A    between atoms: C_4  and  C_8
REMARK    3  A    between atoms: C_13  and  C_16
REMARK                            x       y       z     vdW  Elec       q    Type
REMARK                         _______ _______ _______ _____ _____    ______ ____
ROOT
ATOM      1  C   UNL     1       3.706  -0.660  -0.114  0.00  0.00    +0.252 C 
ATOM      2  O   UNL     1       4.743  -0.034  -0.023  0.00  0.00    -0.270 OA
ATOM      3  N   UNL     1       3.739  -1.999  -0.265  0.00  0.00    -0.261 N 
ATOM      4  C   UNL     1       4.941  -2.653  -0.317  0.00  0.00    +0.165 A 
ATOM      5  N   UNL     1       5.160  -3.946  -0.465  0.00  0.00    -0.224 NA
ATOM      6  C   UNL     1       6.402  -4.397  -0.493  0.00  0.00    +0.087 A 
ATOM      7  C   UNL     1       7.469  -3.380  -0.351  0.00  0.00    +0.077 A 
ATOM      8  S   UNL     1       6.579  -1.959  -0.208  0.00  0.00    -0.060 S 
ATOM      9  H   UNL     1       2.911  -2.499  -0.338  0.00  0.00    +0.157 HD
ENDROOT
BRANCH   1  13
ATOM     10  C   UNL     1      -0.021   1.370   0.048  0.00  0.00    +0.022 A 
ATOM     11  C   UNL     1       0.884   1.507   1.085  0.00  0.00    +0.035 A 
ATOM     12  C   UNL     1       2.096   0.851   1.039  0.00  0.00    +0.138 A 
ATOM     13  C   UNL     1       2.409   0.045  -0.058  0.00  0.00    +0.069 A 
ATOM     14  C   UNL     1       1.492  -0.090  -1.101  0.00  0.00    +0.035 A 
ATOM     15  C   UNL     1       0.282   0.573  -1.043  0.00  0.00    +0.042 A 
ATOM     16 CL   UNL     1      -0.861   0.406  -2.339  0.00  0.00    -0.084 Cl
BRANCH  12  17
ATOM     17  N   UNL     1       3.063   1.000   2.150  0.00  0.00    +0.057 N 
ATOM     18  O   UNL     1       2.825   1.859   3.119  0.00  0.00    -0.126 OA
ATOM     19  O   UNL     1       4.161   0.274   2.169  0.00  0.00    -0.126 OA
ENDBRANCH  12  17
ENDBRANCH   1  13
BRANCH   6  20
ATOM     20  C   UNL     1       6.691  -5.754  -0.647  0.00  0.00    +0.040 A 
ATOM     21  C   UNL     1       5.766  -6.890  -0.807  0.00  0.00    +0.019 A 
ATOM     22  C   UNL     1       6.364  -8.080  -0.933  0.00  0.00    +0.028 A 
ATOM     23  C   UNL     1       7.761  -8.153  -0.905  0.00  0.00    +0.079 A 
ATOM     24  S   UNL     1       8.277  -6.567  -0.710  0.00  0.00    -0.075 S 
ATOM     25 CL   UNL     1       8.747  -9.575  -1.048  0.00  0.00    -0.076 Cl
ENDBRANCH   6  20
TORSDOF 3
