REMARK  Name = ZINC34683930
REMARK  8 active torsions:
REMARK  status: ('A' for Active; 'I' for Inactive)
REMARK    1  A    between atoms: C_1  and  C_2
REMARK    2  A    between atoms: C_7  and  S_8
REMARK    3  A    between atoms: S_8  and  N_11
REMARK    4  A    between atoms: N_11  and  C_12
REMARK    5  A    between atoms: N_11  and  C_19
REMARK    6  A    between atoms: N_22  and  C_25
REMARK    7  A    between atoms: C_25  and  C_26
REMARK    8  A    between atoms: C_31  and  O_32
REMARK                            x       y       z     vdW  Elec       q    Type
REMARK                         _______ _______ _______ _____ _____    ______ ____
ROOT
ATOM      1  N   UNL     1       1.617   1.123   2.614  0.00  0.00    -0.200 N 
ENDROOT
BRANCH   1   2
ATOM      2  C   UNL     1       1.449   2.478   2.311  0.00  0.00    +0.052 A 
ATOM      3  C   UNL     1       2.276   3.089   1.378  0.00  0.00    +0.027 A 
ATOM      4  C   UNL     1       2.108   4.428   1.080  0.00  0.00    +0.040 A 
ATOM      5  C   UNL     1       1.116   5.159   1.710  0.00  0.00    +0.124 A 
ATOM      6  C   UNL     1       0.290   4.552   2.641  0.00  0.00    +0.040 A 
ATOM      7  C   UNL     1       0.451   3.212   2.938  0.00  0.00    +0.027 A 
ATOM      8  F   UNL     1       0.954   6.468   1.418  0.00  0.00    -0.205 F 
ENDBRANCH   1   2
BRANCH   1   9
ATOM      9  C   UNL     1       2.860   0.660   3.235  0.00  0.00    +0.095 C 
ATOM     10  C   UNL     1       4.041   0.975   2.313  0.00  0.00    +0.006 C 
ATOM     11  C   UNL     1       5.343   0.561   3.002  0.00  0.00    -0.077 C 
ATOM     12  N   UNL     1       5.492   1.302   4.260  0.00  0.00    +0.383 N 
ATOM     13  C   UNL     1       4.402   0.950   5.177  0.00  0.00    -0.077 C 
ATOM     14  C   UNL     1       3.063   1.379   4.572  0.00  0.00    +0.006 C 
ATOM     15  H   UNL     1       5.465   2.292   4.071  0.00  0.00    -0.081 HD
BRANCH  12  16
ATOM     16  C   UNL     1       6.780   0.959   4.879  0.00  0.00    -0.039 C 
BRANCH  16  17
ATOM     17  C   UNL     1       6.990   1.809   6.106  0.00  0.00    -0.022 A 
ATOM     18  C   UNL     1       7.798   2.927   6.042  0.00  0.00    +0.005 A 
ATOM     19  C   UNL     1       7.992   3.707   7.167  0.00  0.00    +0.000 A 
ATOM     20  C   UNL     1       7.376   3.370   8.359  0.00  0.00    +0.004 A 
ATOM     21  C   UNL     1       6.567   2.253   8.427  0.00  0.00    +0.045 A 
ATOM     22  C   UNL     1       6.367   1.472   7.298  0.00  0.00    +0.118 A 
BRANCH  22  23
ATOM     23  O   UNL     1       5.566   0.375   7.362  0.00  0.00    -0.507 OA
ATOM     24  H   UNL     1       6.031  -0.437   7.604  0.00  0.00    +0.292 HD
ENDBRANCH  22  23
ENDBRANCH  16  17
ENDBRANCH  12  16
ENDBRANCH   1   9
BRANCH   1  25
ATOM     25  S   UNL     1       0.410   0.042   2.271  0.00  0.00    +0.075 S 
ATOM     26  O   UNL     1      -0.765   0.806   2.038  0.00  0.00    -0.150 OA
ATOM     27  O   UNL     1       0.475  -0.969   3.267  0.00  0.00    -0.150 OA
BRANCH  25  34
ATOM     28  C   UNL     1       0.503   1.482  -0.387  0.00  0.00    +0.046 C 
ATOM     29  C   UNL     1       0.837   0.013  -0.424  0.00  0.00    -0.024 A 
ATOM     30  C   UNL     1       1.165  -0.591  -1.624  0.00  0.00    +0.005 A 
ATOM     31  C   UNL     1       1.471  -1.938  -1.658  0.00  0.00    +0.000 A 
ATOM     32  C   UNL     1       1.450  -2.682  -0.493  0.00  0.00    +0.002 A 
ATOM     33  C   UNL     1       1.123  -2.078   0.707  0.00  0.00    +0.029 A 
ATOM     34  C   UNL     1       0.821  -0.729   0.741  0.00  0.00    +0.112 A 
ENDBRANCH  25  34
ENDBRANCH   1  25
TORSDOF 7
