REMARK  Name = ZINC40688633
REMARK  9 active torsions:
REMARK  status: ('A' for Active; 'I' for Inactive)
REMARK    1  A    between atoms: C_1  and  C_2
REMARK    2  A    between atoms: C_4  and  C_20
REMARK    3  A    between atoms: C_7  and  N_8
REMARK    4  A    between atoms: C_10  and  N_18
REMARK    5  A    between atoms: C_11  and  N_15
REMARK    6  A    between atoms: N_15  and  C_16
REMARK    7  A    between atoms: N_15  and  C_17
REMARK    8  A    between atoms: C_20  and  C_22
REMARK    9  A    between atoms: C_20  and  C_24
REMARK                            x       y       z     vdW  Elec       q    Type
REMARK                         _______ _______ _______ _____ _____    ______ ____
ROOT
ATOM      1  C   UNL     1       0.347   0.852   0.824  0.00  0.00    +0.045 C 
ATOM      2  C   UNL     1       0.665  -0.607   0.619  0.00  0.00    -0.029 A 
ATOM      3  C   UNL     1       0.625  -1.151  -0.650  0.00  0.00    +0.011 A 
ATOM      4  C   UNL     1       0.918  -2.489  -0.840  0.00  0.00    -0.008 A 
ATOM      5  C   UNL     1       1.252  -3.287   0.240  0.00  0.00    +0.047 A 
ATOM      6  C   UNL     1       1.294  -2.749   1.512  0.00  0.00    +0.043 A 
ATOM      7  C   UNL     1       1.006  -1.403   1.705  0.00  0.00    +0.037 A 
ATOM      8 CL   UNL     1       1.618  -4.967  -0.003  0.00  0.00    -0.083 Cl
ENDROOT
BRANCH   7   9
ATOM      9  N   UNL     1       1.053  -0.854   2.989  0.00  0.00    -0.298 N 
ATOM     10  C   UNL     1       0.775  -1.648   4.096  0.00  0.00    +0.149 A 
ATOM     11  C   UNL     1       0.937  -1.145   5.388  0.00  0.00    +0.106 A 
ATOM     12  C   UNL     1       0.643  -1.985   6.464  0.00  0.00    +0.147 A 
ATOM     13  N   UNL     1       0.223  -3.224   6.218  0.00  0.00    -0.219 NA
ATOM     14  C   UNL     1       0.083  -3.660   4.983  0.00  0.00    +0.225 A 
ATOM     15  N   UNL     1       0.345  -2.898   3.940  0.00  0.00    -0.219 NA
ATOM     16  H   UNL     1       1.280   0.082   3.108  0.00  0.00    +0.154 HD
BRANCH  12  17
ATOM     17  N   UNL     1       0.787  -1.535   7.771  0.00  0.00    -0.320 N 
ATOM     18  C   UNL     1      -0.365  -0.981   8.486  0.00  0.00    +0.130 C 
ATOM     19  C   UNL     1       2.091  -1.613   8.433  0.00  0.00    +0.130 C 
ENDBRANCH  12  17
BRANCH  11  20
ATOM     20  N   UNL     1       1.383   0.169   5.600  0.00  0.00    -0.353 N 
ATOM     21  H   UNL     1       1.656   0.716   4.846  0.00  0.00    +0.143 HD
ATOM     22  H   UNL     1       1.419   0.530   6.499  0.00  0.00    +0.143 HD
ENDBRANCH  11  20
ENDBRANCH   7   9
BRANCH   4  23
ATOM     23  C   UNL     1       0.873  -3.079  -2.226  0.00  0.00    +0.153 C 
BRANCH  23  24
ATOM     24  C   UNL     1       1.914  -2.414  -3.089  0.00  0.00    -0.026 A 
ATOM     25  C   UNL     1       1.748  -1.100  -3.484  0.00  0.00    +0.006 A 
ATOM     26  C   UNL     1       2.702  -0.490  -4.275  0.00  0.00    +0.020 A 
ATOM     27  C   UNL     1       3.824  -1.194  -4.673  0.00  0.00    +0.041 A 
ATOM     28  C   UNL     1       3.990  -2.510  -4.277  0.00  0.00    +0.020 A 
ATOM     29  C   UNL     1       3.038  -3.117  -3.481  0.00  0.00    +0.006 A 
ATOM     30 CL   UNL     1       5.023  -0.429  -5.668  0.00  0.00    -0.084 Cl
ENDBRANCH  23  24
BRANCH  23  31
ATOM     31  C   UNL     1      -0.461  -2.860  -2.809  0.00  0.00    +0.075 C 
ATOM     32  N   UNL     1      -1.490  -2.691  -3.259  0.00  0.00    -0.196 NA
ENDBRANCH  23  31
ENDBRANCH   4  23
TORSDOF 6
