REMARK  Name = ZINC00646888
REMARK  7 active torsions:
REMARK  status: ('A' for Active; 'I' for Inactive)
REMARK    1  A    between atoms: C_1  and  C_2
REMARK    2  A    between atoms: C_9  and  N_30
REMARK    3  A    between atoms: C_10  and  C_28
REMARK    4  A    between atoms: C_11  and  C_13
REMARK    5  A    between atoms: C_16  and  O_19
REMARK    6  A    between atoms: O_19  and  C_20
REMARK    7  A    between atoms: C_20  and  C_21
REMARK                            x       y       z     vdW  Elec       q    Type
REMARK                         _______ _______ _______ _____ _____    ______ ____
ROOT
ATOM      1  C   UNL     1       9.056   4.592  -3.079  0.00  0.00    +0.068 C 
ATOM      2  C   UNL     1       9.402   5.413  -1.864  0.00  0.00    +0.068 A 
ATOM      3  C   UNL     1       8.775   6.588  -1.468  0.00  0.00    +0.049 A 
ATOM      4  C   UNL     1       9.378   7.023  -0.321  0.00  0.00    +0.222 A 
ATOM      5  N   UNL     1      10.347   6.147  -0.014  0.00  0.00    -0.246 N 
ATOM      6  H   UNL     1      10.961   6.199   0.774  0.00  0.00    +0.192 HD
ATOM      7  N   UNL     1      10.347   5.143  -0.995  0.00  0.00    -0.176 NA
ATOM      8  O   UNL     1       8.996   8.154   0.322  0.00  0.00    -0.423 OA
ATOM      9  C   UNL     1       8.181   9.003  -0.337  0.00  0.00    +0.200 C 
ATOM     10  C   UNL     1       7.522   8.684  -1.472  0.00  0.00    +0.098 C 
ATOM     11  C   UNL     1       7.632   7.325  -2.117  0.00  0.00    +0.101 C 
ENDROOT
BRANCH  11  12
ATOM     12  C   UNL     1       6.351   6.558  -1.912  0.00  0.00    -0.034 A 
ATOM     13  C   UNL     1       5.619   6.133  -3.005  0.00  0.00    +0.008 A 
ATOM     14  C   UNL     1       4.444   5.430  -2.819  0.00  0.00    +0.046 A 
ATOM     15  C   UNL     1       3.999   5.152  -1.534  0.00  0.00    +0.121 A 
ATOM     16  C   UNL     1       4.733   5.584  -0.440  0.00  0.00    +0.046 A 
ATOM     17  C   UNL     1       5.910   6.282  -0.631  0.00  0.00    +0.008 A 
BRANCH  15  18
ATOM     18  O   UNL     1       2.844   4.460  -1.349  0.00  0.00    -0.487 OA
BRANCH  18  19
ATOM     19  C   UNL     1       2.447   4.210   0.001  0.00  0.00    +0.264 C 
BRANCH  19  20
ATOM     20  C   UNL     1       1.153   3.438   0.009  0.00  0.00    -0.008 A 
ATOM     21  C   UNL     1      -0.054   4.112   0.023  0.00  0.00    +0.007 A 
ATOM     22  C   UNL     1      -1.242   3.405   0.031  0.00  0.00    +0.003 A 
ATOM     23  C   UNL     1      -1.224   2.023   0.019  0.00  0.00    +0.038 A 
ATOM     24  C   UNL     1      -0.016   1.347   0.009  0.00  0.00    +0.124 A 
ATOM     25  C   UNL     1       1.173   2.056   0.002  0.00  0.00    +0.045 A 
ATOM     26  F   UNL     1       0.002  -0.004   0.002  0.00  0.00    -0.205 F 
ENDBRANCH  19  20
ENDBRANCH  18  19
ENDBRANCH  15  18
ENDBRANCH  11  12
BRANCH   9  27
ATOM     27  N   UNL     1       8.012  10.265   0.176  0.00  0.00    -0.328 N 
ATOM     28  H   UNL     1       7.432  10.898  -0.276  0.00  0.00    +0.145 HD
ATOM     29  H   UNL     1       8.472  10.524   0.989  0.00  0.00    +0.145 HD
ENDBRANCH   9  27
BRANCH  10  30
ATOM     30  C   UNL     1       6.687   9.672  -2.086  0.00  0.00    +0.101 C 
ATOM     31  N   UNL     1       6.025  10.456  -2.573  0.00  0.00    -0.191 NA
ENDBRANCH  10  30
TORSDOF 6
