REMARK  Name = ZINC48335256
REMARK  9 active torsions:
REMARK  status: ('A' for Active; 'I' for Inactive)
REMARK    1  A    between atoms: C_1  and  C_2
REMARK    2  A    between atoms: C_4  and  C_8
REMARK    3  A    between atoms: C_5  and  C_7
REMARK    4  A    between atoms: C_8  and  C_10
REMARK    5  A    between atoms: C_8  and  N_11
REMARK    6  A    between atoms: N_11  and  C_12
REMARK    7  A    between atoms: C_13  and  N_19
REMARK    8  A    between atoms: C_14  and  C_18
REMARK    9  A    between atoms: N_16  and  C_17
REMARK                            x       y       z     vdW  Elec       q    Type
REMARK                         _______ _______ _______ _____ _____    ______ ____
ROOT
ATOM      1  N   UNL     1      -2.915  -2.726   1.024  0.00  0.00    -0.321 N 
ATOM      2  H   UNL     1      -3.022  -1.765   1.100  0.00  0.00    +0.148 HD
ENDROOT
BRANCH   1   3
ATOM      3  C   UNL     1      -3.960  -3.573   1.382  0.00  0.00    +0.148 A 
ATOM      4  C   UNL     1      -5.133  -3.202   1.966  0.00  0.00    +0.188 A 
ATOM      5  C   UNL     1      -5.900  -4.355   2.155  0.00  0.00    +0.092 A 
ATOM      6  N   UNL     1      -5.222  -5.379   1.705  0.00  0.00    -0.173 NA
ATOM      7  N   UNL     1      -3.998  -4.914   1.207  0.00  0.00    -0.251 N 
ATOM      8  C   UNL     1      -2.944  -5.735   0.606  0.00  0.00    +0.174 C 
ATOM      9  C   UNL     1      -7.274  -4.409   2.773  0.00  0.00    +0.070 C 
BRANCH   4  10
ATOM     10  N   UNL     1      -5.525  -1.823   2.336  0.00  0.00    +0.062 N 
ATOM     11  O   UNL     1      -6.115  -1.129   1.541  0.00  0.00    -0.126 OA
ATOM     12  O   UNL     1      -5.255  -1.392   3.433  0.00  0.00    -0.126 OA
ENDBRANCH   4  10
ENDBRANCH   1   3
BRANCH   1  13
ATOM     13  C   UNL     1      -1.654  -3.286   0.532  0.00  0.00    +0.100 C 
ATOM     14  C   UNL     1      -1.675  -3.325  -0.997  0.00  0.00    +0.033 C 
BRANCH  13  18
ATOM     15  C   UNL     1       0.400   1.129   2.021  0.00  0.00    +0.051 C 
ATOM     16  C   UNL     1       0.353  -0.337   1.676  0.00  0.00    -0.013 A 
ATOM     17  C   UNL     1      -0.699  -1.083   1.259  0.00  0.00    +0.016 A 
ATOM     18  C   UNL     1      -0.507  -2.426   0.997  0.00  0.00    -0.017 A 
ATOM     19  C   UNL     1       0.728  -2.959   1.166  0.00  0.00    -0.008 A 
ATOM     20  S   UNL     1       1.671  -1.542   1.704  0.00  0.00    -0.098 S 
ATOM     21  C   UNL     1       1.187  -4.378   0.951  0.00  0.00    +0.052 C 
ENDBRANCH  13  18
ENDBRANCH   1  13
TORSDOF 4
