REMARK  Name = ZINC39524320
REMARK  3 active torsions:
REMARK  status: ('A' for Active; 'I' for Inactive)
REMARK    1  A    between atoms: C_1  and  S_2
REMARK    2  A    between atoms: S_2  and  C_3
REMARK    3  A    between atoms: C_13  and  O_17
REMARK                            x       y       z     vdW  Elec       q    Type
REMARK                         _______ _______ _______ _____ _____    ______ ____
ROOT
ATOM      1  C   UNL     1       0.902  -0.439   1.516  0.00  0.00    +0.048 C 
ATOM      2  C   UNL     1       2.348   0.049   1.407  0.00  0.00    +0.014 C 
ATOM      3  C   UNL     1       3.107  -0.317   2.684  0.00  0.00    +0.003 C 
ATOM      4  C   UNL     1       3.095  -1.836   2.866  0.00  0.00    +0.024 C 
ATOM      5  C   UNL     1       1.649  -2.326   2.974  0.00  0.00    +0.041 C 
ATOM      6  C   UNL     1       0.889  -1.958   1.698  0.00  0.00    +0.038 C 
ATOM      7  C   UNL     1       1.639  -3.846   3.153  0.00  0.00    +0.024 C 
ATOM      8  C   UNL     1       0.192  -4.330   3.283  0.00  0.00    +0.006 C 
ATOM      9  C   UNL     1      -0.472  -3.619   4.465  0.00  0.00    +0.049 C 
ATOM     10  C   UNL     1      -0.402  -2.105   4.247  0.00  0.00    +0.200 C 
ATOM     11  N   UNL     1       1.002  -1.691   4.130  0.00  0.00    -0.186 NA
ATOM     12 CL   UNL     1       1.862  -2.022   5.571  0.00  0.00    -0.018 Cl
ENDROOT
BRANCH   1  14
ATOM     13  C   UNL     1      -0.022   1.810   0.012  0.00  0.00    +0.084 C 
ATOM     14  S   UNL     1       0.002  -0.004   0.002  0.00  0.00    -0.161 S 
ENDBRANCH   1  14
BRANCH  10  15
ATOM     15  O   UNL     1      -1.100  -1.764   3.049  0.00  0.00    -0.376 OA
ATOM     16  H   UNL     1      -2.036  -2.008   3.056  0.00  0.00    +0.211 HD
ENDBRANCH  10  15
TORSDOF 2
