REMARK  Name = ZINC06223278
REMARK  6 active torsions:
REMARK  status: ('A' for Active; 'I' for Inactive)
REMARK    1  A    between atoms: C_4  and  C_7
REMARK    2  A    between atoms: C_7  and  O_8
REMARK    3  A    between atoms: O_8  and  C_9
REMARK    4  A    between atoms: C_12  and  C_15
REMARK    5  A    between atoms: C_28  and  N_32
REMARK    6  A    between atoms: C_29  and  C_30
REMARK                            x       y       z     vdW  Elec       q    Type
REMARK                         _______ _______ _______ _____ _____    ______ ____
ROOT
ATOM      1  C   UNL     1      -0.013   1.086   0.008  0.00  0.00    +0.105 C 
ATOM      2  C   UNL     1      -0.712   1.568   1.250  0.00  0.00    +0.089 A 
ATOM      3  C   UNL     1      -0.434   0.955   2.488  0.00  0.00    +0.262 A 
ATOM      4  O   UNL     1       0.364   0.036   2.554  0.00  0.00    -0.267 OA
ATOM      5  N   UNL     1      -1.060   1.391   3.599  0.00  0.00    -0.275 N 
ATOM      6  H   UNL     1      -0.868   0.958   4.480  0.00  0.00    +0.173 HD
ATOM      7  C   UNL     1      -1.942   2.404   3.530  0.00  0.00    +0.329 A 
ATOM      8  O   UNL     1      -2.499   2.784   4.542  0.00  0.00    -0.247 OA
ATOM      9  N   UNL     1      -2.219   3.004   2.358  0.00  0.00    -0.278 N 
ATOM     10  H   UNL     1      -2.877   3.755   2.328  0.00  0.00    +0.173 HD
ATOM     11  C   UNL     1      -1.602   2.591   1.200  0.00  0.00    +0.214 A 
ATOM     12  O   UNL     1      -1.895   3.206   0.039  0.00  0.00    -0.425 OA
ATOM     13  C   UNL     1      -1.624   2.600  -1.131  0.00  0.00    +0.200 C 
ATOM     14  C   UNL     1      -0.735   1.581  -1.214  0.00  0.00    +0.098 C 
ENDROOT
BRANCH   1  18
ATOM     15  C   UNL     1       3.999   2.558  -0.023  0.00  0.00    +0.121 A 
ATOM     16  C   UNL     1       3.760   1.191  -0.028  0.00  0.00    +0.046 A 
ATOM     17  C   UNL     1       2.462   0.718  -0.018  0.00  0.00    +0.008 A 
ATOM     18  C   UNL     1       1.402   1.605  -0.003  0.00  0.00    -0.034 A 
ATOM     19  C   UNL     1       1.637   2.967  -0.003  0.00  0.00    +0.008 A 
ATOM     20  C   UNL     1       2.933   3.446  -0.007  0.00  0.00    +0.046 A 
BRANCH  15  21
ATOM     21  O   UNL     1       5.275   3.026  -0.033  0.00  0.00    -0.487 OA
BRANCH  21  22
ATOM     22  C   UNL     1       5.446   4.444  -0.027  0.00  0.00    +0.264 C 
BRANCH  22  26
ATOM     23  C   UNL     1       9.614   5.378  -0.065  0.00  0.00    +0.000 A 
ATOM     24  C   UNL     1       8.927   5.233  -1.256  0.00  0.00    +0.000 A 
ATOM     25  C   UNL     1       7.578   4.931  -1.244  0.00  0.00    +0.007 A 
ATOM     26  C   UNL     1       6.916   4.773  -0.041  0.00  0.00    -0.010 A 
ATOM     27  C   UNL     1       7.602   4.923   1.150  0.00  0.00    +0.007 A 
ATOM     28  C   UNL     1       8.952   5.220   1.138  0.00  0.00    +0.000 A 
ENDBRANCH  22  26
ENDBRANCH  21  22
ENDBRANCH  15  21
ENDBRANCH   1  18
BRANCH  13  29
ATOM     29  N   UNL     1      -2.264   3.025  -2.268  0.00  0.00    -0.328 N 
ATOM     30  H   UNL     1      -2.078   2.596  -3.119  0.00  0.00    +0.145 HD
ATOM     31  H   UNL     1      -2.903   3.753  -2.222  0.00  0.00    +0.145 HD
ENDBRANCH  13  29
BRANCH  14  32
ATOM     32  C   UNL     1      -0.480   0.968  -2.483  0.00  0.00    +0.101 C 
ATOM     33  N   UNL     1      -0.278   0.482  -3.490  0.00  0.00    -0.191 NA
ENDBRANCH  14  32
TORSDOF 6
