REMARK  Name = ZINC19105055
REMARK  8 active torsions:
REMARK  status: ('A' for Active; 'I' for Inactive)
REMARK    1  A    between atoms: C_1  and  C_2
REMARK    2  A    between atoms: C_2  and  C_3
REMARK    3  A    between atoms: C_3  and  C_4
REMARK    4  A    between atoms: C_7  and  C_10
REMARK    5  A    between atoms: C_10  and  C_30
REMARK    6  A    between atoms: N_13  and  C_17
REMARK    7  A    between atoms: C_17  and  C_18
REMARK    8  A    between atoms: N_20  and  C_21
REMARK                            x       y       z     vdW  Elec       q    Type
REMARK                         _______ _______ _______ _____ _____    ______ ____
ROOT
ATOM      1  C   UNL     1       5.922   6.923  -0.192  0.00  0.00    +0.135 C 
ATOM      2  C   UNL     1       4.580   6.502  -0.756  0.00  0.00    +0.251 C 
ATOM      3  O   UNL     1       4.253   6.468  -1.923  0.00  0.00    -0.272 OA
ATOM      4  N   UNL     1       3.824   6.171   0.310  0.00  0.00    -0.215 N 
ATOM      5  C   UNL     1       4.494   6.328   1.458  0.00  0.00    +0.310 C 
ATOM      6  O   UNL     1       4.021   6.098   2.553  0.00  0.00    -0.252 OA
ATOM      7  N   UNL     1       5.751   6.766   1.263  0.00  0.00    -0.281 N 
ATOM      8  C   UNL     1       7.034   6.008  -0.708  0.00  0.00    +0.047 C 
ATOM      9  H   UNL     1       6.414   6.947   1.947  0.00  0.00    +0.152 HD
ENDROOT
BRANCH   1  13
ATOM     10  C   UNL     1       6.755  10.995  -1.177  0.00  0.00    -0.047 A 
ATOM     11  C   UNL     1       7.257  10.450  -0.011  0.00  0.00    +0.004 A 
ATOM     12  C   UNL     1       6.988   9.132   0.308  0.00  0.00    +0.006 A 
ATOM     13  C   UNL     1       6.216   8.360  -0.539  0.00  0.00    -0.015 A 
ATOM     14  C   UNL     1       5.718   8.904  -1.709  0.00  0.00    +0.006 A 
ATOM     15  C   UNL     1       5.983  10.223  -2.025  0.00  0.00    +0.004 A 
BRANCH  10  16
ATOM     16  C   UNL     1       7.050  12.432  -1.525  0.00  0.00    +0.035 C 
BRANCH  16  18
ATOM     17  C   UNL     1       8.637  13.962  -2.701  0.00  0.00    +0.004 C 
ATOM     18  C   UNL     1       8.338  12.503  -2.348  0.00  0.00    +0.001 C 
ENDBRANCH  16  18
ENDBRANCH  10  16
ENDBRANCH   1  13
BRANCH   4  19
ATOM     19  C   UNL     1       2.438   5.704   0.224  0.00  0.00    +0.214 C 
BRANCH  19  20
ATOM     20  C   UNL     1       2.422   4.202   0.103  0.00  0.00    +0.235 C 
ATOM     21  O   UNL     1       3.465   3.583   0.090  0.00  0.00    -0.274 OA
ATOM     22  N   UNL     1       1.248   3.546   0.009  0.00  0.00    -0.282 N 
ATOM     23  H   UNL     1       0.418   4.044  -0.062  0.00  0.00    +0.155 HD
BRANCH  22  24
ATOM     24  C   UNL     1       1.225   2.150   0.013  0.00  0.00    +0.062 A 
ATOM     25  C   UNL     1       2.238   1.454   0.599  0.00  0.00    +0.025 A 
ATOM     26  C   UNL     1       2.245   0.060   0.620  0.00  0.00    +0.004 A 
ATOM     27  C   UNL     1       1.247  -0.664   0.059  0.00  0.00    +0.031 A 
ATOM     28  C   UNL     1       0.157  -0.008  -0.571  0.00  0.00    +0.102 A 
ATOM     29  C   UNL     1       0.143   1.452  -0.596  0.00  0.00    +0.121 A 
ATOM     30  N   UNL     1      -0.935   1.931  -1.210  0.00  0.00    -0.189 NA
ATOM     31  S   UNL     1      -1.765   0.686  -1.675  0.00  0.00    +0.117 S 
ATOM     32  N   UNL     1      -0.911  -0.528  -1.173  0.00  0.00    -0.191 NA
ENDBRANCH  22  24
ENDBRANCH  19  20
ENDBRANCH   4  19
TORSDOF 6
