REMARK  Name = ZINC63091446
REMARK  8 active torsions:
REMARK  status: ('A' for Active; 'I' for Inactive)
REMARK    1  A    between atoms: C_1  and  C_2
REMARK    2  A    between atoms: C_2  and  C_3
REMARK    3  A    between atoms: N_5  and  C_6
REMARK    4  A    between atoms: N_5  and  C_7
REMARK    5  A    between atoms: C_7  and  C_9
REMARK    6  A    between atoms: C_7  and  C_10
REMARK    7  A    between atoms: C_10  and  C_11
REMARK    8  A    between atoms: N_12  and  O_13
REMARK                            x       y       z     vdW  Elec       q    Type
REMARK                         _______ _______ _______ _____ _____    ______ ____
ROOT
ATOM      1  C   UNL     1      -3.014  -2.361   0.018  0.00  0.00    +0.080 C 
ATOM      2  C   UNL     1      -3.231  -3.221   1.265  0.00  0.00    +0.028 C 
ENDROOT
BRANCH   1   5
ATOM      3  C   UNL     1      -1.412  -0.526   0.013  0.00  0.00    +0.215 C 
ATOM      4  O   UNL     1      -2.344   0.250   0.026  0.00  0.00    -0.276 OA
ATOM      5  N   UNL     1      -1.640  -1.854   0.008  0.00  0.00    -0.301 N 
ATOM      6  C   UNL     1      -0.514  -2.791  -0.008  0.00  0.00    +0.132 C 
BRANCH   3   8
ATOM      7  C   UNL     1      -0.019   1.526   0.010  0.00  0.00    +0.013 C 
ATOM      8  C   UNL     1       0.002  -0.004   0.002  0.00  0.00    +0.092 C 
ENDBRANCH   3   8
ENDBRANCH   1   5
BRANCH   1   9
ATOM      9  C   UNL     1      -3.255  -3.208  -1.233  0.00  0.00    +0.096 C 
BRANCH   9  10
ATOM     10  C   UNL     1      -3.162  -2.333  -2.457  0.00  0.00    +0.133 C 
ATOM     11  N   UNL     1      -2.911  -1.072  -2.332  0.00  0.00    -0.077 NA
ATOM     12  N   UNL     1      -3.345  -2.878  -3.709  0.00  0.00    -0.344 N 
ATOM     13  H   UNL     1      -3.533  -3.825  -3.803  0.00  0.00    +0.144 HD
ATOM     14  H   UNL     1      -3.285  -2.315  -4.496  0.00  0.00    +0.144 HD
BRANCH  11  15
ATOM     15  O   UNL     1      -2.824  -0.250  -3.482  0.00  0.00    -0.408 OA
ATOM     16  H   UNL     1      -2.633   0.678  -3.288  0.00  0.00    +0.328 HD
ENDBRANCH  11  15
ENDBRANCH   9  10
ENDBRANCH   1   9
TORSDOF 5
