REMARK  Name = ZINC13635800
REMARK  5 active torsions:
REMARK  status: ('A' for Active; 'I' for Inactive)
REMARK    1  A    between atoms: C_1  and  C_2
REMARK    2  A    between atoms: N_9  and  C_13
REMARK    3  A    between atoms: C_13  and  C_14
REMARK    4  A    between atoms: C_13  and  C_15
REMARK    5  A    between atoms: C_13  and  C_16
REMARK                            x       y       z     vdW  Elec       q    Type
REMARK                         _______ _______ _______ _____ _____    ______ ____
ROOT
ATOM      1  C   UNL     1      -0.019   1.526   0.010  0.00  0.00    +0.007 C 
ATOM      2  C   UNL     1       0.002  -0.004   0.002  0.00  0.00    -0.014 C 
ATOM      3  C   UNL     1      -1.433  -0.534   0.013  0.00  0.00    +0.007 C 
ATOM      4  C   UNL     1      -1.412  -2.064  -0.006  0.00  0.00    +0.046 C 
ATOM      5  C   UNL     1      -0.657  -2.579   1.216  0.00  0.00    +0.107 C 
ATOM      6  C   UNL     1       0.771  -2.041   1.227  0.00  0.00    +0.046 C 
ATOM      7  C   UNL     1       0.742  -0.511   1.242  0.00  0.00    +0.007 C 
ATOM      8  N   UNL     1      -1.358  -2.193   2.451  0.00  0.00    -0.213 NA
ATOM      9  N   UNL     1      -1.703  -3.354   3.082  0.00  0.00    -0.239 N 
ATOM     10  C   UNL     1      -1.288  -4.434   2.368  0.00  0.00    +0.157 C 
ATOM     11  N   UNL     1      -0.647  -4.047   1.226  0.00  0.00    -0.347 N 
ATOM     12  S   UNL     1      -1.529  -6.012   2.824  0.00  0.00    -0.015 SA
ATOM     13  H   UNL     1      -2.175  -1.638   2.244  0.00  0.00    +0.147 HD
ATOM     14  H   UNL     1      -0.261  -4.629   0.552  0.00  0.00    +0.163 HD
ENDROOT
BRANCH   9  15
ATOM     15  C   UNL     1      -2.421  -3.426   4.357  0.00  0.00    +0.044 C 
ATOM     16  C   UNL     1      -2.717  -2.010   4.856  0.00  0.00    +0.033 C 
ATOM     17  C   UNL     1      -3.737  -4.182   4.159  0.00  0.00    +0.033 C 
ATOM     18  C   UNL     1      -1.561  -4.160   5.386  0.00  0.00    +0.033 C 
ENDBRANCH   9  15
TORSDOF 1
