REMARK  Name = ZINC56767369
REMARK  8 active torsions:
REMARK  status: ('A' for Active; 'I' for Inactive)
REMARK    1  A    between atoms: C_1  and  N_2
REMARK    2  A    between atoms: N_2  and  C_3
REMARK    3  A    between atoms: N_2  and  C_4
REMARK    4  A    between atoms: C_4  and  C_6
REMARK    5  A    between atoms: C_4  and  C_23
REMARK    6  A    between atoms: C_6  and  N_7
REMARK    7  A    between atoms: N_10  and  C_11
REMARK    8  A    between atoms: C_14  and  N_17
REMARK                            x       y       z     vdW  Elec       q    Type
REMARK                         _______ _______ _______ _____ _____    ______ ____
ROOT
ATOM      1  N   UNL     1      -0.407  -2.381   0.671  0.00  0.00    -0.300 N 
ATOM      2  C   UNL     1      -0.178  -3.707   0.730  0.00  0.00    +0.304 C 
ATOM      3  O   UNL     1      -0.594  -4.435  -0.151  0.00  0.00    -0.253 OA
ATOM      4  N   UNL     1       0.513  -4.227   1.764  0.00  0.00    -0.269 N 
ATOM      5  H   UNL     1      -0.075  -1.800   1.374  0.00  0.00    +0.150 HD
ATOM      6  H   UNL     1       0.770  -3.661   2.508  0.00  0.00    +0.156 HD
ENDROOT
BRANCH   4   7
ATOM      7  C   UNL     1       0.859  -5.585   1.763  0.00  0.00    +0.035 A 
ATOM      8  C   UNL     1       0.886  -6.295   2.957  0.00  0.00    +0.025 A 
ATOM      9  C   UNL     1       1.226  -7.633   2.956  0.00  0.00    +0.025 A 
ATOM     10  C   UNL     1       1.541  -8.269   1.763  0.00  0.00    +0.040 A 
ATOM     11  C   UNL     1       1.514  -7.559   0.570  0.00  0.00    +0.025 A 
ATOM     12  C   UNL     1       1.168  -6.222   0.569  0.00  0.00    +0.025 A 
BRANCH  10  13
ATOM     13  N   UNL     1       1.886  -9.627   1.762  0.00  0.00    -0.234 N 
ATOM     14  C   UNL     1       2.249 -10.433   0.580  0.00  0.00    +0.158 C 
ATOM     15  C   UNL     1       2.881 -11.690   1.222  0.00  0.00    +0.253 C 
ATOM     16  O   UNL     1       2.276 -11.696   2.530  0.00  0.00    -0.448 OA
ATOM     17  C   UNL     1       1.953 -10.429   2.841  0.00  0.00    +0.407 C 
ATOM     18  O   UNL     1       1.739 -10.050   3.976  0.00  0.00    -0.226 OA
ENDBRANCH  10  13
ENDBRANCH   4   7
BRANCH   1  19
ATOM     19  C   UNL     1      -1.158  -1.816  -0.453  0.00  0.00    +0.095 C 
BRANCH  19  20
ATOM     20  C   UNL     1      -1.386  -0.321  -0.214  0.00  0.00    -0.020 C 
BRANCH  20  21
ATOM     21  C   UNL     1      -2.199  -0.131   1.040  0.00  0.00    -0.052 A 
ATOM     22  C   UNL     1      -1.585   0.217   2.228  0.00  0.00    +0.009 A 
ATOM     23  C   UNL     1      -2.345   0.381   3.338  0.00  0.00    +0.045 A 
ATOM     24  S   UNL     1      -3.984   0.040   2.716  0.00  0.00    -0.105 S 
ATOM     25  C   UNL     1      -3.545  -0.293   1.018  0.00  0.00    +0.047 A 
ENDBRANCH  20  21
BRANCH  20  27
ATOM     26  C   UNL     1      -2.237   1.704  -1.177  0.00  0.00    -0.096 C 
ATOM     27  N   UNL     1      -2.107   0.252  -1.358  0.00  0.00    +0.382 N 
ATOM     28  C   UNL     1      -1.363  -0.022  -2.595  0.00  0.00    -0.096 C 
ATOM     29  H   UNL     1      -3.025  -0.162  -1.419  0.00  0.00    -0.082 HD
ENDBRANCH  20  27
ENDBRANCH  19  20
ENDBRANCH   1  19
TORSDOF 6
