REMARK  Name = ZINC38889491
REMARK  3 active torsions:
REMARK  status: ('A' for Active; 'I' for Inactive)
REMARK    1  A    between atoms: C_4  and  C_7
REMARK    2  A    between atoms: N_13  and  N_14
REMARK    3  A    between atoms: C_15  and  C_16
REMARK                            x       y       z     vdW  Elec       q    Type
REMARK                         _______ _______ _______ _____ _____    ______ ____
ROOT
ATOM      1  C   UNL     1       3.724  -0.714  -0.048  0.00  0.00    +0.264 C 
ATOM      2  N   UNL     1       4.738   0.037   0.708  0.00  0.00    -0.189 NA
ATOM      3  N   UNL     1       5.101  -0.660   1.659  0.00  0.00    -0.219 N 
ATOM      4  C   UNL     1       4.474  -1.866   1.716  0.00  0.00    +0.174 C 
ATOM      5  S   UNL     1       4.752  -3.060   2.910  0.00  0.00    -0.015 S 
ATOM      6  N   UNL     1       3.599  -1.986   0.689  0.00  0.00    -0.172 N 
ATOM      7  H   UNL     1       5.768  -0.376   2.304  0.00  0.00    +0.176 HD
ENDROOT
BRANCH   1  11
ATOM      8  C   UNL     1       0.002   1.384  -0.058  0.00  0.00    +0.000 A 
ATOM      9  C   UNL     1       1.192   2.087  -0.059  0.00  0.00    +0.000 A 
ATOM     10  C   UNL     1       2.397   1.408  -0.055  0.00  0.00    +0.007 A 
ATOM     11  C   UNL     1       2.411   0.026  -0.050  0.00  0.00    -0.002 A 
ATOM     12  C   UNL     1       1.221  -0.677  -0.048  0.00  0.00    +0.007 A 
ATOM     13  C   UNL     1       0.017   0.002  -0.053  0.00  0.00    +0.000 A 
ENDBRANCH   1  11
BRANCH   6  14
ATOM     14  N   UNL     1       2.764  -3.070   0.392  0.00  0.00    -0.183 NA
ATOM     15  C   UNL     1       2.856  -4.168   1.080  0.00  0.00    +0.138 C 
BRANCH  15  16
ATOM     16  C   UNL     1       2.056  -5.346   0.698  0.00  0.00    -0.005 A 
ATOM     17  C   UNL     1       1.202  -5.287  -0.406  0.00  0.00    +0.011 A 
ATOM     18  C   UNL     1       0.457  -6.393  -0.758  0.00  0.00    +0.020 A 
ATOM     19  C   UNL     1       0.554  -7.560  -0.020  0.00  0.00    +0.041 A 
ATOM     20  C   UNL     1       1.398  -7.626   1.076  0.00  0.00    +0.020 A 
ATOM     21  C   UNL     1       2.153  -6.529   1.436  0.00  0.00    +0.011 A 
ATOM     22 CL   UNL     1      -0.388  -8.948  -0.469  0.00  0.00    -0.084 Cl
ENDBRANCH  15  16
ENDBRANCH   6  14
TORSDOF 3
