REMARK  Name = ZINC45977415
REMARK  6 active torsions:
REMARK  status: ('A' for Active; 'I' for Inactive)
REMARK    1  A    between atoms: C_1  and  C_2
REMARK    2  A    between atoms: C_3  and  C_12
REMARK    3  A    between atoms: C_5  and  C_7
REMARK    4  A    between atoms: N_14  and  C_15
REMARK    5  A    between atoms: C_15  and  C_17
REMARK    6  A    between atoms: C_15  and  C_18
REMARK                            x       y       z     vdW  Elec       q    Type
REMARK                         _______ _______ _______ _____ _____    ______ ____
ROOT
ATOM      1  C   UNL     1      -2.497  -0.409   0.012  0.00  0.00    +0.266 C 
ATOM      2  O   UNL     1      -2.781   0.774   0.020  0.00  0.00    -0.268 OA
ATOM      3  N   UNL     1      -3.474  -1.337   0.011  0.00  0.00    -0.303 N 
ATOM      4  H   UNL     1      -3.247  -2.280   0.004  0.00  0.00    +0.150 HD
ENDROOT
BRANCH   1   7
ATOM      5  C   UNL     1      -0.018   1.503   0.010  0.00  0.00    +0.089 C 
ATOM      6  C   UNL     1       0.002  -0.004   0.002  0.00  0.00    +0.135 A 
ATOM      7  C   UNL     1      -1.083  -0.827   0.003  0.00  0.00    +0.167 A 
ATOM      8  N   UNL     1      -0.621  -2.105  -0.007  0.00  0.00    -0.204 NA
ATOM      9  C   UNL     1       0.691  -2.071  -0.012  0.00  0.00    +0.235 A 
ATOM     10  O   UNL     1       1.094  -0.787  -0.013  0.00  0.00    -0.439 OA
BRANCH   9  11
ATOM     11  C   UNL     1       1.576  -3.245  -0.022  0.00  0.00    +0.074 A 
ATOM     12  C   UNL     1       2.957  -3.295  -0.023  0.00  0.00    +0.021 A 
ATOM     13  C   UNL     1       3.568  -4.527  -0.032  0.00  0.00    +0.008 A 
ATOM     14  C   UNL     1       2.801  -5.649  -0.041  0.00  0.00    +0.046 A 
ATOM     15  S   UNL     1       1.147  -4.978  -0.028  0.00  0.00    -0.092 S 
ENDBRANCH   9  11
ENDBRANCH   1   7
BRANCH   3  16
ATOM     16  C   UNL     1      -4.879  -0.921   0.020  0.00  0.00    +0.100 C 
ATOM     17  C   UNL     1      -5.325  -0.664   1.461  0.00  0.00    +0.033 C 
BRANCH  16  18
ATOM     18  C   UNL     1      -5.729  -2.010  -0.583  0.00  0.00    -0.027 A 
ATOM     19  C   UNL     1      -5.459  -3.336  -0.293  0.00  0.00    +0.007 A 
ATOM     20  C   UNL     1      -6.236  -4.336  -0.843  0.00  0.00    +0.024 A 
ATOM     21  C   UNL     1      -7.289  -4.010  -1.688  0.00  0.00    +0.037 A 
ATOM     22  C   UNL     1      -7.556  -2.678  -1.977  0.00  0.00    -0.025 A 
ATOM     23  C   UNL     1      -6.779  -1.682  -1.419  0.00  0.00    +0.011 A 
ATOM     24  C   UNL     1      -8.699  -2.325  -2.893  0.00  0.00    +0.046 C 
ATOM     25  C   UNL     1      -8.845  -3.403  -3.967  0.00  0.00    +0.101 C 
ATOM     26  C   UNL     1      -8.841  -4.766  -3.329  0.00  0.00    +0.218 C 
ATOM     27  O   UNL     1      -9.532  -5.648  -3.793  0.00  0.00    -0.275 OA
ATOM     28  N   UNL     1      -8.079  -5.018  -2.248  0.00  0.00    -0.285 N 
ATOM     29  H   UNL     1      -8.078  -5.905  -1.856  0.00  0.00    +0.155 HD
ENDBRANCH  16  18
ENDBRANCH   3  16
TORSDOF 4
