REMARK  Name = ZINC16816400
REMARK  12 active torsions:
REMARK  status: ('A' for Active; 'I' for Inactive)
REMARK    1  A    between atoms: C_1  and  S_2
REMARK    2  A    between atoms: S_2  and  N_5
REMARK    3  A    between atoms: N_5  and  C_6
REMARK    4  A    between atoms: C_6  and  C_7
REMARK    5  A    between atoms: C_7  and  C_8
REMARK    6  A    between atoms: C_11  and  C_13
REMARK    7  A    between atoms: C_13  and  C_15
REMARK    8  A    between atoms: C_15  and  O_16
REMARK    9  A    between atoms: O_16  and  C_17
REMARK   10  A    between atoms: C_17  and  C_19
REMARK   11  A    between atoms: C_22  and  O_26
REMARK   12  A    between atoms: C_24  and  O_25
REMARK                            x       y       z     vdW  Elec       q    Type
REMARK                         _______ _______ _______ _____ _____    ______ ____
ROOT
ATOM      1  C   UNL     1      -4.870   1.276   0.032  0.00  0.00    +0.207 C 
ATOM      2  O   UNL     1      -4.698   0.073   0.025  0.00  0.00    -0.288 OA
ENDROOT
BRANCH   1   6
ATOM      3  C   UNL     1      -8.424   3.245   0.060  0.00  0.00    -0.008 A 
ATOM      4  C   UNL     1      -8.534   1.889   0.053  0.00  0.00    +0.012 A 
ATOM      5  C   UNL     1      -7.397   1.125   0.043  0.00  0.00    +0.019 A 
ATOM      6  C   UNL     1      -6.181   1.801   0.041  0.00  0.00    +0.058 A 
ATOM      7  S   UNL     1      -6.710   3.505   0.061  0.00  0.00    -0.090 S 
BRANCH   3   8
ATOM      8  C   UNL     1      -9.526   4.273   0.072  0.00  0.00    +0.059 C 
BRANCH   8   9
ATOM      9  C   UNL     1      -9.892   4.612   1.518  0.00  0.00    +0.110 C 
BRANCH   9  10
ATOM     10  N   UNL     1     -10.963   5.612   1.529  0.00  0.00    -0.194 NA
ATOM     11  H   UNL     1     -11.174   6.106   0.722  0.00  0.00    +0.148 HD
BRANCH  10  13
ATOM     12  C   UNL     1     -10.601   6.588   4.077  0.00  0.00    +0.214 C 
ATOM     13  S   UNL     1     -11.815   5.897   2.920  0.00  0.00    +0.027 S 
ATOM     14  O   UNL     1     -12.770   6.888   2.564  0.00  0.00    -0.158 OA
ATOM     15  O   UNL     1     -12.234   4.612   3.359  0.00  0.00    -0.158 OA
ENDBRANCH  10  13
ENDBRANCH   9  10
ENDBRANCH   8   9
ENDBRANCH   3   8
ENDBRANCH   1   6
BRANCH   1  16
ATOM     16  C   UNL     1      -3.686   2.207   0.032  0.00  0.00    +0.312 C 
BRANCH  16  17
ATOM     17  O   UNL     1      -2.459   1.429   0.021  0.00  0.00    -0.453 OA
BRANCH  17  18
ATOM     18  C   UNL     1      -1.299   2.116   0.020  0.00  0.00    +0.343 C 
ATOM     19  O   UNL     1      -1.313   3.332   0.026  0.00  0.00    -0.245 OA
BRANCH  18  20
ATOM     20  C   UNL     1      -0.017   1.395   0.010  0.00  0.00    +0.100 A 
ATOM     21  C   UNL     1       0.002  -0.004   0.002  0.00  0.00    +0.022 A 
ATOM     22  C   UNL     1       1.193  -0.672  -0.013  0.00  0.00    +0.046 A 
ATOM     23  C   UNL     1       2.394   0.030  -0.021  0.00  0.00    +0.120 A 
ATOM     24  C   UNL     1       2.393   1.417  -0.013  0.00  0.00    +0.091 A 
ATOM     25  C   UNL     1       1.193   2.107   0.002  0.00  0.00    +0.134 A 
BRANCH  25  26
ATOM     26  O   UNL     1       1.185   3.464   0.009  0.00  0.00    -0.506 OA
ATOM     27  H   UNL     1       1.192   3.853   0.894  0.00  0.00    +0.292 HD
ENDBRANCH  25  26
BRANCH  23  28
ATOM     28  O   UNL     1       3.571  -0.644  -0.036  0.00  0.00    -0.507 OA
ATOM     29  H   UNL     1       3.904  -0.835  -0.924  0.00  0.00    +0.292 HD
ENDBRANCH  23  28
ENDBRANCH  18  20
ENDBRANCH  17  18
ENDBRANCH  16  17
ENDBRANCH   1  16
TORSDOF 11
