REMARK  Name = ZINC53994865
REMARK  9 active torsions:
REMARK  status: ('A' for Active; 'I' for Inactive)
REMARK    1  A    between atoms: C_1  and  C_2
REMARK    2  A    between atoms: C_4  and  C_21
REMARK    3  A    between atoms: C_9  and  C_20
REMARK    4  A    between atoms: C_11  and  O_12
REMARK    5  A    between atoms: O_12  and  C_13
REMARK    6  A    between atoms: C_13  and  C_15
REMARK    7  A    between atoms: C_13  and  C_16
REMARK    8  A    between atoms: C_16  and  O_18
REMARK    9  A    between atoms: O_18  and  C_19
REMARK                            x       y       z     vdW  Elec       q    Type
REMARK                         _______ _______ _______ _____ _____    ______ ____
ROOT
ATOM      1  C   UNL     1      -0.583   1.462   0.042  0.00  0.00    +0.044 C 
ATOM      2  C   UNL     1      -0.278  -0.014   0.012  0.00  0.00    -0.048 A 
ATOM      3  C   UNL     1      -0.271  -0.688  -1.207  0.00  0.00    +0.007 A 
ATOM      4  C   UNL     1       0.001  -2.021  -1.267  0.00  0.00    -0.038 A 
ATOM      5  C   UNL     1       0.277  -2.725  -0.086  0.00  0.00    +0.043 A 
ATOM      6  C   UNL     1       0.271  -2.044   1.155  0.00  0.00    +0.051 A 
ATOM      7  C   UNL     1      -0.009  -0.666   1.176  0.00  0.00    +0.029 A 
ATOM      8  N   UNL     1       0.534  -2.710   2.284  0.00  0.00    -0.358 N 
ATOM      9  C   UNL     1       0.801  -3.995   2.279  0.00  0.00    +0.017 A 
ATOM     10  C   UNL     1       0.826  -4.733   1.102  0.00  0.00    +0.067 A 
ATOM     11  C   UNL     1       0.564  -4.109  -0.105  0.00  0.00    +0.133 A 
ATOM     12  C   UNL     1       1.090  -4.689   3.585  0.00  0.00    +0.063 C 
ATOM     13  C   UNL     1       0.003  -2.736  -2.594  0.00  0.00    +0.044 C 
ATOM     14  H   UNL     1       0.527  -2.232   3.128  0.00  0.00    +0.166 HD
ENDROOT
BRANCH  11  15
ATOM     15  O   UNL     1       0.580  -4.804  -1.269  0.00  0.00    -0.477 OA
BRANCH  15  16
ATOM     16  C   UNL     1       0.763  -6.218  -1.178  0.00  0.00    +0.278 C 
ATOM     17  C   UNL     1       2.258  -6.536  -1.108  0.00  0.00    +0.064 C 
BRANCH  16  18
ATOM     18  C   UNL     1       0.165  -6.881  -2.392  0.00  0.00    +0.348 C 
ATOM     19  O   UNL     1      -0.283  -6.207  -3.289  0.00  0.00    -0.247 OA
BRANCH  18  20
ATOM     20  O   UNL     1       0.129  -8.220  -2.477  0.00  0.00    -0.465 OA
ATOM     21  C   UNL     1      -0.452  -8.780  -3.656  0.00  0.00    +0.280 C 
ENDBRANCH  18  20
ENDBRANCH  16  18
ENDBRANCH  15  16
ENDBRANCH  11  15
TORSDOF 4
