REMARK  Name = ZINC39663246
REMARK  8 active torsions:
REMARK  status: ('A' for Active; 'I' for Inactive)
REMARK    1  A    between atoms: C_1  and  C_2
REMARK    2  A    between atoms: C_2  and  C_3
REMARK    3  A    between atoms: C_3  and  C_4
REMARK    4  A    between atoms: C_4  and  C_5
REMARK    5  A    between atoms: C_5  and  C_7
REMARK    6  A    between atoms: C_5  and  C_8
REMARK    7  A    between atoms: C_12  and  C_21
REMARK    8  A    between atoms: N_23  and  C_24
REMARK                            x       y       z     vdW  Elec       q    Type
REMARK                         _______ _______ _______ _____ _____    ______ ____
ROOT
ATOM      1  C   UNL     1       1.557  -4.146  -2.457  0.00  0.00    +0.218 C 
ATOM      2  O   UNL     1       1.164  -4.776  -1.499  0.00  0.00    -0.275 OA
ATOM      3  N   UNL     1       2.187  -4.778  -3.467  0.00  0.00    -0.300 N 
ATOM      4  C   UNL     1       2.739  -4.183  -4.707  0.00  0.00    +0.121 C 
ATOM      5  C   UNL     1       4.066  -4.939  -4.946  0.00  0.00    +0.100 C 
ATOM      6  C   UNL     1       3.892  -6.278  -4.211  0.00  0.00    -0.004 C 
ATOM      7  C   UNL     1       2.490  -6.224  -3.586  0.00  0.00    +0.115 C 
ATOM      8  C   UNL     1       4.946  -6.422  -3.117  0.00  0.00    -0.010 C 
ATOM      9  C   UNL     1       4.788  -7.786  -2.438  0.00  0.00    -0.082 C 
ATOM     10  N   UNL     1       4.942  -8.851  -3.437  0.00  0.00    +0.379 N 
ATOM     11  C   UNL     1       3.869  -8.761  -4.434  0.00  0.00    -0.082 C 
ATOM     12  C   UNL     1       3.987  -7.439  -5.197  0.00  0.00    -0.010 C 
ATOM     13  H   UNL     1       5.835  -8.754  -3.896  0.00  0.00    -0.086 HD
ATOM     14  H   UNL     1       4.898  -9.749  -2.978  0.00  0.00    -0.086 HD
ENDROOT
BRANCH   5  15
ATOM     15  C   UNL     1       4.281  -5.170  -6.419  0.00  0.00    +0.218 C 
ATOM     16  O   UNL     1       3.328  -5.327  -7.153  0.00  0.00    -0.275 OA
ATOM     17  N   UNL     1       5.531  -5.202  -6.921  0.00  0.00    -0.314 N 
ATOM     18  H   UNL     1       6.293  -5.077  -6.334  0.00  0.00    +0.149 HD
BRANCH  17  19
ATOM     19  C   UNL     1       5.740  -5.427  -8.354  0.00  0.00    +0.059 C 
ATOM     20  C   UNL     1       5.751  -6.930  -8.641  0.00  0.00    -0.056 C 
ATOM     21  N   UNL     1       7.037  -7.320  -9.223  0.00  0.00    +0.381 N 
ATOM     22  C   UNL     1       7.258  -6.629 -10.495  0.00  0.00    -0.078 C 
ATOM     23  C   UNL     1       7.297  -5.115 -10.270  0.00  0.00    -0.014 C 
ATOM     24  C   UNL     1       7.088  -4.829  -8.777  0.00  0.00    +0.004 C 
ATOM     25  C   UNL     1       8.199  -5.538  -7.991  0.00  0.00    -0.014 C 
ATOM     26  C   UNL     1       8.131  -7.043  -8.288  0.00  0.00    -0.078 C 
ATOM     27  H   UNL     1       7.017  -8.312  -9.406  0.00  0.00    -0.082 HD
ENDBRANCH  17  19
ENDBRANCH   5  15
BRANCH   1  28
ATOM     28  C   UNL     1       1.340  -2.656  -2.520  0.00  0.00    +0.072 C 
ATOM     29  C   UNL     1       0.500  -2.313  -3.752  0.00  0.00    +0.017 C 
BRANCH  28  30
ATOM     30  C   UNL     1       0.608  -2.194  -1.258  0.00  0.00    +0.012 C 
BRANCH  30  31
ATOM     31  C   UNL     1       0.498  -0.668  -1.262  0.00  0.00    +0.000 C 
BRANCH  31  33
ATOM     32  C   UNL     1      -0.344   1.320  -0.005  0.00  0.00    +0.004 C 
ATOM     33  C   UNL     1      -0.234  -0.206  -0.001  0.00  0.00    -0.003 C 
ENDBRANCH  31  33
ENDBRANCH  30  31
ENDBRANCH  28  30
ENDBRANCH   1  28
TORSDOF 6
