REMARK  Name = ZINC13550592
REMARK  7 active torsions:
REMARK  status: ('A' for Active; 'I' for Inactive)
REMARK    1  A    between atoms: C_1  and  N_2
REMARK    2  A    between atoms: C_3  and  C_19
REMARK    3  A    between atoms: C_6  and  S_7
REMARK    4  A    between atoms: S_7  and  C_8
REMARK    5  A    between atoms: C_8  and  C_9
REMARK    6  A    between atoms: N_11  and  C_12
REMARK    7  A    between atoms: C_17  and  O_18
REMARK                            x       y       z     vdW  Elec       q    Type
REMARK                         _______ _______ _______ _____ _____    ______ ____
ROOT
ATOM      1  C   UNL     1      -0.501  -1.721   9.498  0.00  0.00    +0.153 C 
ATOM      2  N   UNL     1      -0.474  -0.369   8.934  0.00  0.00    -0.303 N 
ATOM      3  C   UNL     1      -0.541   0.822   9.623  0.00  0.00    +0.200 A 
ATOM      4  N   UNL     1      -0.484   1.786   8.731  0.00  0.00    -0.125 NA
ATOM      5  N   UNL     1      -0.382   1.287   7.552  0.00  0.00    -0.122 NA
ATOM      6  C   UNL     1      -0.376  -0.027   7.615  0.00  0.00    +0.192 A 
ENDROOT
BRANCH   3   7
ATOM      7  C   UNL     1      -0.656   0.984  11.081  0.00  0.00    +0.173 A 
ATOM      8  C   UNL     1      -0.428   2.139  11.758  0.00  0.00    +0.061 A 
ATOM      9  C   UNL     1      -0.663   1.833  13.171  0.00  0.00    +0.021 A 
ATOM     10  C   UNL     1      -0.601   2.576  14.351  0.00  0.00    +0.011 A 
ATOM     11  C   UNL     1      -0.882   1.975  15.546  0.00  0.00    +0.001 A 
ATOM     12  C   UNL     1      -1.228   0.632  15.593  0.00  0.00    +0.004 A 
ATOM     13  C   UNL     1      -1.295  -0.119  14.438  0.00  0.00    +0.047 A 
ATOM     14  C   UNL     1      -1.014   0.471  13.212  0.00  0.00    +0.136 A 
ATOM     15  O   UNL     1      -0.997   0.007  11.946  0.00  0.00    -0.452 OA
ENDBRANCH   3   7
BRANCH   6  16
ATOM     16  S   UNL     1      -0.257  -1.138   6.254  0.00  0.00    -0.077 S 
BRANCH  16  17
ATOM     17  C   UNL     1      -0.166   0.046   4.888  0.00  0.00    +0.173 C 
BRANCH  17  18
ATOM     18  C   UNL     1      -0.055  -0.699   3.583  0.00  0.00    +0.228 C 
ATOM     19  O   UNL     1      -0.040  -1.912   3.577  0.00  0.00    -0.275 OA
ATOM     20  N   UNL     1       0.026  -0.018   2.423  0.00  0.00    -0.282 N 
ATOM     21  H   UNL     1       0.095   0.949   2.432  0.00  0.00    +0.155 HD
BRANCH  20  22
ATOM     22  C   UNL     1       0.012  -0.708   1.203  0.00  0.00    +0.075 A 
ATOM     23  C   UNL     1      -0.580  -1.960   1.119  0.00  0.00    +0.027 A 
ATOM     24  C   UNL     1      -0.592  -2.638  -0.085  0.00  0.00    +0.002 A 
ATOM     25  C   UNL     1      -0.017  -2.072  -1.208  0.00  0.00    +0.004 A 
ATOM     26  C   UNL     1       0.571  -0.823  -1.133  0.00  0.00    +0.047 A 
ATOM     27  C   UNL     1       0.592  -0.139   0.072  0.00  0.00    +0.138 A 
BRANCH  27  28
ATOM     28  O   UNL     1       1.173   1.089   0.148  0.00  0.00    -0.505 OA
ATOM     29  H   UNL     1       2.113   1.065   0.376  0.00  0.00    +0.292 HD
ENDBRANCH  27  28
ENDBRANCH  20  22
ENDBRANCH  17  18
ENDBRANCH  16  17
ENDBRANCH   6  16
TORSDOF 6
