REMARK  Name = ZINC06405614
REMARK  4 active torsions:
REMARK  status: ('A' for Active; 'I' for Inactive)
REMARK    1  A    between atoms: C_1  and  N_2
REMARK    2  A    between atoms: N_2  and  C_3
REMARK    3  A    between atoms: C_3  and  C_4
REMARK    4  A    between atoms: C_12  and  C_14
REMARK                            x       y       z     vdW  Elec       q    Type
REMARK                         _______ _______ _______ _____ _____    ______ ____
ROOT
ATOM      1  C   UNL     1       5.253   1.788  -0.313  0.00  0.00    +0.132 C 
ATOM      2  N   UNL     1       5.043   0.344  -0.181  0.00  0.00    -0.296 N 
ATOM      3  C   UNL     1       3.802  -0.140   0.024  0.00  0.00    +0.247 C 
ATOM      4  O   UNL     1       3.643  -1.322   0.263  0.00  0.00    -0.270 OA
ENDROOT
BRANCH   3   5
ATOM      5  C   UNL     1       2.638   0.763  -0.042  0.00  0.00    +0.039 A 
ATOM      6  C   UNL     1       2.792   2.122   0.247  0.00  0.00    +0.014 A 
ATOM      7  C   UNL     1       1.703   2.962   0.183  0.00  0.00    +0.017 A 
ATOM      8  C   UNL     1       0.456   2.461  -0.168  0.00  0.00    +0.030 A 
ATOM      9  C   UNL     1       0.287   1.103  -0.457  0.00  0.00    +0.048 A 
ATOM     10  C   UNL     1       1.384   0.258  -0.393  0.00  0.00    +0.037 A 
ATOM     11  N   UNL     1      -0.958   0.581  -0.800  0.00  0.00    -0.284 N 
ATOM     12  C   UNL     1      -1.989   1.264  -1.289  0.00  0.00    +0.227 C 
ATOM     13  O   UNL     1      -3.007   0.656  -1.549  0.00  0.00    -0.275 OA
ATOM     14  C   UNL     1      -1.963   2.747  -1.540  0.00  0.00    +0.170 C 
ATOM     15  S   UNL     1      -0.939   3.538  -0.263  0.00  0.00    -0.114 S 
ATOM     16  H   UNL     1      -1.085  -0.372  -0.669  0.00  0.00    +0.155 HD
ENDBRANCH   3   5
BRANCH   2  17
ATOM     17  C   UNL     1       6.182  -0.573  -0.273  0.00  0.00    +0.144 C 
BRANCH  17  18
ATOM     18  C   UNL     1       6.478  -0.863  -1.722  0.00  0.00    -0.010 A 
ATOM     19  C   UNL     1       7.451  -0.141  -2.386  0.00  0.00    +0.007 A 
ATOM     20  C   UNL     1       7.723  -0.406  -3.715  0.00  0.00    +0.002 A 
ATOM     21  C   UNL     1       7.022  -1.394  -4.381  0.00  0.00    +0.021 A 
ATOM     22  C   UNL     1       6.048  -2.118  -3.718  0.00  0.00    +0.060 A 
ATOM     23  C   UNL     1       5.780  -1.856  -2.385  0.00  0.00    +0.064 A 
ATOM     24 CL   UNL     1       4.563  -2.769  -1.548  0.00  0.00    -0.082 Cl
ATOM     25 CL   UNL     1       5.168  -3.359  -4.554  0.00  0.00    -0.082 Cl
ENDBRANCH  17  18
ENDBRANCH   2  17
TORSDOF 3
