REMARK  Name = ZINC66514709
REMARK  7 active torsions:
REMARK  status: ('A' for Active; 'I' for Inactive)
REMARK    1  A    between atoms: C_1  and  C_2
REMARK    2  A    between atoms: C_2  and  C_3
REMARK    3  A    between atoms: C_3  and  N_4
REMARK    4  A    between atoms: C_10  and  N_13
REMARK    5  A    between atoms: C_14  and  C_16
REMARK    6  A    between atoms: C_16  and  C_17
REMARK    7  A    between atoms: C_17  and  N_18
REMARK                            x       y       z     vdW  Elec       q    Type
REMARK                         _______ _______ _______ _____ _____    ______ ____
ROOT
ATOM      1  N   UNL     1       2.662  -4.836   4.070  0.00  0.00    -0.285 N 
ATOM      2  C   UNL     1       3.069  -5.822   4.894  0.00  0.00    +0.219 C 
ATOM      3  O   UNL     1       2.341  -6.767   5.113  0.00  0.00    -0.275 OA
ATOM      4  H   UNL     1       3.273  -4.121   3.831  0.00  0.00    +0.155 HD
ENDROOT
BRANCH   1  11
ATOM      5  N   UNL     1       1.191  -3.324   0.150  0.00  0.00    +0.385 N 
ATOM      6  C   UNL     1      -0.224  -3.413   0.576  0.00  0.00    -0.042 C 
ATOM      7  C   UNL     1      -0.214  -4.196   1.869  0.00  0.00    -0.061 A 
ATOM      8  C   UNL     1      -1.218  -4.854   2.554  0.00  0.00    +0.002 A 
ATOM      9  C   UNL     1      -0.938  -5.507   3.740  0.00  0.00    +0.002 A 
ATOM     10  C   UNL     1       0.348  -5.503   4.246  0.00  0.00    +0.023 A 
ATOM     11  C   UNL     1       1.359  -4.842   3.561  0.00  0.00    +0.035 A 
ATOM     12  C   UNL     1       1.075  -4.188   2.370  0.00  0.00    -0.041 A 
ATOM     13  C   UNL     1       1.948  -3.400   1.421  0.00  0.00    -0.040 C 
ATOM     14  H   UNL     1       1.431  -4.097  -0.452  0.00  0.00    -0.081 HD
BRANCH   5  15
ATOM     15  C   UNL     1       1.447  -2.045  -0.526  0.00  0.00    -0.078 C 
BRANCH  15  17
ATOM     16  C   UNL     1       1.020  -0.712  -2.595  0.00  0.00    +0.002 C 
ATOM     17  C   UNL     1       0.754  -2.043  -1.890  0.00  0.00    -0.022 C 
ENDBRANCH  15  17
ENDBRANCH   5  15
ENDBRANCH   1  11
BRANCH   2  18
ATOM     18  C   UNL     1       4.428  -5.751   5.541  0.00  0.00    +0.115 C 
BRANCH  18  19
ATOM     19  C   UNL     1       4.639  -6.986   6.420  0.00  0.00    +0.127 C 
BRANCH  19  20
ATOM     20  N   UNL     1       5.960  -6.917   7.050  0.00  0.00    -0.224 N 
ATOM     21  C   UNL     1       7.087  -7.419   6.504  0.00  0.00    +0.247 C 
ATOM     22  O   UNL     1       7.196  -7.992   5.441  0.00  0.00    -0.273 OA
ATOM     23  C   UNL     1       8.186  -7.117   7.498  0.00  0.00    +0.113 C 
ATOM     24  C   UNL     1       9.241  -6.216   6.866  0.00  0.00    +0.035 C 
ATOM     25  C   UNL     1      10.327  -5.898   7.897  0.00  0.00    +0.003 C 
ATOM     26  C   UNL     1      10.967  -7.201   8.380  0.00  0.00    +0.000 C 
ATOM     27  C   UNL     1       9.901  -8.084   9.032  0.00  0.00    +0.003 C 
ATOM     28  C   UNL     1       8.814  -8.411   8.005  0.00  0.00    +0.035 C 
ATOM     29  N   UNL     1       7.497  -6.417   8.589  0.00  0.00    -0.285 N 
ATOM     30  C   UNL     1       6.199  -6.342   8.235  0.00  0.00    +0.309 C 
ATOM     31  O   UNL     1       5.342  -5.816   8.916  0.00  0.00    -0.252 OA
ATOM     32  H   UNL     1       7.897  -6.073   9.403  0.00  0.00    +0.151 HD
ENDBRANCH  19  20
ENDBRANCH  18  19
ENDBRANCH   2  18
TORSDOF 6
