REMARK  Name = ZINC57944069
REMARK  10 active torsions:
REMARK  status: ('A' for Active; 'I' for Inactive)
REMARK    1  A    between atoms: C_1  and  C_2
REMARK    2  A    between atoms: C_2  and  C_3
REMARK    3  A    between atoms: C_3  and  C_4
REMARK    4  A    between atoms: C_4  and  N_5
REMARK    5  A    between atoms: N_14  and  C_37
REMARK    6  A    between atoms: C_15  and  C_17
REMARK    7  A    between atoms: C_17  and  O_18
REMARK    8  A    between atoms: O_18  and  C_19
REMARK    9  A    between atoms: C_19  and  C_21
REMARK   10  A    between atoms: C_32  and  C_36
REMARK                            x       y       z     vdW  Elec       q    Type
REMARK                         _______ _______ _______ _____ _____    ______ ____
ROOT
ATOM      1  C   UNL     1      -4.024  -3.044   4.783  0.00  0.00    +0.306 C 
ENDROOT
BRANCH   1  12
ATOM      2  N   UNL     1      -2.787  -2.571   0.015  0.00  0.00    -0.277 N 
ATOM      3  C   UNL     1      -3.426  -2.811   1.220  0.00  0.00    +0.169 A 
ATOM      4  C   UNL     1      -4.730  -3.292   1.204  0.00  0.00    +0.151 A 
ATOM      5  C   UNL     1      -5.363  -3.521  -0.037  0.00  0.00    +0.280 A 
ATOM      6  O   UNL     1      -6.505  -3.941  -0.078  0.00  0.00    -0.265 OA
ATOM      7  N   UNL     1      -4.688  -3.267  -1.178  0.00  0.00    -0.273 N 
ATOM      8  H   UNL     1      -5.119  -3.423  -2.033  0.00  0.00    +0.173 HD
ATOM      9  C   UNL     1      -3.429  -2.797  -1.147  0.00  0.00    +0.331 A 
ATOM     10  O   UNL     1      -2.853  -2.575  -2.195  0.00  0.00    -0.246 OA
ATOM     11  N   UNL     1      -5.105  -3.435   2.524  0.00  0.00    -0.322 N 
ATOM     12  C   UNL     1      -4.055  -3.051   3.276  0.00  0.00    +0.150 A 
ATOM     13  N   UNL     1      -3.068  -2.684   2.500  0.00  0.00    -0.211 NA
ATOM     14  C   UNL     1      -6.400  -3.914   3.015  0.00  0.00    +0.151 C 
BRANCH   2  15
ATOM     15  C   UNL     1      -1.413  -2.063   0.004  0.00  0.00    +0.128 C 
BRANCH  15  16
ATOM     16  C   UNL     1      -1.433  -0.534   0.013  0.00  0.00    +0.021 C 
BRANCH  16  18
ATOM     17  C   UNL     1      -0.019   1.526   0.010  0.00  0.00    +0.004 C 
ATOM     18  C   UNL     1       0.002  -0.004   0.002  0.00  0.00    -0.002 C 
ENDBRANCH  16  18
ENDBRANCH  15  16
ENDBRANCH   2  15
ENDBRANCH   1  12
BRANCH   1  19
ATOM     19  O   UNL     1      -3.548  -4.306   5.255  0.00  0.00    -0.453 OA
BRANCH  19  20
ATOM     20  C   UNL     1      -3.459  -4.466   6.590  0.00  0.00    +0.341 C 
ATOM     21  O   UNL     1      -3.776  -3.559   7.332  0.00  0.00    -0.245 OA
BRANCH  20  22
ATOM     22  C   UNL     1      -2.974  -5.745   7.150  0.00  0.00    +0.073 A 
ATOM     23  C   UNL     1      -1.597  -5.951   7.405  0.00  0.00    +0.015 A 
ATOM     24  C   UNL     1      -0.644  -4.960   7.138  0.00  0.00    +0.011 A 
ATOM     25  C   UNL     1       0.671  -5.202   7.398  0.00  0.00    +0.001 A 
ATOM     26  C   UNL     1       1.081  -6.425   7.926  0.00  0.00    +0.002 A 
ATOM     27  C   UNL     1       0.182  -7.410   8.197  0.00  0.00    +0.028 A 
ATOM     28  C   UNL     1      -1.186  -7.195   7.943  0.00  0.00    +0.072 A 
ATOM     29  N   UNL     1      -2.092  -8.137   8.200  0.00  0.00    -0.251 NA
ATOM     30  C   UNL     1      -3.380  -7.968   7.973  0.00  0.00    +0.046 A 
ATOM     31  C   UNL     1      -3.863  -6.777   7.447  0.00  0.00    -0.011 A 
ATOM     32  C   UNL     1      -5.323  -6.545   7.163  0.00  0.00    +0.041 C 
ATOM     33  C   UNL     1      -6.184  -7.556   7.919  0.00  0.00    -0.009 C 
ATOM     34  C   UNL     1      -5.643  -8.961   7.630  0.00  0.00    +0.010 C 
ATOM     35  C   UNL     1      -4.294  -9.118   8.321  0.00  0.00    +0.056 C 
ATOM     36  C   UNL     1      -7.635  -7.454   7.444  0.00  0.00    +0.008 C 
ENDBRANCH  20  22
ENDBRANCH  19  20
ENDBRANCH   1  19
TORSDOF 7
