REMARK  Name = ZINC03533172
REMARK  9 active torsions:
REMARK  status: ('A' for Active; 'I' for Inactive)
REMARK    1  A    between atoms: C_1  and  O_2
REMARK    2  A    between atoms: O_2  and  C_3
REMARK    3  A    between atoms: C_6  and  N_9
REMARK    4  A    between atoms: C_10  and  S_14
REMARK    5  A    between atoms: S_14  and  C_15
REMARK    6  A    between atoms: C_15  and  C_16
REMARK    7  A    between atoms: C_16  and  C_18
REMARK    8  A    between atoms: C_21  and  O_25
REMARK    9  A    between atoms: C_23  and  O_24
REMARK                            x       y       z     vdW  Elec       q    Type
REMARK                         _______ _______ _______ _____ _____    ______ ____
ROOT
ATOM      1  S   UNL     1       3.818   0.458  -0.032  0.00  0.00    -0.076 S 
ENDROOT
BRANCH   1   3
ATOM      2  N   UNL     1       1.324   1.711  -0.001  0.00  0.00    -0.187 N 
ATOM      3  C   UNL     1       2.060   0.571  -0.015  0.00  0.00    +0.214 A 
ATOM      4  N   UNL     1       1.212  -0.435  -0.012  0.00  0.00    -0.101 NA
ATOM      5  N   UNL     1       0.002  -0.004   0.002  0.00  0.00    -0.022 NA
ATOM      6  N   UNL     1      -0.015   1.285   0.009  0.00  0.00    -0.038 NA
BRANCH   2  10
ATOM      7  C   UNL     1       2.736   5.636   0.007  0.00  0.00    +0.120 A 
ATOM      8  C   UNL     1       1.568   5.321  -0.673  0.00  0.00    +0.048 A 
ATOM      9  C   UNL     1       1.101   4.021  -0.676  0.00  0.00    +0.031 A 
ATOM     10  C   UNL     1       1.799   3.031   0.001  0.00  0.00    +0.070 A 
ATOM     11  C   UNL     1       2.965   3.349   0.686  0.00  0.00    +0.031 A 
ATOM     12  C   UNL     1       3.434   4.647   0.684  0.00  0.00    +0.048 A 
BRANCH   7  14
ATOM     13  C   UNL     1       4.404   7.169   0.729  0.00  0.00    +0.277 C 
ATOM     14  O   UNL     1       3.196   6.916   0.009  0.00  0.00    -0.495 OA
ENDBRANCH   7  14
ENDBRANCH   2  10
ENDBRANCH   1   3
BRANCH   1  15
ATOM     15  C   UNL     1       4.018  -1.341  -0.043  0.00  0.00    +0.157 C 
BRANCH  15  16
ATOM     16  C   UNL     1       5.485  -1.683  -0.059  0.00  0.00    +0.177 C 
ATOM     17  O   UNL     1       6.315  -0.797  -0.062  0.00  0.00    -0.291 OA
BRANCH  16  18
ATOM     18  C   UNL     1       5.910  -3.085  -0.070  0.00  0.00    +0.060 A 
ATOM     19  C   UNL     1       4.955  -4.111  -0.065  0.00  0.00    +0.018 A 
ATOM     20  C   UNL     1       5.354  -5.415  -0.077  0.00  0.00    +0.046 A 
ATOM     21  C   UNL     1       6.708  -5.739  -0.092  0.00  0.00    +0.120 A 
ATOM     22  C   UNL     1       7.668  -4.737  -0.096  0.00  0.00    +0.091 A 
ATOM     23  C   UNL     1       7.279  -3.408  -0.090  0.00  0.00    +0.131 A 
BRANCH  23  24
ATOM     24  O   UNL     1       8.212  -2.424  -0.100  0.00  0.00    -0.506 OA
ATOM     25  H   UNL     1       8.496  -2.142   0.781  0.00  0.00    +0.292 HD
ENDBRANCH  23  24
BRANCH  21  26
ATOM     26  O   UNL     1       7.091  -7.040  -0.104  0.00  0.00    -0.507 OA
ATOM     27  H   UNL     1       7.194  -7.412  -0.990  0.00  0.00    +0.292 HD
ENDBRANCH  21  26
ENDBRANCH  16  18
ENDBRANCH  15  16
ENDBRANCH   1  15
TORSDOF 8
