REMARK  Name = ZINC35358573
REMARK  9 active torsions:
REMARK  status: ('A' for Active; 'I' for Inactive)
REMARK    1  A    between atoms: C_1  and  C_2
REMARK    2  A    between atoms: C_2  and  C_38
REMARK    3  A    between atoms: C_7  and  C_11
REMARK    4  A    between atoms: C_11  and  S_12
REMARK    5  A    between atoms: S_12  and  N_15
REMARK    6  A    between atoms: N_15  and  C_16
REMARK    7  A    between atoms: N_15  and  C_35
REMARK    8  A    between atoms: C_16  and  C_17
REMARK    9  A    between atoms: C_27  and  C_29
REMARK                            x       y       z     vdW  Elec       q    Type
REMARK                         _______ _______ _______ _____ _____    ______ ____
ROOT
ATOM      1  N   UNL     1       4.544  -1.175   3.146  0.00  0.00    -0.169 NA
ENDROOT
BRANCH   1   2
ATOM      2  S   UNL     1       2.942  -1.596   3.175  0.00  0.00    +0.033 S 
ATOM      3  O   UNL     1       2.381  -0.815   4.221  0.00  0.00    -0.158 OA
ATOM      4  O   UNL     1       2.942  -3.015   3.251  0.00  0.00    -0.158 OA
BRANCH   2   5
ATOM      5  C   UNL     1       2.289  -1.056   1.572  0.00  0.00    +0.200 C 
BRANCH   5  11
ATOM      6  C   UNL     1       0.068   0.518  -0.063  0.00  0.00    +0.012 C 
ATOM      7  C   UNL     1       0.073  -0.996   0.155  0.00  0.00    -0.018 C 
ATOM      8  C   UNL     1      -1.339  -1.536   0.578  0.00  0.00    +0.003 C 
ATOM      9  C   UNL     1      -1.548  -0.774   1.922  0.00  0.00    +0.005 C 
ATOM     10  C   UNL     1      -0.131  -0.674   2.534  0.00  0.00    +0.017 C 
ATOM     11  C   UNL     1       0.800  -1.398   1.487  0.00  0.00    +0.055 C 
ATOM     12  C   UNL     1       0.434  -2.886   1.578  0.00  0.00    +0.142 C 
ATOM     13  O   UNL     1       1.113  -3.781   2.021  0.00  0.00    -0.297 OA
ATOM     14  C   UNL     1      -0.966  -2.993   0.991  0.00  0.00    +0.079 C 
ATOM     15  C   UNL     1       0.637  -1.742  -1.056  0.00  0.00    +0.012 C 
ENDBRANCH   5  11
ENDBRANCH   2   5
ENDBRANCH   1   2
BRANCH   1  16
ATOM     16  C   UNL     1       5.540  -2.119   2.635  0.00  0.00    +0.080 C 
ATOM     17  C   UNL     1       7.015  -1.758   2.818  0.00  0.00    +0.022 C 
ATOM     18  C   UNL     1       6.376  -1.681   1.430  0.00  0.00    +0.022 C 
ENDBRANCH   1  16
BRANCH   1  19
ATOM     19  C   UNL     1       4.964   0.142   3.631  0.00  0.00    +0.205 C 
BRANCH  19  20
ATOM     20  C   UNL     1       5.389   0.034   5.073  0.00  0.00    +0.232 C 
ATOM     21  O   UNL     1       5.346  -1.038   5.639  0.00  0.00    -0.274 OA
ATOM     22  N   UNL     1       5.818   1.128   5.733  0.00  0.00    -0.289 N 
ATOM     23  C   UNL     1       5.869   2.433   5.058  0.00  0.00    +0.114 C 
ATOM     24  C   UNL     1       4.867   3.372   5.747  0.00  0.00    +0.062 C 
ATOM     25  C   UNL     1       4.985   3.197   7.226  0.00  0.00    -0.003 A 
ATOM     26  C   UNL     1       5.579   2.176   7.903  0.00  0.00    -0.012 A 
ATOM     27  C   UNL     1       5.546   2.246   9.294  0.00  0.00    +0.013 A 
ATOM     28  C   UNL     1       4.950   3.295   9.906  0.00  0.00    +0.046 A 
ATOM     29  S   UNL     1       4.389   4.262   8.513  0.00  0.00    -0.101 S 
ATOM     30  C   UNL     1       6.236   1.034   7.138  0.00  0.00    +0.137 C 
BRANCH  30  31
ATOM     31  C   UNL     1       7.734   1.156   7.235  0.00  0.00    -0.023 A 
ATOM     32  C   UNL     1       8.358   2.329   6.854  0.00  0.00    +0.006 A 
ATOM     33  C   UNL     1       9.733   2.442   6.942  0.00  0.00    +0.000 A 
ATOM     34  C   UNL     1      10.484   1.381   7.412  0.00  0.00    +0.000 A 
ATOM     35  C   UNL     1       9.861   0.208   7.795  0.00  0.00    +0.000 A 
ATOM     36  C   UNL     1       8.485   0.097   7.710  0.00  0.00    +0.006 A 
ENDBRANCH  30  31
ENDBRANCH  19  20
ENDBRANCH   1  19
TORSDOF 7
