REMARK  Name = ZINC02229363
REMARK  7 active torsions:
REMARK  status: ('A' for Active; 'I' for Inactive)
REMARK    1  A    between atoms: C_1  and  C_2
REMARK    2  A    between atoms: C_2  and  C_3
REMARK    3  A    between atoms: C_3  and  C_4
REMARK    4  A    between atoms: C_12  and  N_24
REMARK    5  A    between atoms: C_14  and  S_16
REMARK    6  A    between atoms: S_16  and  C_17
REMARK    7  A    between atoms: C_17  and  C_18
REMARK                            x       y       z     vdW  Elec       q    Type
REMARK                         _______ _______ _______ _____ _____    ______ ____
ROOT
ATOM      1  C   UNL     1      11.669  -4.202   0.002  0.00  0.00    +0.123 C 
ATOM      2  C   UNL     1      10.179  -4.021   0.305  0.00  0.00    +0.068 C 
ATOM      3  C   UNL     1       9.471  -3.661  -0.999  0.00  0.00    -0.020 A 
ATOM      4  C   UNL     1      10.084  -3.900  -2.178  0.00  0.00    +0.021 A 
ATOM      5  S   UNL     1       8.944  -3.344  -3.412  0.00  0.00    -0.071 S 
ATOM      6  C   UNL     1       7.641  -2.790  -2.342  0.00  0.00    +0.115 A 
ATOM      7  C   UNL     1       8.140  -3.058  -1.051  0.00  0.00    +0.051 A 
ATOM      8  C   UNL     1       7.278  -2.703   0.024  0.00  0.00    +0.129 A 
ATOM      9  N   UNL     1       6.101  -2.163  -0.241  0.00  0.00    -0.207 NA
ATOM     10  C   UNL     1       5.691  -1.938  -1.484  0.00  0.00    +0.191 A 
ATOM     11  N   UNL     1       6.451  -2.253  -2.526  0.00  0.00    -0.215 NA
ATOM     12  C   UNL     1      11.439  -4.509  -2.364  0.00  0.00    +0.203 C 
ATOM     13  O   UNL     1      11.842  -5.084  -1.111  0.00  0.00    -0.371 OA
ENDROOT
BRANCH   8  14
ATOM     14  N   UNL     1       7.668  -2.920   1.333  0.00  0.00    -0.343 N 
ATOM     15  H   UNL     1       7.149  -2.545   2.062  0.00  0.00    +0.144 HD
ATOM     16  H   UNL     1       8.460  -3.447   1.523  0.00  0.00    +0.144 HD
ENDBRANCH   8  14
BRANCH   1  17
ATOM     17  C   UNL     1      12.366  -4.793   1.230  0.00  0.00    +0.031 C 
BRANCH  17  19
ATOM     18  C   UNL     1      14.571  -5.437   2.211  0.00  0.00    +0.004 C 
ATOM     19  C   UNL     1      13.875  -4.846   0.984  0.00  0.00    -0.001 C 
ENDBRANCH  17  19
ENDBRANCH   1  17
BRANCH  10  20
ATOM     20  S   UNL     1       4.108  -1.215  -1.756  0.00  0.00    -0.081 S 
BRANCH  20  21
ATOM     21  C   UNL     1       3.554  -1.020  -0.044  0.00  0.00    +0.112 C 
BRANCH  21  22
ATOM     22  C   UNL     1       2.180  -0.400  -0.029  0.00  0.00    -0.037 A 
ATOM     23  C   UNL     1       1.058  -1.207  -0.056  0.00  0.00    +0.004 A 
ATOM     24  C   UNL     1      -0.203  -0.639  -0.042  0.00  0.00    +0.000 A 
ATOM     25  C   UNL     1      -0.340   0.736  -0.001  0.00  0.00    +0.000 A 
ATOM     26  C   UNL     1       0.782   1.543   0.028  0.00  0.00    +0.000 A 
ATOM     27  C   UNL     1       2.042   0.975   0.013  0.00  0.00    +0.004 A 
ENDBRANCH  21  22
ENDBRANCH  20  21
ENDBRANCH  10  20
TORSDOF 6
