REMARK  Name = ZINC62782990
REMARK  2 active torsions:
REMARK  status: ('A' for Active; 'I' for Inactive)
REMARK    1  A    between atoms: C_4  and  C_7
REMARK    2  A    between atoms: C_7  and  C_13
REMARK                            x       y       z     vdW  Elec       q    Type
REMARK                         _______ _______ _______ _____ _____    ______ ____
ROOT
ATOM      1  C   UNL     1       3.711  -0.707  -0.038  0.00  0.00    +0.059 C 
ATOM      2  C   UNL     1       4.521  -0.333   1.205  0.00  0.00    +0.019 C 
ATOM      3  C   UNL     1       5.857  -1.080   1.187  0.00  0.00    +0.001 C 
ATOM      4  C   UNL     1       5.598  -2.588   1.183  0.00  0.00    +0.000 C 
ATOM      5  C   UNL     1       4.787  -2.962  -0.060  0.00  0.00    +0.001 C 
ATOM      6  C   UNL     1       3.452  -2.215  -0.042  0.00  0.00    +0.019 C 
ENDROOT
BRANCH   1  10
ATOM      7  C   UNL     1      -0.017   1.378   0.010  0.00  0.00    +0.000 A 
ATOM      8  C   UNL     1       1.171   2.086   0.002  0.00  0.00    +0.000 A 
ATOM      9  C   UNL     1       2.377   1.411  -0.013  0.00  0.00    +0.004 A 
ATOM     10  C   UNL     1       2.396   0.029  -0.020  0.00  0.00    -0.034 A 
ATOM     11  C   UNL     1       1.208  -0.679  -0.012  0.00  0.00    +0.004 A 
ATOM     12  C   UNL     1       0.002  -0.004   0.002  0.00  0.00    +0.000 A 
ENDBRANCH   1  10
BRANCH   1  13
ATOM     13  C   UNL     1       4.484  -0.326  -1.274  0.00  0.00    +0.183 A 
ATOM     14  N   UNL     1       4.885   0.910  -1.590  0.00  0.00    -0.181 NA
ATOM     15  C   UNL     1       5.529   0.895  -2.726  0.00  0.00    +0.321 A 
ATOM     16  O   UNL     1       5.559  -0.367  -3.174  0.00  0.00    -0.321 OA
ATOM     17  N   UNL     1       4.873  -1.148  -2.206  0.00  0.00    -0.059 NA
ATOM     18 CL   UNL     1       6.227   2.273  -3.519  0.00  0.00    -0.020 Cl
ENDBRANCH   1  13
TORSDOF 2
