REMARK  Name = ZINC01355478
REMARK  10 active torsions:
REMARK  status: ('A' for Active; 'I' for Inactive)
REMARK    1  A    between atoms: C_1  and  C_2
REMARK    2  A    between atoms: C_2  and  C_39
REMARK    3  A    between atoms: N_5  and  C_31
REMARK    4  A    between atoms: C_8  and  C_13
REMARK    5  A    between atoms: N_15  and  C_16
REMARK    6  A    between atoms: N_15  and  C_24
REMARK    7  A    between atoms: C_16  and  C_17
REMARK    8  A    between atoms: C_17  and  C_18
REMARK    9  A    between atoms: C_24  and  C_25
REMARK   10  A    between atoms: C_31  and  C_32
REMARK                            x       y       z     vdW  Elec       q    Type
REMARK                         _______ _______ _______ _____ _____    ______ ____
ROOT
ATOM      1  C   UNL     1       3.030  -1.628  -1.850  0.00  0.00    +0.065 C 
ATOM      2  C   UNL     1       1.672  -0.929  -1.949  0.00  0.00    +0.181 C 
ATOM      3  C   UNL     1       1.877   0.564  -1.968  0.00  0.00    +0.264 C 
ATOM      4  O   UNL     1       2.901   1.033  -2.418  0.00  0.00    -0.271 OA
ATOM      5  N   UNL     1       0.914   1.379  -1.483  0.00  0.00    -0.256 N 
ATOM      6  C   UNL     1      -0.246   0.809  -0.937  0.00  0.00    +0.079 A 
ATOM      7  C   UNL     1      -1.373   1.578  -0.721  0.00  0.00    +0.040 A 
ATOM      8  C   UNL     1      -2.520   0.989  -0.182  0.00  0.00    +0.039 A 
ATOM      9  C   UNL     1      -2.517  -0.370   0.145  0.00  0.00    +0.017 A 
ATOM     10  C   UNL     1      -1.387  -1.130  -0.067  0.00  0.00    +0.048 A 
ATOM     11  C   UNL     1      -0.250  -0.548  -0.608  0.00  0.00    +0.143 A 
ATOM     12  O   UNL     1       0.868  -1.290  -0.823  0.00  0.00    -0.475 OA
ATOM     13  C   UNL     1       0.969  -1.363  -3.237  0.00  0.00    +0.065 C 
ENDROOT
BRANCH   8  14
ATOM     14  C   UNL     1      -3.731   1.802   0.046  0.00  0.00    +0.247 C 
ATOM     15  O   UNL     1      -3.628   2.978   0.334  0.00  0.00    -0.270 OA
ATOM     16  N   UNL     1      -4.951   1.239  -0.066  0.00  0.00    -0.293 N 
BRANCH  16  17
ATOM     17  C   UNL     1      -5.075  -0.206  -0.267  0.00  0.00    +0.113 C 
BRANCH  17  18
ATOM     18  C   UNL     1      -5.460  -0.874   1.054  0.00  0.00    +0.054 C 
BRANCH  18  19
ATOM     19  C   UNL     1      -5.588  -2.361   0.847  0.00  0.00    -0.046 A 
ATOM     20  C   UNL     1      -6.807  -2.907   0.489  0.00  0.00    +0.004 A 
ATOM     21  C   UNL     1      -6.924  -4.270   0.294  0.00  0.00    +0.000 A 
ATOM     22  C   UNL     1      -5.824  -5.090   0.467  0.00  0.00    +0.000 A 
ATOM     23  C   UNL     1      -4.606  -4.545   0.830  0.00  0.00    +0.000 A 
ATOM     24  C   UNL     1      -4.488  -3.181   1.020  0.00  0.00    +0.004 A 
ENDBRANCH  18  19
ENDBRANCH  17  18
ENDBRANCH  16  17
BRANCH  16  25
ATOM     25  C   UNL     1      -6.152   2.074   0.015  0.00  0.00    +0.143 C 
BRANCH  25  26
ATOM     26  C   UNL     1      -6.599   2.447  -1.375  0.00  0.00    -0.030 A 
ATOM     27  C   UNL     1      -6.152   3.621  -1.953  0.00  0.00    +0.005 A 
ATOM     28  C   UNL     1      -6.557   3.960  -3.230  0.00  0.00    +0.000 A 
ATOM     29  C   UNL     1      -7.419   3.132  -3.924  0.00  0.00    +0.000 A 
ATOM     30  C   UNL     1      -7.871   1.962  -3.344  0.00  0.00    +0.000 A 
ATOM     31  C   UNL     1      -7.460   1.619  -2.069  0.00  0.00    +0.005 A 
ENDBRANCH  25  26
ENDBRANCH  16  25
ENDBRANCH   8  14
BRANCH   5  32
ATOM     32  C   UNL     1       1.079   2.834  -1.525  0.00  0.00    +0.209 C 
BRANCH  32  33
ATOM     33  C   UNL     1       1.753   3.300  -0.261  0.00  0.00    +0.233 C 
ATOM     34  O   UNL     1       2.065   2.496   0.592  0.00  0.00    -0.274 OA
ATOM     35  N   UNL     1       2.009   4.611  -0.078  0.00  0.00    -0.300 N 
ATOM     36  C   UNL     1       1.692   5.686  -1.028  0.00  0.00    +0.108 C 
ATOM     37  C   UNL     1       2.188   7.009  -0.406  0.00  0.00    +0.020 C 
ATOM     38  C   UNL     1       3.270   6.533   0.600  0.00  0.00    +0.020 C 
ATOM     39  C   UNL     1       2.660   5.202   1.106  0.00  0.00    +0.108 C 
ENDBRANCH  32  33
ENDBRANCH   5  32
TORSDOF 8
