REMARK  Name = ZINC36340161
REMARK  11 active torsions:
REMARK  status: ('A' for Active; 'I' for Inactive)
REMARK    1  A    between atoms: C_1  and  C_2
REMARK    2  A    between atoms: C_7  and  C_8
REMARK    3  A    between atoms: C_8  and  C_9
REMARK    4  A    between atoms: C_10  and  C_38
REMARK    5  A    between atoms: C_12  and  C_32
REMARK    6  A    between atoms: C_14  and  N_15
REMARK    7  A    between atoms: N_18  and  C_21
REMARK    8  A    between atoms: C_21  and  C_22
REMARK    9  A    between atoms: C_22  and  C_24
REMARK   10  A    between atoms: C_22  and  O_31
REMARK   11  A    between atoms: C_24  and  N_25
REMARK                            x       y       z     vdW  Elec       q    Type
REMARK                         _______ _______ _______ _____ _____    ______ ____
ROOT
ATOM      1  C   UNL     1      -2.940  -0.645   2.552  0.00  0.00    +0.018 A 
ATOM      2  C   UNL     1      -3.209   0.670   2.221  0.00  0.00    +0.047 A 
ATOM      3  N   UNL     1      -2.570   1.641   2.854  0.00  0.00    -0.232 NA
ATOM      4  C   UNL     1      -1.680   1.369   3.798  0.00  0.00    +0.162 A 
ATOM      5  N   UNL     1      -1.393   0.122   4.145  0.00  0.00    -0.212 NA
ATOM      6  C   UNL     1      -2.001  -0.901   3.554  0.00  0.00    +0.129 A 
ATOM      7  C   UNL     1      -4.218   0.994   1.149  0.00  0.00    +0.066 C 
ENDROOT
BRANCH   6   8
ATOM      8  N   UNL     1      -1.703  -2.203   3.923  0.00  0.00    -0.312 N 
ATOM      9  C   UNL     1      -0.498  -2.875   3.414  0.00  0.00    +0.122 C 
ATOM     10  C   UNL     1       0.272  -3.460   4.603  0.00  0.00    +0.103 C 
ATOM     11  N   UNL     1      -0.627  -4.312   5.393  0.00  0.00    -0.297 NA
ATOM     12  C   UNL     1      -1.732  -3.532   5.967  0.00  0.00    +0.103 C 
ATOM     13  C   UNL     1      -2.581  -2.947   4.839  0.00  0.00    +0.122 C 
BRANCH  11  14
ATOM     14  C   UNL     1       0.112  -5.027   6.441  0.00  0.00    +0.114 C 
BRANCH  14  15
ATOM     15  C   UNL     1      -0.796  -6.082   7.077  0.00  0.00    +0.112 C 
BRANCH  15  16
ATOM     16  O   UNL     1      -1.127  -7.074   6.103  0.00  0.00    -0.392 OA
ATOM     17  H   UNL     1      -0.362  -7.539   5.739  0.00  0.00    +0.210 HD
ENDBRANCH  15  16
BRANCH  15  18
ATOM     18  C   UNL     1      -0.069  -6.741   8.250  0.00  0.00    -0.046 C 
BRANCH  18  19
ATOM     19  N   UNL     1      -0.941  -7.754   8.860  0.00  0.00    +0.381 N 
ATOM     20  C   UNL     1      -2.118  -7.097   9.442  0.00  0.00    -0.079 C 
ATOM     21  C   UNL     1      -3.069  -8.154  10.007  0.00  0.00    -0.019 C 
ATOM     22  C   UNL     1      -2.344  -8.959  11.090  0.00  0.00    -0.004 C 
ATOM     23  C   UNL     1      -1.078  -9.578  10.491  0.00  0.00    -0.019 C 
ATOM     24  C   UNL     1      -0.201  -8.468   9.908  0.00  0.00    -0.079 C 
ATOM     25  H   UNL     1      -1.239  -8.410   8.153  0.00  0.00    -0.082 HD
ENDBRANCH  18  19
ENDBRANCH  15  18
ENDBRANCH  14  15
ENDBRANCH  11  14
ENDBRANCH   6   8
BRANCH   4  26
ATOM     26  C   UNL     1      -0.987   2.488   4.482  0.00  0.00    +0.019 A 
ATOM     27  C   UNL     1      -0.043   2.224   5.473  0.00  0.00    +0.011 A 
ATOM     28  C   UNL     1       0.599   3.269   6.106  0.00  0.00    +0.001 A 
ATOM     29  C   UNL     1       0.307   4.576   5.759  0.00  0.00    +0.000 A 
ATOM     30  C   UNL     1      -0.628   4.843   4.776  0.00  0.00    +0.001 A 
ATOM     31  C   UNL     1      -1.272   3.806   4.132  0.00  0.00    +0.011 A 
ENDBRANCH   4  26
BRANCH   1  32
ATOM     32  C   UNL     1      -3.648  -1.776   1.853  0.00  0.00    +0.075 C 
BRANCH  32  39
ATOM     33  C   UNL     1      -5.961  -1.139   0.243  0.00  0.00    +0.044 C 
ATOM     34  C   UNL     1      -6.139  -1.629   1.657  0.00  0.00    -0.047 A 
ATOM     35  C   UNL     1      -7.409  -1.779   2.182  0.00  0.00    +0.003 A 
ATOM     36  C   UNL     1      -7.572  -2.229   3.479  0.00  0.00    +0.000 A 
ATOM     37  C   UNL     1      -6.465  -2.529   4.251  0.00  0.00    +0.000 A 
ATOM     38  C   UNL     1      -5.195  -2.380   3.726  0.00  0.00    +0.004 A 
ATOM     39  C   UNL     1      -5.032  -1.934   2.427  0.00  0.00    -0.040 A 
ENDBRANCH  32  39
ENDBRANCH   1  32
TORSDOF 9
