REMARK  Name = ZINC46504025
REMARK  9 active torsions:
REMARK  status: ('A' for Active; 'I' for Inactive)
REMARK    1  A    between atoms: C_1  and  C_2
REMARK    2  A    between atoms: C_2  and  C_3
REMARK    3  A    between atoms: C_2  and  C_4
REMARK    4  A    between atoms: C_2  and  C_5
REMARK    5  A    between atoms: C_8  and  C_10
REMARK    6  A    between atoms: C_10  and  N_11
REMARK    7  A    between atoms: N_14  and  C_17
REMARK    8  A    between atoms: C_17  and  C_18
REMARK    9  A    between atoms: C_26  and  N_28
REMARK                            x       y       z     vdW  Elec       q    Type
REMARK                         _______ _______ _______ _____ _____    ______ ____
ROOT
ATOM      1  N   UNL     1       3.356  -3.398  -3.078  0.00  0.00    +0.387 N 
ATOM      2  C   UNL     1       4.316  -2.349  -3.447  0.00  0.00    -0.063 C 
ATOM      3  C   UNL     1       5.716  -2.751  -2.976  0.00  0.00    +0.066 C 
ATOM      4  N   UNL     1       6.093  -4.026  -3.600  0.00  0.00    -0.299 NA
ATOM      5  C   UNL     1       5.127  -5.080  -3.260  0.00  0.00    +0.066 C 
ATOM      6  C   UNL     1       3.732  -4.660  -3.729  0.00  0.00    -0.063 C 
ATOM      7  H   UNL     1       3.362  -3.521  -2.077  0.00  0.00    -0.081 HD
ENDROOT
BRANCH   1   8
ATOM      8  C   UNL     1       2.010  -3.004  -3.515  0.00  0.00    +0.019 C 
BRANCH   8  12
ATOM      9  C   UNL     1       0.707  -0.490  -1.238  0.00  0.00    +0.130 A 
ATOM     10  C   UNL     1       1.249   0.276  -2.200  0.00  0.00    +0.156 A 
ATOM     11  N   UNL     1       1.778  -0.545  -3.125  0.00  0.00    -0.223 NA
ATOM     12  C   UNL     1       1.574  -1.777  -2.756  0.00  0.00    +0.179 A 
ATOM     13  O   UNL     1       0.918  -1.774  -1.587  0.00  0.00    -0.446 OA
BRANCH   9  15
ATOM     14  C   UNL     1      -0.019   1.526   0.010  0.00  0.00    +0.019 C 
ATOM     15  C   UNL     1       0.002  -0.004   0.002  0.00  0.00    +0.022 C 
ATOM     16  C   UNL     1       0.742  -0.511   1.242  0.00  0.00    +0.019 C 
ATOM     17  C   UNL     1      -1.433  -0.534   0.013  0.00  0.00    +0.019 C 
ENDBRANCH   9  15
ENDBRANCH   8  12
ENDBRANCH   1   8
BRANCH   4  18
ATOM     18  C   UNL     1       7.456  -4.418  -3.216  0.00  0.00    +0.160 C 
BRANCH  18  19
ATOM     19  C   UNL     1       7.898  -5.588  -4.057  0.00  0.00    +0.146 A 
ATOM     20  N   UNL     1       7.647  -6.800  -3.624  0.00  0.00    -0.231 NA
ATOM     21  C   UNL     1       8.023  -7.870  -4.341  0.00  0.00    +0.076 A 
ATOM     22  C   UNL     1       7.771  -9.179  -3.910  0.00  0.00    +0.028 A 
ATOM     23  C   UNL     1       8.175 -10.230  -4.678  0.00  0.00    +0.002 A 
ATOM     24  C   UNL     1       8.835 -10.024  -5.886  0.00  0.00    +0.001 A 
ATOM     25  C   UNL     1       9.095  -8.763  -6.336  0.00  0.00    +0.013 A 
ATOM     26  C   UNL     1       8.694  -7.662  -5.571  0.00  0.00    +0.040 A 
ATOM     27  C   UNL     1       8.936  -6.330  -5.985  0.00  0.00    +0.127 A 
ATOM     28  N   UNL     1       8.517  -5.345  -5.201  0.00  0.00    -0.216 NA
BRANCH  27  29
ATOM     29  N   UNL     1       9.585  -6.064  -7.171  0.00  0.00    -0.343 N 
ATOM     30  H   UNL     1       9.882  -6.794  -7.736  0.00  0.00    +0.144 HD
ATOM     31  H   UNL     1       9.743  -5.146  -7.442  0.00  0.00    +0.144 HD
ENDBRANCH  27  29
ENDBRANCH  18  19
ENDBRANCH   4  18
TORSDOF 6
