REMARK  Name = ZINC48444896
REMARK  4 active torsions:
REMARK  status: ('A' for Active; 'I' for Inactive)
REMARK    1  A    between atoms: C_8  and  C_11
REMARK    2  A    between atoms: C_11  and  N_12
REMARK    3  A    between atoms: N_12  and  S_13
REMARK    4  A    between atoms: S_13  and  C_16
REMARK                            x       y       z     vdW  Elec       q    Type
REMARK                         _______ _______ _______ _____ _____    ______ ____
ROOT
ATOM      1  N   UNL     1       5.193  -3.271   0.115  0.00  0.00    -0.186 NA
ATOM      2  H   UNL     1       5.550  -2.527   0.625  0.00  0.00    +0.148 HD
ENDROOT
BRANCH   1   3
ATOM      3  S   UNL     1       6.150  -4.579  -0.221  0.00  0.00    +0.066 S 
ATOM      4  O   UNL     1       7.426  -4.304   0.341  0.00  0.00    -0.153 OA
ATOM      5  O   UNL     1       5.397  -5.733   0.128  0.00  0.00    -0.153 OA
BRANCH   3   6
ATOM      6  C   UNL     1       6.370  -4.630  -1.968  0.00  0.00    +0.156 A 
ATOM      7  C   UNL     1       7.068  -5.519  -2.716  0.00  0.00    +0.051 A 
ATOM      8  C   UNL     1       7.102  -5.360  -4.089  0.00  0.00    +0.025 A 
ATOM      9  C   UNL     1       6.436  -4.320  -4.646  0.00  0.00    +0.048 A 
ATOM     10  S   UNL     1       5.723  -3.527  -3.214  0.00  0.00    -0.076 S 
ATOM     11 BR   UNL     1       7.983  -6.955  -1.893  0.00  0.00    -0.048 Br
ENDBRANCH   3   6
ENDBRANCH   1   3
BRANCH   1  12
ATOM     12  C   UNL     1       3.807  -3.236  -0.358  0.00  0.00    +0.150 C 
BRANCH  12  20
ATOM     13  C   UNL     1      -0.017   1.379   0.010  0.00  0.00    +0.000 A 
ATOM     14  C   UNL     1       1.174   2.082   0.002  0.00  0.00    +0.004 A 
ATOM     15  C   UNL     1       2.379   1.411  -0.017  0.00  0.00    +0.046 A 
ATOM     16  C   UNL     1       2.407   0.019  -0.028  0.00  0.00    +0.124 A 
ATOM     17  C   UNL     1       1.204  -0.676  -0.013  0.00  0.00    -0.002 A 
ATOM     18  C   UNL     1       0.002  -0.004   0.002  0.00  0.00    +0.007 A 
ATOM     19  C   UNL     1       1.545  -2.154  -0.005  0.00  0.00    +0.084 C 
ATOM     20  C   UNL     1       3.043  -2.135   0.380  0.00  0.00    +0.193 C 
ATOM     21  O   UNL     1       3.468  -0.833  -0.059  0.00  0.00    -0.487 OA
ENDBRANCH  12  20
ENDBRANCH   1  12
TORSDOF 4
