REMARK  Name = ZINC15016238
REMARK  5 active torsions:
REMARK  status: ('A' for Active; 'I' for Inactive)
REMARK    1  A    between atoms: C_1  and  C_2
REMARK    2  A    between atoms: C_4  and  C_18
REMARK    3  A    between atoms: C_5  and  C_9
REMARK    4  A    between atoms: C_6  and  C_8
REMARK    5  A    between atoms: N_13  and  N_17
REMARK                            x       y       z     vdW  Elec       q    Type
REMARK                         _______ _______ _______ _____ _____    ______ ____
ROOT
ATOM      1  C   UNL     1       2.569   1.547  -0.043  0.00  0.00    +0.028 C 
ATOM      2  C   UNL     1       1.822   1.332   1.069  0.00  0.00    +0.078 C 
ATOM      3  C   UNL     1       0.866   0.244   1.366  0.00  0.00    +0.272 C 
ATOM      4  O   UNL     1       0.638  -0.644   0.566  0.00  0.00    -0.268 OA
ATOM      5  N   UNL     1       0.266   0.289   2.544  0.00  0.00    -0.189 N 
ATOM      6  C   UNL     1       0.526   1.271   3.430  0.00  0.00    +0.135 C 
ATOM      7  S   UNL     1      -0.138   1.497   4.992  0.00  0.00    -0.026 S 
ATOM      8  S   UNL     1       1.723   2.286   2.577  0.00  0.00    -0.060 S 
ENDROOT
BRANCH   1  13
ATOM      9  C   UNL     1       6.449   5.786  -0.122  0.00  0.00    +0.044 C 
ATOM     10  C   UNL     1       5.432   4.674  -0.101  0.00  0.00    -0.050 A 
ATOM     11  C   UNL     1       5.568   3.633   0.801  0.00  0.00    +0.007 A 
ATOM     12  C   UNL     1       4.641   2.613   0.827  0.00  0.00    -0.043 A 
ATOM     13  C   UNL     1       3.561   2.631  -0.063  0.00  0.00    -0.018 A 
ATOM     14  C   UNL     1       3.434   3.684  -0.976  0.00  0.00    -0.043 A 
ATOM     15  C   UNL     1       4.366   4.700  -0.985  0.00  0.00    +0.007 A 
ATOM     16  C   UNL     1       2.278   3.711  -1.942  0.00  0.00    +0.044 C 
ATOM     17  C   UNL     1       4.791   1.481   1.810  0.00  0.00    +0.044 C 
ENDBRANCH   1  13
BRANCH   5  18
ATOM     18  N   UNL     1      -0.632  -0.686   2.873  0.00  0.00    -0.246 NA
ATOM     19  H   UNL     1      -1.012  -0.532   3.795  0.00  0.00    +0.141 HD
ATOM     20  H   UNL     1      -1.367  -0.748   2.184  0.00  0.00    +0.141 HD
ENDBRANCH   5  18
TORSDOF 2
