REMARK  Name = ZINC08995171
REMARK  3 active torsions:
REMARK  status: ('A' for Active; 'I' for Inactive)
REMARK    1  A    between atoms: C_12  and  C_17
REMARK    2  A    between atoms: C_17  and  S_18
REMARK    3  A    between atoms: S_18  and  C_19
REMARK                            x       y       z     vdW  Elec       q    Type
REMARK                         _______ _______ _______ _____ _____    ______ ____
ROOT
ATOM      1  C   UNL     1      -0.017   1.373   0.010  0.00  0.00    +0.002 A 
ATOM      2  C   UNL     1       1.170   2.091   0.002  0.00  0.00    +0.004 A 
ATOM      3  C   UNL     1       2.384   1.436  -0.013  0.00  0.00    +0.048 A 
ATOM      4  C   UNL     1       2.421   0.051  -0.021  0.00  0.00    +0.157 A 
ATOM      5  C   UNL     1       1.223  -0.680  -0.013  0.00  0.00    +0.111 A 
ATOM      6  C   UNL     1       0.002  -0.004   0.002  0.00  0.00    +0.031 A 
ATOM      7  N   UNL     1       1.569  -1.996  -0.024  0.00  0.00    -0.195 NA
ATOM      8  C   UNL     1       2.874  -2.087  -0.037  0.00  0.00    +0.295 A 
ATOM      9  N   UNL     1       3.584  -3.271  -0.051  0.00  0.00    -0.239 N 
ATOM     10  C   UNL     1       4.957  -3.247  -0.065  0.00  0.00    +0.204 A 
ATOM     11  N   UNL     1       5.585  -2.089  -0.058  0.00  0.00    -0.220 NA
ATOM     12  C   UNL     1       6.914  -2.021  -0.071  0.00  0.00    +0.060 A 
ATOM     13  C   UNL     1       7.658  -3.165  -0.090  0.00  0.00    +0.094 A 
ATOM     14  C   UNL     1       6.995  -4.406  -0.097  0.00  0.00    +0.253 A 
ATOM     15  N   UNL     1       5.645  -4.421  -0.078  0.00  0.00    -0.295 N 
ATOM     16  O   UNL     1       7.628  -5.449  -0.115  0.00  0.00    -0.268 OA
ATOM     17  O   UNL     1       3.422  -0.859  -0.036  0.00  0.00    -0.424 OA
ATOM     18  H   UNL     1       3.114  -4.119  -0.051  0.00  0.00    +0.159 HD
ATOM     19  H   UNL     1       5.168  -5.265  -0.079  0.00  0.00    +0.172 HD
ENDROOT
BRANCH  12  20
ATOM     20  C   UNL     1       7.599  -0.679  -0.064  0.00  0.00    +0.130 C 
BRANCH  20  21
ATOM     21  S   UNL     1       7.463   0.078  -1.707  0.00  0.00    -0.119 S 
BRANCH  21  22
ATOM     22  C   UNL     1       8.301   1.619  -1.537  0.00  0.00    +0.008 A 
ATOM     23  C   UNL     1       8.872   1.970  -0.320  0.00  0.00    +0.016 A 
ATOM     24  C   UNL     1       9.528   3.179  -0.190  0.00  0.00    +0.021 A 
ATOM     25  C   UNL     1       9.616   4.039  -1.270  0.00  0.00    +0.041 A 
ATOM     26  C   UNL     1       9.048   3.692  -2.484  0.00  0.00    +0.021 A 
ATOM     27  C   UNL     1       8.396   2.483  -2.622  0.00  0.00    +0.016 A 
ATOM     28 CL   UNL     1      10.441   5.558  -1.103  0.00  0.00    -0.084 Cl
ENDBRANCH  21  22
ENDBRANCH  20  21
ENDBRANCH  12  20
TORSDOF 3
