REMARK  Name = ZINC12385071
REMARK  6 active torsions:
REMARK  status: ('A' for Active; 'I' for Inactive)
REMARK    1  A    between atoms: C_1  and  C_2
REMARK    2  A    between atoms: C_7  and  C_17
REMARK    3  A    between atoms: C_22  and  N_23
REMARK    4  A    between atoms: C_28  and  C_30
REMARK    5  A    between atoms: C_30  and  O_32
REMARK    6  A    between atoms: O_32  and  C_33
REMARK                            x       y       z     vdW  Elec       q    Type
REMARK                         _______ _______ _______ _____ _____    ______ ____
ROOT
ATOM      1  C   UNL     1       2.638   9.326   1.276  0.00  0.00    +0.009 C 
ATOM      2  C   UNL     1       1.717   9.010   2.456  0.00  0.00    +0.013 C 
ATOM      3  C   UNL     1       0.573   8.110   1.994  0.00  0.00    +0.055 C 
ATOM      4  C   UNL     1       1.132   6.814   1.430  0.00  0.00    +0.017 C 
ATOM      5  C   UNL     1       2.258   6.282   1.934  0.00  0.00    +0.037 C 
ATOM      6  C   UNL     1       2.906   4.993   1.490  0.00  0.00    +0.138 C 
ATOM      7  N   UNL     1       2.374   4.445   0.260  0.00  0.00    -0.331 N 
ATOM      8  C   UNL     1       1.054   4.001   0.180  0.00  0.00    +0.049 A 
ATOM      9  C   UNL     1       0.750   2.662  -0.007  0.00  0.00    +0.025 A 
ATOM     10  C   UNL     1      -0.574   2.258   0.006  0.00  0.00    +0.002 A 
ATOM     11  C   UNL     1      -1.585   3.182   0.198  0.00  0.00    +0.002 A 
ATOM     12  C   UNL     1      -1.284   4.522   0.374  0.00  0.00    +0.025 A 
ATOM     13  C   UNL     1       0.038   4.930   0.344  0.00  0.00    +0.052 A 
ATOM     14  N   UNL     1       0.403   6.269   0.423  0.00  0.00    -0.316 N 
ATOM     15  C   UNL     1       2.954   6.944   2.973  0.00  0.00    +0.177 C 
ATOM     16  O   UNL     1       3.959   6.430   3.425  0.00  0.00    -0.291 OA
ATOM     17  C   UNL     1       2.497   8.255   3.538  0.00  0.00    +0.171 C 
ATOM     18  H   UNL     1       2.945   4.387  -0.522  0.00  0.00    +0.147 HD
ATOM     19  H   UNL     1       0.116   6.856  -0.293  0.00  0.00    +0.152 HD
ENDROOT
BRANCH   6  20
ATOM     20  C   UNL     1       2.732   3.970   2.583  0.00  0.00    +0.007 A 
ATOM     21  C   UNL     1       1.773   4.160   3.560  0.00  0.00    +0.008 A 
ATOM     22  C   UNL     1       1.611   3.220   4.560  0.00  0.00    +0.000 A 
ATOM     23  C   UNL     1       2.413   2.094   4.588  0.00  0.00    +0.002 A 
ATOM     24  C   UNL     1       3.375   1.907   3.614  0.00  0.00    +0.033 A 
ATOM     25  C   UNL     1       3.535   2.846   2.611  0.00  0.00    +0.131 A 
BRANCH  25  26
ATOM     26  N   UNL     1       4.566   2.646   1.568  0.00  0.00    +0.057 N 
ATOM     27  O   UNL     1       5.341   1.710   1.648  0.00  0.00    -0.126 OA
ATOM     28  O   UNL     1       4.639   3.418   0.628  0.00  0.00    -0.126 OA
ENDBRANCH  25  26
ENDBRANCH   6  20
BRANCH  17  29
ATOM     29  C   UNL     1       3.691   9.070   3.963  0.00  0.00    +0.318 C 
ATOM     30  O   UNL     1       3.900  10.146   3.454  0.00  0.00    -0.250 OA
BRANCH  29  31
ATOM     31  O   UNL     1       4.523   8.601   4.907  0.00  0.00    -0.467 OA
ATOM     32  C   UNL     1       5.652   9.441   5.266  0.00  0.00    +0.280 C 
ENDBRANCH  29  31
ENDBRANCH  17  29
TORSDOF 4
