REMARK  Name = ZINC65519237
REMARK  10 active torsions:
REMARK  status: ('A' for Active; 'I' for Inactive)
REMARK    1  A    between atoms: C_1  and  C_2
REMARK    2  A    between atoms: C_2  and  C_3
REMARK    3  A    between atoms: C_2  and  C_4
REMARK    4  A    between atoms: C_2  and  C_5
REMARK    5  A    between atoms: C_8  and  C_11
REMARK    6  A    between atoms: C_11  and  S_12
REMARK    7  A    between atoms: S_12  and  C_15
REMARK    8  A    between atoms: C_15  and  C_16
REMARK    9  A    between atoms: C_16  and  C_17
REMARK   10  A    between atoms: C_16  and  O_27
REMARK                            x       y       z     vdW  Elec       q    Type
REMARK                         _______ _______ _______ _____ _____    ______ ____
ROOT
ATOM      1  S   UNL     1       2.476  -0.666  -6.091  0.00  0.00    -0.024 S 
ATOM      2  O   UNL     1       1.096  -0.629  -6.428  0.00  0.00    -0.174 OA
ATOM      3  O   UNL     1       3.131   0.541  -5.729  0.00  0.00    -0.174 OA
ENDROOT
BRANCH   1   4
ATOM      4  C   UNL     1       2.707  -1.868  -4.752  0.00  0.00    +0.201 C 
BRANCH   4   8
ATOM      5  C   UNL     1       0.707  -0.490  -1.238  0.00  0.00    -0.042 A 
ATOM      6  C   UNL     1       0.036  -1.284  -2.148  0.00  0.00    +0.004 A 
ATOM      7  C   UNL     1       0.683  -1.730  -3.286  0.00  0.00    +0.005 A 
ATOM      8  C   UNL     1       2.001  -1.381  -3.513  0.00  0.00    -0.027 A 
ATOM      9  C   UNL     1       2.672  -0.586  -2.603  0.00  0.00    +0.005 A 
ATOM     10  C   UNL     1       2.024  -0.137  -1.467  0.00  0.00    +0.004 A 
BRANCH   5  12
ATOM     11  C   UNL     1      -0.019   1.526   0.010  0.00  0.00    +0.015 C 
ATOM     12  C   UNL     1       0.002  -0.004   0.002  0.00  0.00    -0.013 C 
ATOM     13  C   UNL     1       0.742  -0.511   1.242  0.00  0.00    +0.015 C 
ATOM     14  C   UNL     1      -1.433  -0.534   0.013  0.00  0.00    +0.015 C 
ENDBRANCH   5  12
ENDBRANCH   4   8
ENDBRANCH   1   4
BRANCH   1  15
ATOM     15  C   UNL     1       3.383  -1.421  -7.468  0.00  0.00    +0.202 C 
BRANCH  15  16
ATOM     16  C   UNL     1       3.286  -0.518  -8.699  0.00  0.00    +0.166 C 
BRANCH  16  17
ATOM     17  C   UNL     1       3.934  -1.201  -9.876  0.00  0.00    -0.014 A 
ATOM     18  C   UNL     1       5.310  -1.187 -10.010  0.00  0.00    +0.010 A 
ATOM     19  C   UNL     1       5.908  -1.811 -11.089  0.00  0.00    +0.050 A 
ATOM     20  C   UNL     1       5.128  -2.453 -12.040  0.00  0.00    +0.162 A 
ATOM     21  C   UNL     1       3.745  -2.469 -11.903  0.00  0.00    +0.162 A 
ATOM     22  C   UNL     1       3.152  -1.845 -10.816  0.00  0.00    +0.055 A 
ATOM     23  O   UNL     1       2.962  -3.100 -12.821  0.00  0.00    -0.485 OA
ATOM     24  C   UNL     1       3.565  -3.398 -14.085  0.00  0.00    +0.270 C 
ATOM     25  C   UNL     1       4.947  -4.012 -13.826  0.00  0.00    +0.270 C 
ATOM     26  O   UNL     1       5.731  -3.060 -13.098  0.00  0.00    -0.485 OA
ENDBRANCH  16  17
BRANCH  16  27
ATOM     27  O   UNL     1       3.955   0.717  -8.438  0.00  0.00    -0.386 OA
ATOM     28  H   UNL     1       4.894   0.619  -8.229  0.00  0.00    +0.210 HD
ENDBRANCH  16  27
ENDBRANCH  15  16
ENDBRANCH   1  15
TORSDOF 7
