REMARK  Name = ZINC06097430
REMARK  6 active torsions:
REMARK  status: ('A' for Active; 'I' for Inactive)
REMARK    1  A    between atoms: C_1  and  C_2
REMARK    2  A    between atoms: C_9  and  N_14
REMARK    3  A    between atoms: C_10  and  C_11
REMARK    4  A    between atoms: C_15  and  C_17
REMARK    5  A    between atoms: C_17  and  S_18
REMARK    6  A    between atoms: S_18  and  C_19
REMARK                            x       y       z     vdW  Elec       q    Type
REMARK                         _______ _______ _______ _____ _____    ______ ____
ROOT
ATOM      1  N   UNL     1       1.933  -5.845  -1.735  0.00  0.00    -0.279 N 
ATOM      2  C   UNL     1       2.231  -6.107  -3.023  0.00  0.00    +0.228 C 
ATOM      3  O   UNL     1       2.202  -5.216  -3.845  0.00  0.00    -0.275 OA
ATOM      4  H   UNL     1       1.956  -6.558  -1.078  0.00  0.00    +0.155 HD
ENDROOT
BRANCH   1  12
ATOM      5  C   UNL     1      -0.019   1.526   0.010  0.00  0.00    +0.008 C 
ATOM      6  C   UNL     1       0.002  -0.004   0.002  0.00  0.00    -0.009 C 
ATOM      7  C   UNL     1       0.742  -0.514   1.242  0.00  0.00    +0.008 C 
ATOM      8  C   UNL     1       0.557  -2.027   1.373  0.00  0.00    +0.037 C 
ATOM      9  C   UNL     1       0.941  -2.684   0.053  0.00  0.00    -0.023 A 
ATOM     10  C   UNL     1       1.008  -1.966  -1.089  0.00  0.00    -0.004 A 
ATOM     11  S   UNL     1       1.485  -3.133  -2.331  0.00  0.00    -0.077 S 
ATOM     12  C   UNL     1       1.594  -4.557  -1.350  0.00  0.00    +0.084 A 
ATOM     13  C   UNL     1       1.259  -4.095  -0.085  0.00  0.00    +0.068 A 
ATOM     14  C   UNL     1       0.736  -0.502  -1.252  0.00  0.00    +0.046 C 
BRANCH  13  15
ATOM     15  C   UNL     1       1.227  -4.998   1.070  0.00  0.00    +0.244 C 
ATOM     16  O   UNL     1       0.198  -5.583   1.357  0.00  0.00    -0.270 OA
ATOM     17  N   UNL     1       2.336  -5.181   1.814  0.00  0.00    -0.325 N 
ATOM     18  H   UNL     1       3.155  -4.715   1.585  0.00  0.00    +0.145 HD
ATOM     19  H   UNL     1       2.314  -5.778   2.578  0.00  0.00    +0.145 HD
ENDBRANCH  13  15
ENDBRANCH   1  12
BRANCH   2  20
ATOM     20  C   UNL     1       2.600  -7.506  -3.442  0.00  0.00    +0.173 C 
BRANCH  20  21
ATOM     21  S   UNL     1       2.942  -7.534  -5.219  0.00  0.00    -0.077 S 
BRANCH  21  22
ATOM     22  C   UNL     1       3.334  -9.239  -5.429  0.00  0.00    +0.192 A 
ATOM     23  N   UNL     1       3.353 -10.160  -4.490  0.00  0.00    -0.122 NA
ATOM     24  N   UNL     1       3.674 -11.298  -5.000  0.00  0.00    -0.134 NA
ATOM     25  C   UNL     1       3.880 -11.169  -6.277  0.00  0.00    +0.134 A 
ATOM     26  N   UNL     1       3.682  -9.855  -6.592  0.00  0.00    -0.306 N 
ATOM     27  C   UNL     1       3.828  -9.244  -7.913  0.00  0.00    +0.125 C 
ATOM     28  C   UNL     1       3.548 -10.296  -8.991  0.00  0.00    +0.022 C 
ATOM     29  C   UNL     1       4.843 -11.022  -9.350  0.00  0.00    +0.002 C 
ATOM     30  C   UNL     1       5.407 -11.751  -8.135  0.00  0.00    +0.008 C 
ATOM     31  C   UNL     1       4.257 -12.252  -7.255  0.00  0.00    +0.076 C 
ENDBRANCH  21  22
ENDBRANCH  20  21
ENDBRANCH   2  20
TORSDOF 5
