REMARK  Name = ZINC54752460
REMARK  3 active torsions:
REMARK  status: ('A' for Active; 'I' for Inactive)
REMARK    1  A    between atoms: C_1  and  C_2
REMARK    2  A    between atoms: C_2  and  C_3
REMARK    3  A    between atoms: C_16  and  C_18
REMARK                            x       y       z     vdW  Elec       q    Type
REMARK                         _______ _______ _______ _____ _____    ______ ____
ROOT
ATOM      1  C   UNL     1       0.718  -0.497  -1.257  0.00  0.00    -0.006 C 
ATOM      2  C   UNL     1       0.639  -2.025  -1.327  0.00  0.00    +0.008 C 
ATOM      3  C   UNL     1       1.128  -2.508  -2.693  0.00  0.00    +0.037 C 
ATOM      4  C   UNL     1       2.506  -1.911  -2.964  0.00  0.00    -0.023 A 
ATOM      5  C   UNL     1       2.936  -0.829  -2.272  0.00  0.00    -0.004 A 
ATOM      6  S   UNL     1       4.559  -0.487  -2.903  0.00  0.00    -0.073 S 
ATOM      7  C   UNL     1       4.660  -1.791  -4.089  0.00  0.00    +0.116 A 
ATOM      8  C   UNL     1       3.418  -2.455  -3.954  0.00  0.00    +0.075 A 
ATOM      9  C   UNL     1       3.185  -3.589  -4.803  0.00  0.00    +0.260 A 
ATOM     10  O   UNL     1       2.147  -4.225  -4.762  0.00  0.00    -0.267 OA
ATOM     11  N   UNL     1       4.191  -3.908  -5.651  0.00  0.00    -0.306 N 
ATOM     12  H   UNL     1       4.075  -4.668  -6.242  0.00  0.00    +0.170 HD
ATOM     13  C   UNL     1       5.361  -3.207  -5.712  0.00  0.00    +0.142 A 
ATOM     14  N   UNL     1       5.606  -2.155  -4.943  0.00  0.00    -0.222 NA
ATOM     15  C   UNL     1       2.195  -0.080  -1.206  0.00  0.00    +0.046 C 
ENDROOT
BRANCH  13  16
ATOM     16  C   UNL     1       6.394  -3.637  -6.673  0.00  0.00    +0.018 A 
ATOM     17  C   UNL     1       6.168  -4.738  -7.504  0.00  0.00    +0.013 A 
ATOM     18  C   UNL     1       7.131  -5.139  -8.400  0.00  0.00    +0.024 A 
ATOM     19  C   UNL     1       8.343  -4.450  -8.487  0.00  0.00    +0.037 A 
ATOM     20  C   UNL     1       8.562  -3.355  -7.657  0.00  0.00    -0.017 A 
ATOM     21  C   UNL     1       7.605  -2.943  -6.763  0.00  0.00    +0.017 A 
ATOM     22  C   UNL     1       9.944  -2.840  -7.991  0.00  0.00    +0.133 C 
ATOM     23  C   UNL     1      10.430  -3.772  -9.080  0.00  0.00    +0.222 C 
ATOM     24  O   UNL     1      11.502  -3.723  -9.644  0.00  0.00    -0.275 OA
ATOM     25  N   UNL     1       9.451  -4.665  -9.303  0.00  0.00    -0.285 N 
ATOM     26  H   UNL     1       9.510  -5.379  -9.957  0.00  0.00    +0.155 HD
ENDBRANCH  13  16
BRANCH   1  28
ATOM     27  C   UNL     1      -0.019   1.526   0.010  0.00  0.00    +0.004 C 
ATOM     28  C   UNL     1       0.002  -0.004   0.002  0.00  0.00    +0.000 C 
ENDBRANCH   1  28
TORSDOF 2
