REMARK  Name = ZINC20082791
REMARK  11 active torsions:
REMARK  status: ('A' for Active; 'I' for Inactive)
REMARK    1  A    between atoms: C_1  and  C_2
REMARK    2  A    between atoms: C_7  and  C_15
REMARK    3  A    between atoms: C_13  and  C_14
REMARK    4  A    between atoms: C_15  and  C_17
REMARK    5  A    between atoms: C_15  and  N_26
REMARK    6  A    between atoms: N_21  and  C_22
REMARK    7  A    between atoms: C_22  and  C_23
REMARK    8  A    between atoms: C_23  and  O_24
REMARK    9  A    between atoms: O_24  and  C_25
REMARK   10  A    between atoms: N_29  and  C_32
REMARK   11  A    between atoms: C_37  and  C_38
REMARK                            x       y       z     vdW  Elec       q    Type
REMARK                         _______ _______ _______ _____ _____    ______ ____
ROOT
ATOM      1  C   UNL     1      -2.518   4.282   0.048  0.00  0.00    +0.162 C 
ENDROOT
BRANCH   1   8
ATOM      2  C   UNL     1       3.279  -1.162  -0.558  0.00  0.00    +0.044 C 
ATOM      3  C   UNL     1       2.037  -0.315  -0.450  0.00  0.00    -0.046 A 
ATOM      4  C   UNL     1       0.789  -0.924  -0.441  0.00  0.00    +0.004 A 
ATOM      5  C   UNL     1      -0.349  -0.175  -0.343  0.00  0.00    +0.010 A 
ATOM      6  C   UNL     1      -0.256   1.218  -0.252  0.00  0.00    -0.001 A 
ATOM      7  C   UNL     1      -1.455   2.051  -0.140  0.00  0.00    +0.021 A 
ATOM      8  C   UNL     1      -1.305   3.396  -0.062  0.00  0.00    +0.042 A 
ATOM      9  C   UNL     1      -0.015   3.969  -0.076  0.00  0.00    +0.254 A 
ATOM     10  O   UNL     1       0.099   5.180   0.002  0.00  0.00    -0.268 OA
ATOM     11  N   UNL     1       1.092   3.212  -0.173  0.00  0.00    -0.322 N 
ATOM     12  H   UNL     1       2.084   3.687  -0.181  0.00  0.00    +0.169 HD
ATOM     13  C   UNL     1       1.007   1.839  -0.262  0.00  0.00    +0.052 A 
ATOM     14  C   UNL     1       2.152   1.055  -0.361  0.00  0.00    -0.024 A 
ATOM     15  C   UNL     1       3.513   1.702  -0.372  0.00  0.00    +0.046 C 
ENDBRANCH   1   8
BRANCH   1  16
ATOM     16  N   UNL     1      -2.477   5.303  -1.008  0.00  0.00    -0.286 NA
ATOM     17  C   UNL     1      -3.613   6.228  -0.891  0.00  0.00    +0.104 C 
ATOM     18  C   UNL     1      -3.491   7.319  -1.957  0.00  0.00    +0.120 C 
ATOM     19  N   UNL     1      -3.455   6.698  -3.288  0.00  0.00    -0.327 N 
ATOM     20  C   UNL     1      -2.319   5.773  -3.405  0.00  0.00    +0.120 C 
ATOM     21  C   UNL     1      -2.442   4.682  -2.339  0.00  0.00    +0.104 C 
BRANCH  19  22
ATOM     22  C   UNL     1      -3.416   7.668  -4.292  0.00  0.00    +0.034 A 
ATOM     23  C   UNL     1      -2.329   8.528  -4.388  0.00  0.00    +0.043 A 
ATOM     24  C   UNL     1      -2.292   9.484  -5.385  0.00  0.00    +0.043 A 
ATOM     25  C   UNL     1      -3.340   9.591  -6.282  0.00  0.00    +0.020 A 
ATOM     26  C   UNL     1      -4.425   8.740  -6.186  0.00  0.00    +0.006 A 
ATOM     27  C   UNL     1      -4.466   7.779  -5.194  0.00  0.00    -0.029 A 
ATOM     28  C   UNL     1      -5.650   6.852  -5.091  0.00  0.00    +0.045 C 
ATOM     29 CL   UNL     1      -0.931  10.555  -5.508  0.00  0.00    -0.083 Cl
ENDBRANCH  19  22
ENDBRANCH   1  16
BRANCH   1  30
ATOM     30  C   UNL     1      -2.529   4.955   1.397  0.00  0.00    +0.173 A 
ATOM     31  N   UNL     1      -1.766   5.949   1.781  0.00  0.00    -0.111 NA
ATOM     32  N   UNL     1      -2.077   6.243   2.996  0.00  0.00    -0.023 NA
ATOM     33  N   UNL     1      -3.012   5.456   3.400  0.00  0.00    -0.044 NA
ATOM     34  N   UNL     1      -3.318   4.647   2.442  0.00  0.00    -0.225 N 
BRANCH  34  35
ATOM     35  C   UNL     1      -4.333   3.592   2.485  0.00  0.00    +0.175 C 
BRANCH  35  36
ATOM     36  C   UNL     1      -3.696   2.290   2.974  0.00  0.00    +0.183 C 
BRANCH  36  37
ATOM     37  O   UNL     1      -4.686   1.261   3.015  0.00  0.00    -0.381 OA
ATOM     38  C   UNL     1      -4.192  -0.004   3.461  0.00  0.00    +0.194 C 
ENDBRANCH  36  37
ENDBRANCH  35  36
ENDBRANCH  34  35
ENDBRANCH   1  30
TORSDOF 7
