REMARK  Name = ZINC09508808
REMARK  8 active torsions:
REMARK  status: ('A' for Active; 'I' for Inactive)
REMARK    1  A    between atoms: C_1  and  N_2
REMARK    2  A    between atoms: N_2  and  C_3
REMARK    3  A    between atoms: N_2  and  S_4
REMARK    4  A    between atoms: S_4  and  C_7
REMARK    5  A    between atoms: C_18  and  S_19
REMARK    6  A    between atoms: S_19  and  C_20
REMARK    7  A    between atoms: C_20  and  C_21
REMARK    8  A    between atoms: N_23  and  C_24
REMARK                            x       y       z     vdW  Elec       q    Type
REMARK                         _______ _______ _______ _____ _____    ______ ____
ROOT
ATOM      1  C   UNL     1       8.756  -7.094  -0.833  0.00  0.00    +0.108 A 
ATOM      2  C   UNL     1       9.031  -8.444  -0.958  0.00  0.00    +0.032 A 
ATOM      3  C   UNL     1       8.004  -9.366  -0.977  0.00  0.00    +0.050 A 
ATOM      4  C   UNL     1       6.688  -8.939  -0.871  0.00  0.00    +0.156 A 
ATOM      5  C   UNL     1       6.412  -7.578  -0.746  0.00  0.00    +0.097 A 
ATOM      6  C   UNL     1       7.449  -6.659  -0.728  0.00  0.00    +0.058 A 
ATOM      7  N   UNL     1       5.023  -7.453  -0.661  0.00  0.00    -0.236 N 
ATOM      8  C   UNL     1       4.495  -8.711  -0.734  0.00  0.00    +0.329 A 
ATOM      9  O   UNL     1       5.506  -9.602  -0.861  0.00  0.00    -0.421 OA
ATOM     10  N   UNL     1       3.189  -8.605  -0.654  0.00  0.00    -0.090 NA
ATOM     11  N   UNL     1       2.871  -7.247  -0.522  0.00  0.00    -0.119 NA
ATOM     12  C   UNL     1       3.991  -6.566  -0.533  0.00  0.00    +0.199 A 
ENDROOT
BRANCH   1  13
ATOM     13  S   UNL     1      10.075  -5.926  -0.810  0.00  0.00    +0.060 S 
ATOM     14  O   UNL     1       9.586  -4.774  -0.136  0.00  0.00    -0.153 OA
ATOM     15  O   UNL     1      11.232  -6.629  -0.376  0.00  0.00    -0.153 OA
BRANCH  13  17
ATOM     16  C   UNL     1       9.643  -4.329  -2.949  0.00  0.00    +0.131 C 
ATOM     17  N   UNL     1      10.357  -5.474  -2.378  0.00  0.00    -0.183 NA
ATOM     18  C   UNL     1      11.319  -6.218  -3.193  0.00  0.00    +0.131 C 
ENDBRANCH  13  17
ENDBRANCH   1  13
BRANCH  12  19
ATOM     19  S   UNL     1       4.141  -4.815  -0.400  0.00  0.00    -0.076 S 
BRANCH  19  20
ATOM     20  C   UNL     1       2.427  -4.238  -0.260  0.00  0.00    +0.173 C 
BRANCH  20  21
ATOM     21  C   UNL     1       2.411  -2.736  -0.138  0.00  0.00    +0.228 C 
ATOM     22  O   UNL     1       3.454  -2.116  -0.144  0.00  0.00    -0.275 OA
ATOM     23  N   UNL     1       1.239  -2.082  -0.021  0.00  0.00    -0.282 N 
ATOM     24  H   UNL     1       0.411  -2.580   0.065  0.00  0.00    +0.155 HD
BRANCH  23  25
ATOM     25  C   UNL     1       1.215  -0.680  -0.024  0.00  0.00    +0.072 A 
ATOM     26  C   UNL     1       2.237   0.031  -0.638  0.00  0.00    +0.029 A 
ATOM     27  C   UNL     1       2.213   1.412  -0.641  0.00  0.00    +0.043 A 
ATOM     28  C   UNL     1       1.170   2.090  -0.033  0.00  0.00    +0.161 A 
ATOM     29  C   UNL     1       0.147   1.384   0.581  0.00  0.00    +0.195 A 
ATOM     30  C   UNL     1       0.168  -0.001   0.586  0.00  0.00    +0.182 A 
ATOM     31  F   UNL     1      -0.829  -0.690   1.184  0.00  0.00    -0.200 F 
ATOM     32  F   UNL     1      -0.873   2.047   1.169  0.00  0.00    -0.199 F 
ATOM     33  F   UNL     1       1.150   3.441  -0.037  0.00  0.00    -0.202 F 
ENDBRANCH  23  25
ENDBRANCH  20  21
ENDBRANCH  19  20
ENDBRANCH  12  19
TORSDOF 6
