REMARK  Name = ZINC33121258
REMARK  12 active torsions:
REMARK  status: ('A' for Active; 'I' for Inactive)
REMARK    1  A    between atoms: C_1  and  C_2
REMARK    2  A    between atoms: C_4  and  C_32
REMARK    3  A    between atoms: C_5  and  S_9
REMARK    4  A    between atoms: C_7  and  C_8
REMARK    5  A    between atoms: S_9  and  N_12
REMARK    6  A    between atoms: N_12  and  C_13
REMARK    7  A    between atoms: C_16  and  N_26
REMARK    8  A    between atoms: C_17  and  C_19
REMARK    9  A    between atoms: N_21  and  C_22
REMARK   10  A    between atoms: C_22  and  C_23
REMARK   11  A    between atoms: C_23  and  C_24
REMARK   12  A    between atoms: C_23  and  C_25
REMARK                            x       y       z     vdW  Elec       q    Type
REMARK                         _______ _______ _______ _____ _____    ______ ____
ROOT
ATOM      1  C   UNL     1      -0.074   1.083   0.482  0.00  0.00    +0.049 A 
ATOM      2  C   UNL     1       1.185   1.609   0.753  0.00  0.00    +0.026 A 
ATOM      3  C   UNL     1       2.266   0.770   0.931  0.00  0.00    +0.026 A 
ATOM      4  C   UNL     1       2.104  -0.606   0.842  0.00  0.00    +0.042 A 
ATOM      5  C   UNL     1       0.837  -1.142   0.570  0.00  0.00    +0.059 A 
ATOM      6  C   UNL     1      -0.253  -0.285   0.390  0.00  0.00    +0.039 A 
ENDROOT
BRANCH   4   7
ATOM      7  N   UNL     1       3.195  -1.451   1.022  0.00  0.00    -0.333 N 
ATOM      8  C   UNL     1       4.252  -1.162   0.042  0.00  0.00    +0.086 C 
ATOM      9  C   UNL     1       5.397  -2.161   0.222  0.00  0.00    -0.063 C 
ATOM     10  N   UNL     1       5.915  -2.068   1.594  0.00  0.00    +0.381 N 
ATOM     11  C   UNL     1       4.858  -2.357   2.573  0.00  0.00    -0.063 C 
ATOM     12  C   UNL     1       3.713  -1.357   2.394  0.00  0.00    +0.086 C 
ATOM     13  H   UNL     1       6.730  -2.794   1.728  0.00  0.00    -0.086 HD
ATOM     14  H   UNL     1       6.296  -1.052   1.774  0.00  0.00    -0.086 HD
ENDBRANCH   4   7
BRANCH   5  15
ATOM     15  C   UNL     1       0.655  -2.602   0.473  0.00  0.00    +0.246 C 
ATOM     16  O   UNL     1       1.581  -3.349   0.726  0.00  0.00    -0.270 OA
ATOM     17  N   UNL     1      -0.538  -3.110   0.103  0.00  0.00    -0.311 N 
ATOM     18  H   UNL     1      -1.376  -2.435  -0.126  0.00  0.00    +0.149 HD
BRANCH  17  19
ATOM     19  C   UNL     1      -0.719  -4.561   0.007  0.00  0.00    +0.107 C 
BRANCH  19  20
ATOM     20  C   UNL     1      -2.153  -4.868  -0.429  0.00  0.00    -0.000 C 
ATOM     21  C   UNL     1      -2.307  -6.374  -0.650  0.00  0.00    +0.009 C 
ATOM     22  C   UNL     1      -3.125  -4.410   0.660  0.00  0.00    +0.009 C 
ENDBRANCH  19  20
ENDBRANCH  17  19
ENDBRANCH   5  15
BRANCH   1  23
ATOM     23  N   UNL     1      -1.164   1.943   0.297  0.00  0.00    -0.216 N 
ATOM     24  H   UNL     1      -1.846   1.792  -0.553  0.00  0.00    +0.174 HD
BRANCH  23  25
ATOM     25  S   UNL     1      -1.426   3.188   1.357  0.00  0.00    +0.073 S 
ATOM     26  O   UNL     1      -0.193   3.885   1.478  0.00  0.00    -0.150 OA
ATOM     27  O   UNL     1      -2.625   3.829   0.943  0.00  0.00    -0.150 OA
BRANCH  25  32
ATOM     28  C   UNL     1      -2.556   0.731   6.750  0.00  0.00    +0.044 C 
ATOM     29  C   UNL     1      -2.273   1.345   5.403  0.00  0.00    -0.047 A 
ATOM     30  C   UNL     1      -3.115   1.089   4.337  0.00  0.00    +0.009 A 
ATOM     31  C   UNL     1      -2.856   1.651   3.101  0.00  0.00    -0.024 A 
ATOM     32  C   UNL     1      -1.756   2.471   2.932  0.00  0.00    +0.112 A 
ATOM     33  C   UNL     1      -0.912   2.723   3.997  0.00  0.00    +0.032 A 
ATOM     34  C   UNL     1      -1.173   2.164   5.234  0.00  0.00    -0.046 A 
ATOM     35  C   UNL     1      -0.256   2.444   6.396  0.00  0.00    +0.044 C 
ATOM     36  C   UNL     1      -3.773   1.371   1.939  0.00  0.00    +0.046 C 
ENDBRANCH  25  32
ENDBRANCH  23  25
ENDBRANCH   1  23
TORSDOF 7
