REMARK  Name = ZINC26785831
REMARK  8 active torsions:
REMARK  status: ('A' for Active; 'I' for Inactive)
REMARK    1  A    between atoms: C_1  and  C_2
REMARK    2  A    between atoms: C_2  and  C_3
REMARK    3  A    between atoms: C_3  and  C_25
REMARK    4  A    between atoms: N_6  and  N_10
REMARK    5  A    between atoms: C_11  and  C_13
REMARK    6  A    between atoms: C_13  and  N_14
REMARK    7  A    between atoms: N_14  and  C_15
REMARK    8  A    between atoms: C_19  and  C_21
REMARK                            x       y       z     vdW  Elec       q    Type
REMARK                         _______ _______ _______ _____ _____    ______ ____
ROOT
ATOM      1  N   UNL     1       1.143   1.898   0.001  0.00  0.00    -0.222 N 
ATOM      2  C   UNL     1      -0.014   1.209   0.009  0.00  0.00    +0.247 C 
ATOM      3  O   UNL     1       0.002  -0.004   0.002  0.00  0.00    -0.273 OA
ATOM      4  H   UNL     1       1.129   2.998   0.007  0.00  0.00    +0.174 HD
ENDROOT
BRANCH   1   8
ATOM      5  C   UNL     1       4.368   0.284   0.574  0.00  0.00    +0.111 C 
ATOM      6  C   UNL     1       3.180   1.095   1.053  0.00  0.00    +0.263 C 
ATOM      7  O   UNL     1       3.000   1.543   2.165  0.00  0.00    -0.271 OA
ATOM      8  N   UNL     1       2.366   1.214  -0.014  0.00  0.00    -0.137 N 
ATOM      9  C   UNL     1       2.872   0.604  -1.091  0.00  0.00    +0.326 C 
ATOM     10  O   UNL     1       2.321   0.578  -2.174  0.00  0.00    -0.251 OA
ATOM     11  N   UNL     1       4.059   0.021  -0.842  0.00  0.00    -0.284 N 
ATOM     12  C   UNL     1       4.478  -1.028   1.353  0.00  0.00    +0.041 C 
ATOM     13  H   UNL     1       4.761  -0.557  -1.460  0.00  0.00    +0.151 HD
BRANCH   5  15
ATOM     14  C   UNL     1       6.799   0.351   0.002  0.00  0.00    +0.006 C 
ATOM     15  C   UNL     1       5.659   1.094   0.702  0.00  0.00    +0.032 C 
ENDBRANCH   5  15
ENDBRANCH   1   8
BRANCH   2  16
ATOM     16  C   UNL     1      -1.330   1.944   0.019  0.00  0.00    +0.199 C 
BRANCH  16  17
ATOM     17  N   UNL     1      -2.430   0.977   0.019  0.00  0.00    -0.335 N 
ATOM     18  H   UNL     1      -2.214  -0.101   0.012  0.00  0.00    +0.147 HD
BRANCH  17  19
ATOM     19  C   UNL     1      -3.754   1.425   0.028  0.00  0.00    +0.028 A 
ATOM     20  C   UNL     1      -4.026   2.789   0.042  0.00  0.00    +0.024 A 
ATOM     21  C   UNL     1      -5.333   3.237   0.046  0.00  0.00    +0.022 A 
ATOM     22  C   UNL     1      -6.378   2.334   0.046  0.00  0.00    +0.053 A 
ATOM     23  C   UNL     1      -6.115   0.962   0.037  0.00  0.00    +0.056 A 
ATOM     24  C   UNL     1      -4.795   0.510   0.028  0.00  0.00    +0.037 A 
ATOM     25 CL   UNL     1      -8.018   2.903   0.058  0.00  0.00    -0.083 Cl
BRANCH  23  26
ATOM     26  C   UNL     1      -7.231  -0.007   0.036  0.00  0.00    +0.243 C 
ATOM     27  O   UNL     1      -8.380   0.389   0.044  0.00  0.00    -0.270 OA
ATOM     28  N   UNL     1      -6.974  -1.330   0.027  0.00  0.00    -0.325 N 
ATOM     29  H   UNL     1      -7.804  -2.052   0.027  0.00  0.00    +0.145 HD
ATOM     30  H   UNL     1      -5.934  -1.689   0.020  0.00  0.00    +0.145 HD
ENDBRANCH  23  26
ENDBRANCH  17  19
ENDBRANCH  16  17
ENDBRANCH   2  16
TORSDOF 6
