REMARK  Name = ZINC00048567
REMARK  4 active torsions:
REMARK  status: ('A' for Active; 'I' for Inactive)
REMARK    1  A    between atoms: C_1  and  C_2
REMARK    2  A    between atoms: C_5  and  N_9
REMARK    3  A    between atoms: C_10  and  C_11
REMARK    4  A    between atoms: C_14  and  C_17
REMARK                            x       y       z     vdW  Elec       q    Type
REMARK                         _______ _______ _______ _____ _____    ______ ____
ROOT
ATOM      1  N   UNL     1      -1.171  -0.707   0.009  0.00  0.00    -0.255 NA
ATOM      2  C   UNL     1      -1.327  -1.722  -0.793  0.00  0.00    +0.119 C 
ENDROOT
BRANCH   1   7
ATOM      3  C   UNL     1       3.671   2.193  -0.021  0.00  0.00    +0.045 C 
ATOM      4  C   UNL     1       2.378   1.419  -0.013  0.00  0.00    -0.037 A 
ATOM      5  C   UNL     1       2.404   0.035  -0.021  0.00  0.00    +0.006 A 
ATOM      6  C   UNL     1       1.225  -0.680  -0.013  0.00  0.00    +0.028 A 
ATOM      7  C   UNL     1       0.002  -0.004   0.002  0.00  0.00    +0.065 A 
ATOM      8  C   UNL     1      -0.017   1.393   0.010  0.00  0.00    +0.042 A 
ATOM      9  C   UNL     1       1.171   2.095   0.002  0.00  0.00    +0.018 A 
ATOM     10  I   UNL     1       1.146   4.190   0.014  0.00  0.00    -0.043 I 
ENDBRANCH   1   7
BRANCH   2  11
ATOM     11  C   UNL     1      -2.590  -2.479  -0.785  0.00  0.00    -0.007 A 
ATOM     12  C   UNL     1      -3.620  -2.112   0.087  0.00  0.00    +0.010 A 
ATOM     13  C   UNL     1      -4.798  -2.814   0.090  0.00  0.00    +0.019 A 
ATOM     14  C   UNL     1      -4.965  -3.903  -0.771  0.00  0.00    +0.052 A 
ATOM     15  C   UNL     1      -3.934  -4.273  -1.639  0.00  0.00    +0.019 A 
ATOM     16  C   UNL     1      -2.758  -3.569  -1.646  0.00  0.00    +0.010 A 
BRANCH  14  17
ATOM     17  C   UNL     1      -6.193  -4.639  -0.763  0.00  0.00    +0.099 C 
ATOM     18  N   UNL     1      -7.168  -5.224  -0.757  0.00  0.00    -0.191 NA
ENDBRANCH  14  17
ENDBRANCH   2  11
TORSDOF 3
