REMARK  Name = ZINC13226258
REMARK  6 active torsions:
REMARK  status: ('A' for Active; 'I' for Inactive)
REMARK    1  A    between atoms: C_1  and  C_2
REMARK    2  A    between atoms: C_2  and  C_4
REMARK    3  A    between atoms: C_2  and  O_20
REMARK    4  A    between atoms: N_6  and  C_7
REMARK    5  A    between atoms: C_12  and  C_13
REMARK    6  A    between atoms: O_20  and  C_21
REMARK                            x       y       z     vdW  Elec       q    Type
REMARK                         _______ _______ _______ _____ _____    ______ ____
ROOT
ATOM      1  C   UNL     1      -0.772   3.377  -0.439  0.00  0.00    +0.258 C 
ATOM      2  O   UNL     1       0.296   3.780  -0.849  0.00  0.00    -0.271 OA
ATOM      3  N   UNL     1      -0.891   2.105  -0.007  0.00  0.00    -0.282 N 
ATOM      4  H   UNL     1      -1.761   1.757   0.242  0.00  0.00    +0.155 HD
ENDROOT
BRANCH   3   5
ATOM      5  C   UNL     1       0.237   1.291   0.081  0.00  0.00    +0.051 A 
ATOM      6  C   UNL     1       1.492   1.857   0.246  0.00  0.00    +0.073 A 
ATOM      7  C   UNL     1       2.611   1.044   0.327  0.00  0.00    +0.164 A 
ATOM      8  C   UNL     1       2.484  -0.340   0.243  0.00  0.00    +0.163 A 
ATOM      9  C   UNL     1       1.243  -0.917   0.080  0.00  0.00    +0.066 A 
ATOM     10  C   UNL     1       0.105  -0.105  -0.003  0.00  0.00    +0.088 A 
ATOM     11  O   UNL     1       3.599  -1.125   0.323  0.00  0.00    -0.488 OA
ATOM     12  C   UNL     1       4.251  -1.156   1.594  0.00  0.00    +0.232 C 
ATOM     13  C   UNL     1       5.204   0.020   1.741  0.00  0.00    +0.082 C 
ATOM     14  C   UNL     1       4.479   1.356   1.748  0.00  0.00    +0.232 C 
ATOM     15  O   UNL     1       3.846   1.597   0.490  0.00  0.00    -0.488 OA
BRANCH  10  16
ATOM     16  C   UNL     1      -1.224  -0.711  -0.178  0.00  0.00    +0.388 C 
ATOM     17  O   UNL     1      -2.197  -0.004  -0.348  0.00  0.00    -0.241 OA
ATOM     18  O   UNL     1      -1.362  -2.052  -0.150  0.00  0.00    -0.241 OA
ENDBRANCH  10  16
ENDBRANCH   3   5
BRANCH   1  20
ATOM     19  C   UNL     1      -2.388   4.539   1.040  0.00  0.00    +0.062 C 
ATOM     20  C   UNL     1      -1.965   4.297  -0.410  0.00  0.00    +0.256 C 
BRANCH  20  21
ATOM     21  O   UNL     1      -1.621   5.542  -1.021  0.00  0.00    -0.480 OA
BRANCH  21  22
ATOM     22  C   UNL     1      -2.597   6.177  -1.721  0.00  0.00    +0.122 A 
ATOM     23  C   UNL     1      -3.889   5.670  -1.728  0.00  0.00    +0.047 A 
ATOM     24  C   UNL     1      -4.881   6.320  -2.436  0.00  0.00    +0.023 A 
ATOM     25  C   UNL     1      -4.585   7.469  -3.147  0.00  0.00    +0.041 A 
ATOM     26  C   UNL     1      -3.297   7.973  -3.146  0.00  0.00    +0.023 A 
ATOM     27  C   UNL     1      -2.303   7.330  -2.435  0.00  0.00    +0.047 A 
ATOM     28 CL   UNL     1      -5.833   8.280  -4.042  0.00  0.00    -0.084 Cl
ENDBRANCH  21  22
ENDBRANCH  20  21
ENDBRANCH   1  20
TORSDOF 5
