REMARK  Name = ZINC40778329
REMARK  8 active torsions:
REMARK  status: ('A' for Active; 'I' for Inactive)
REMARK    1  A    between atoms: C_1  and  C_2
REMARK    2  A    between atoms: C_2  and  C_3
REMARK    3  A    between atoms: C_2  and  C_4
REMARK    4  A    between atoms: C_4  and  C_5
REMARK    5  A    between atoms: C_5  and  N_6
REMARK    6  A    between atoms: C_8  and  N_22
REMARK    7  A    between atoms: C_9  and  N_13
REMARK    8  A    between atoms: N_13  and  C_14
REMARK                            x       y       z     vdW  Elec       q    Type
REMARK                         _______ _______ _______ _____ _____    ______ ____
ROOT
ATOM      1  N   UNL     1      -2.819  -2.717   0.830  0.00  0.00    -0.327 N 
ATOM      2  C   UNL     1      -3.049  -4.041   0.475  0.00  0.00    +0.145 A 
ATOM      3  C   UNL     1      -4.348  -4.500   0.253  0.00  0.00    +0.105 A 
ATOM      4  C   UNL     1      -4.523  -5.839  -0.102  0.00  0.00    +0.149 A 
ATOM      5  N   UNL     1      -3.451  -6.621  -0.215  0.00  0.00    -0.219 NA
ATOM      6  C   UNL     1      -2.241  -6.147   0.003  0.00  0.00    +0.225 A 
ATOM      7  N   UNL     1      -2.033  -4.889   0.335  0.00  0.00    -0.219 NA
ATOM      8  H   UNL     1      -3.565  -2.106   0.930  0.00  0.00    +0.148 HD
ENDROOT
BRANCH   3   9
ATOM      9  N   UNL     1      -5.450  -3.640   0.385  0.00  0.00    -0.353 N 
ATOM     10  H   UNL     1      -5.314  -2.712   0.632  0.00  0.00    +0.143 HD
ATOM     11  H   UNL     1      -6.347  -3.973   0.228  0.00  0.00    +0.143 HD
ENDBRANCH   3   9
BRANCH   4  12
ATOM     12  N   UNL     1      -5.796  -6.348  -0.334  0.00  0.00    -0.297 N 
ATOM     13  H   UNL     1      -6.562  -5.753  -0.343  0.00  0.00    +0.154 HD
BRANCH  12  14
ATOM     14  C   UNL     1      -5.972  -7.718  -0.552  0.00  0.00    +0.052 A 
ATOM     15  C   UNL     1      -5.037  -8.625  -0.071  0.00  0.00    +0.044 A 
ATOM     16  C   UNL     1      -5.215  -9.979  -0.289  0.00  0.00    +0.043 A 
ATOM     17  C   UNL     1      -6.322 -10.429  -0.987  0.00  0.00    +0.021 A 
ATOM     18  C   UNL     1      -7.254  -9.528  -1.467  0.00  0.00    +0.023 A 
ATOM     19  C   UNL     1      -7.085  -8.174  -1.248  0.00  0.00    +0.062 A 
ATOM     20 CL   UNL     1      -8.260  -7.044  -1.846  0.00  0.00    -0.082 Cl
ATOM     21 CL   UNL     1      -4.047 -11.114   0.313  0.00  0.00    -0.083 Cl
ENDBRANCH  12  14
ENDBRANCH   4  12
BRANCH   1  22
ATOM     22  C   UNL     1      -1.450  -2.246   1.054  0.00  0.00    +0.103 C 
BRANCH  22  23
ATOM     23  C   UNL     1      -1.477  -0.763   1.430  0.00  0.00    +0.021 C 
BRANCH  23  25
ATOM     24  C   UNL     1      -0.062   1.238   1.918  0.00  0.00    +0.007 C 
ATOM     25  C   UNL     1      -0.047  -0.271   1.664  0.00  0.00    -0.016 C 
ATOM     26  C   UNL     1       0.547  -0.986   2.879  0.00  0.00    +0.007 C 
ENDBRANCH  23  25
ENDBRANCH  22  23
ENDBRANCH   1  22
TORSDOF 6
