REMARK  Name = ZINC20322685
REMARK  14 active torsions:
REMARK  status: ('A' for Active; 'I' for Inactive)
REMARK    1  A    between atoms: C_1  and  C_2
REMARK    2  A    between atoms: C_3  and  S_9
REMARK    3  A    between atoms: C_4  and  C_8
REMARK    4  A    between atoms: N_5  and  C_7
REMARK    5  A    between atoms: S_9  and  N_12
REMARK    6  A    between atoms: N_12  and  C_13
REMARK    7  A    between atoms: N_12  and  C_25
REMARK    8  A    between atoms: C_13  and  C_14
REMARK    9  A    between atoms: N_16  and  C_17
REMARK   10  A    between atoms: C_17  and  C_18
REMARK   11  A    between atoms: C_18  and  C_19
REMARK   12  A    between atoms: C_28  and  C_31
REMARK   13  A    between atoms: C_31  and  C_32
REMARK   14  A    between atoms: C_31  and  C_33
REMARK                            x       y       z     vdW  Elec       q    Type
REMARK                         _______ _______ _______ _____ _____    ______ ____
ROOT
ATOM      1  N   UNL     1      -2.360   3.134   1.924  0.00  0.00    -0.194 N 
ENDROOT
BRANCH   1   2
ATOM      2  C   UNL     1      -2.178   4.356   2.575  0.00  0.00    +0.052 A 
ATOM      3  C   UNL     1      -1.004   5.076   2.390  0.00  0.00    +0.025 A 
ATOM      4  C   UNL     1      -0.829   6.286   3.031  0.00  0.00    +0.006 A 
ATOM      5  C   UNL     1      -1.817   6.777   3.866  0.00  0.00    -0.045 A 
ATOM      6  C   UNL     1      -2.984   6.061   4.057  0.00  0.00    +0.006 A 
ATOM      7  C   UNL     1      -3.167   4.852   3.414  0.00  0.00    +0.025 A 
BRANCH   5   8
ATOM      8  C   UNL     1      -1.621   8.096   4.569  0.00  0.00    +0.013 C 
ATOM      9  C   UNL     1      -0.384   8.017   5.465  0.00  0.00    +0.012 C 
ATOM     10  C   UNL     1      -1.428   9.203   3.530  0.00  0.00    +0.012 C 
ENDBRANCH   5   8
ENDBRANCH   1   2
BRANCH   1  11
ATOM     11  S   UNL     1      -1.995   2.991   0.315  0.00  0.00    +0.079 S 
ATOM     12  O   UNL     1      -1.939   1.599   0.033  0.00  0.00    -0.150 OA
ATOM     13  O   UNL     1      -0.901   3.863   0.067  0.00  0.00    -0.150 OA
BRANCH  11  16
ATOM     14  C   UNL     1      -2.581   6.095  -0.724  0.00  0.00    +0.069 C 
ATOM     15  C   UNL     1      -3.536   4.961  -0.992  0.00  0.00    +0.087 A 
ATOM     16  C   UNL     1      -3.366   3.632  -0.589  0.00  0.00    +0.152 A 
ATOM     17  C   UNL     1      -4.436   2.926  -1.020  0.00  0.00    +0.063 A 
ATOM     18  N   UNL     1      -5.255   3.777  -1.673  0.00  0.00    -0.269 N 
ATOM     19  N   UNL     1      -4.668   5.049  -1.642  0.00  0.00    -0.174 NA
ATOM     20  C   UNL     1      -6.532   3.432  -2.302  0.00  0.00    +0.172 C 
ATOM     21  C   UNL     1      -4.671   1.452  -0.809  0.00  0.00    +0.067 C 
ENDBRANCH  11  16
ENDBRANCH   1  11
BRANCH   1  22
ATOM     22  C   UNL     1      -2.872   1.979   2.664  0.00  0.00    +0.227 C 
BRANCH  22  23
ATOM     23  C   UNL     1      -1.731   1.277   3.354  0.00  0.00    +0.232 C 
ATOM     24  O   UNL     1      -0.600   1.700   3.238  0.00  0.00    -0.274 OA
ATOM     25  N   UNL     1      -1.966   0.179   4.099  0.00  0.00    -0.314 N 
ATOM     26  H   UNL     1      -2.992  -0.205   4.204  0.00  0.00    +0.149 HD
BRANCH  25  27
ATOM     27  C   UNL     1      -0.857  -0.503   4.769  0.00  0.00    +0.108 C 
BRANCH  27  28
ATOM     28  C   UNL     1      -1.392  -1.710   5.543  0.00  0.00    +0.049 C 
BRANCH  28  29
ATOM     29  C   UNL     1      -0.251  -2.412   6.232  0.00  0.00    -0.072 C 
ATOM     30  C   UNL     1      -0.006  -2.105   7.466  0.00  0.00    -0.028 C 
ATOM     31  C   UNL     1       1.100  -2.711   8.279  0.00  0.00    +0.027 C 
ATOM     32  C   UNL     1       1.598  -3.997   7.617  0.00  0.00    +0.004 C 
ATOM     33  C   UNL     1       1.868  -3.707   6.135  0.00  0.00    +0.005 C 
ATOM     34  C   UNL     1       0.528  -3.427   5.448  0.00  0.00    +0.030 C 
ENDBRANCH  28  29
ENDBRANCH  27  28
ENDBRANCH  25  27
ENDBRANCH  22  23
ENDBRANCH   1  22
TORSDOF 9
