REMARK  Name = ZINC15290869
REMARK  4 active torsions:
REMARK  status: ('A' for Active; 'I' for Inactive)
REMARK    1  A    between atoms: C_2  and  N_9
REMARK    2  A    between atoms: N_9  and  C_10
REMARK    3  A    between atoms: C_10  and  C_11
REMARK    4  A    between atoms: N_16  and  C_17
REMARK                            x       y       z     vdW  Elec       q    Type
REMARK                         _______ _______ _______ _____ _____    ______ ____
ROOT
ATOM      1  C   UNL     1       2.265  -4.276  -0.042  0.00  0.00    +0.237 C 
ATOM      2  O   UNL     1       1.128  -4.698  -0.033  0.00  0.00    -0.274 OA
ATOM      3  N   UNL     1       3.303  -5.135  -0.056  0.00  0.00    -0.239 N 
ATOM      4  C   UNL     1       3.077  -6.464  -0.060  0.00  0.00    +0.306 C 
ATOM      5  O   UNL     1       1.938  -6.887  -0.051  0.00  0.00    -0.252 OA
ATOM      6  N   UNL     1       4.115  -7.323  -0.075  0.00  0.00    -0.295 N 
ATOM      7  H   UNL     1       4.212  -4.797  -0.063  0.00  0.00    +0.159 HD
ATOM      8  H   UNL     1       5.025  -6.986  -0.082  0.00  0.00    +0.151 HD
ENDROOT
BRANCH   6   9
ATOM      9  C   UNL     1       3.870  -8.768  -0.080  0.00  0.00    +0.097 C 
ATOM     10  C   UNL     1       3.635  -9.241  -1.524  0.00  0.00    +0.046 C 
ATOM     11  C   UNL     1       3.691 -10.795  -1.540  0.00  0.00    +0.168 C 
ATOM     12  S   UNL     1       5.104 -11.093  -0.396  0.00  0.00    -0.029 S 
ATOM     13  O   UNL     1       6.303 -11.182  -1.154  0.00  0.00    -0.174 OA
ATOM     14  O   UNL     1       4.762 -12.143   0.498  0.00  0.00    -0.174 OA
ATOM     15  C   UNL     1       5.095  -9.499   0.522  0.00  0.00    +0.188 C 
ENDBRANCH   6   9
BRANCH   1  16
ATOM     16  C   UNL     1       2.517  -2.790  -0.036  0.00  0.00    +0.198 C 
BRANCH  16  17
ATOM     17  N   UNL     1       1.237  -2.077  -0.020  0.00  0.00    -0.335 N 
ATOM     18  H   UNL     1       0.405  -2.575  -0.015  0.00  0.00    +0.147 HD
BRANCH  17  20
ATOM     19  C   UNL     1       2.406   0.034  -0.021  0.00  0.00    +0.043 A 
ATOM     20  C   UNL     1       1.215  -0.681  -0.013  0.00  0.00    +0.030 A 
ATOM     21  C   UNL     1       0.002  -0.004   0.002  0.00  0.00    +0.043 A 
ATOM     22  C   UNL     1      -0.017   1.378   0.010  0.00  0.00    +0.044 A 
ATOM     23  C   UNL     1       1.171   2.087   0.002  0.00  0.00    +0.040 A 
ATOM     24  C   UNL     1       2.381   1.416  -0.013  0.00  0.00    +0.044 A 
ATOM     25 CL   UNL     1       3.869   2.310  -0.022  0.00  0.00    -0.083 Cl
ATOM     26 CL   UNL     1      -1.532   2.225   0.021  0.00  0.00    -0.083 Cl
ENDBRANCH  17  20
ENDBRANCH  16  17
ENDBRANCH   1  16
TORSDOF 4
