REMARK  Name = ZINC08769172
REMARK  7 active torsions:
REMARK  status: ('A' for Active; 'I' for Inactive)
REMARK    1  A    between atoms: C_1  and  C_2
REMARK    2  A    between atoms: C_5  and  C_8
REMARK    3  A    between atoms: C_8  and  C_29
REMARK    4  A    between atoms: N_11  and  C_15
REMARK    5  A    between atoms: C_15  and  C_16
REMARK    6  A    between atoms: C_16  and  C_17
REMARK    7  A    between atoms: C_17  and  N_18
REMARK                            x       y       z     vdW  Elec       q    Type
REMARK                         _______ _______ _______ _____ _____    ______ ____
ROOT
ATOM      1  C   UNL     1      -3.361  -4.738   4.904  0.00  0.00    +0.135 C 
ATOM      2  C   UNL     1      -3.680  -4.125   3.554  0.00  0.00    +0.251 C 
ATOM      3  O   UNL     1      -4.734  -3.640   3.201  0.00  0.00    -0.272 OA
ATOM      4  N   UNL     1      -2.549  -4.231   2.829  0.00  0.00    -0.224 N 
ATOM      5  C   UNL     1      -1.572  -4.824   3.524  0.00  0.00    +0.310 C 
ATOM      6  O   UNL     1      -0.460  -5.035   3.081  0.00  0.00    -0.252 OA
ATOM      7  N   UNL     1      -1.956  -5.157   4.770  0.00  0.00    -0.281 N 
ATOM      8  C   UNL     1      -3.513  -3.699   6.016  0.00  0.00    +0.047 C 
ATOM      9  H   UNL     1      -1.414  -5.593   5.446  0.00  0.00    +0.152 HD
ENDROOT
BRANCH   1  14
ATOM     10  C   UNL     1      -6.757  -9.302   5.918  0.00  0.00    +0.044 C 
ATOM     11  C   UNL     1      -5.872  -8.112   5.654  0.00  0.00    -0.050 A 
ATOM     12  C   UNL     1      -4.599  -8.064   6.191  0.00  0.00    +0.004 A 
ATOM     13  C   UNL     1      -3.787  -6.972   5.948  0.00  0.00    +0.006 A 
ATOM     14  C   UNL     1      -4.247  -5.928   5.168  0.00  0.00    -0.015 A 
ATOM     15  C   UNL     1      -5.521  -5.973   4.635  0.00  0.00    +0.006 A 
ATOM     16  C   UNL     1      -6.332  -7.067   4.873  0.00  0.00    +0.004 A 
ENDBRANCH   1  14
BRANCH   4  17
ATOM     17  C   UNL     1      -2.409  -3.760   1.449  0.00  0.00    +0.120 C 
BRANCH  17  18
ATOM     18  C   UNL     1      -1.930  -2.307   1.452  0.00  0.00    +0.041 C 
BRANCH  18  19
ATOM     19  C   UNL     1      -1.784  -1.816   0.010  0.00  0.00    +0.128 C 
BRANCH  19  20
ATOM     20  N   UNL     1      -1.326  -0.425   0.012  0.00  0.00    -0.292 N 
ATOM     21  C   UNL     1       0.002  -0.004   0.002  0.00  0.00    +0.070 A 
ATOM     22  C   UNL     1       1.214  -0.678  -0.013  0.00  0.00    +0.028 A 
ATOM     23  C   UNL     1       2.397   0.035  -0.020  0.00  0.00    +0.002 A 
ATOM     24  C   UNL     1       2.378   1.419  -0.012  0.00  0.00    +0.002 A 
ATOM     25  C   UNL     1       1.176   2.099   0.002  0.00  0.00    +0.028 A 
ATOM     26  C   UNL     1      -0.017   1.392   0.010  0.00  0.00    +0.067 A 
ATOM     27  N   UNL     1      -1.355   1.776   0.030  0.00  0.00    -0.306 N 
ATOM     28  H   UNL     1      -1.684   2.689   0.040  0.00  0.00    +0.170 HD
ATOM     29  C   UNL     1      -2.116   0.665   0.026  0.00  0.00    +0.328 A 
ATOM     30  O   UNL     1      -3.333   0.649   0.037  0.00  0.00    -0.247 OA
ENDBRANCH  19  20
ENDBRANCH  18  19
ENDBRANCH  17  18
ENDBRANCH   4  17
TORSDOF 5
