REMARK  Name = ZINC01249966
REMARK  6 active torsions:
REMARK  status: ('A' for Active; 'I' for Inactive)
REMARK    1  A    between atoms: C_1  and  C_2
REMARK    2  A    between atoms: C_2  and  C_28
REMARK    3  A    between atoms: C_10  and  S_14
REMARK    4  A    between atoms: S_14  and  C_15
REMARK    5  A    between atoms: C_15  and  C_16
REMARK    6  A    between atoms: C_16  and  C_18
REMARK                            x       y       z     vdW  Elec       q    Type
REMARK                         _______ _______ _______ _____ _____    ______ ____
ROOT
ATOM      1  C   UNL     1      10.818   3.441  -1.976  0.00  0.00    +0.041 C 
ATOM      2  C   UNL     1      10.996   3.126  -0.490  0.00  0.00    +0.070 C 
ATOM      3  C   UNL     1       9.970   2.075  -0.061  0.00  0.00    +0.090 C 
ATOM      4  C   UNL     1       8.588   2.681  -0.061  0.00  0.00    +0.052 A 
ATOM      5  C   UNL     1       8.413   4.058  -0.056  0.00  0.00    +0.000 A 
ATOM      6  C   UNL     1       7.146   4.588  -0.042  0.00  0.00    +0.022 A 
ATOM      7  C   UNL     1       6.059   3.710  -0.036  0.00  0.00    +0.059 A 
ATOM      8  C   UNL     1       4.717   4.167  -0.021  0.00  0.00    +0.130 A 
ATOM      9  N   UNL     1       3.747   3.264  -0.016  0.00  0.00    -0.207 NA
ATOM     10  C   UNL     1       4.017   1.961  -0.026  0.00  0.00    +0.192 A 
ATOM     11  N   UNL     1       5.248   1.484  -0.035  0.00  0.00    -0.202 NA
ATOM     12  C   UNL     1       6.300   2.314  -0.045  0.00  0.00    +0.166 A 
ATOM     13  N   UNL     1       7.552   1.862  -0.058  0.00  0.00    -0.232 NA
ATOM     14  N   UNL     1       4.429   5.514  -0.011  0.00  0.00    -0.342 N 
ATOM     15  C   UNL     1       9.586   5.004  -0.073  0.00  0.00    +0.197 C 
ATOM     16  O   UNL     1      10.783   4.312   0.282  0.00  0.00    -0.369 OA
ATOM     17  C   UNL     1      12.411   2.599  -0.243  0.00  0.00    +0.041 C 
ATOM     18  H   UNL     1       3.506   5.812  -0.001  0.00  0.00    +0.144 HD
ATOM     19  H   UNL     1       5.149   6.164  -0.014  0.00  0.00    +0.144 HD
ENDROOT
BRANCH  10  20
ATOM     20  S   UNL     1       2.672   0.822  -0.019  0.00  0.00    -0.078 S 
BRANCH  20  21
ATOM     21  C   UNL     1       1.280   1.980   0.001  0.00  0.00    +0.157 C 
BRANCH  21  22
ATOM     22  C   UNL     1      -0.014   1.208   0.009  0.00  0.00    +0.173 C 
ATOM     23  O   UNL     1       0.002  -0.004   0.002  0.00  0.00    -0.291 OA
BRANCH  22  24
ATOM     24  C   UNL     1      -1.298   1.927   0.019  0.00  0.00    +0.018 A 
ATOM     25  C   UNL     1      -1.321   3.325   0.032  0.00  0.00    +0.013 A 
ATOM     26  C   UNL     1      -2.527   3.991   0.036  0.00  0.00    +0.020 A 
ATOM     27  C   UNL     1      -3.716   3.279   0.038  0.00  0.00    +0.041 A 
ATOM     28  C   UNL     1      -3.701   1.893   0.030  0.00  0.00    +0.020 A 
ATOM     29  C   UNL     1      -2.502   1.214   0.021  0.00  0.00    +0.013 A 
ATOM     30 CL   UNL     1      -5.231   4.126   0.050  0.00  0.00    -0.084 Cl
ENDBRANCH  22  24
ENDBRANCH  21  22
ENDBRANCH  20  21
ENDBRANCH  10  20
TORSDOF 4
