REMARK  Name = ZINC14625310
REMARK  9 active torsions:
REMARK  status: ('A' for Active; 'I' for Inactive)
REMARK    1  A    between atoms: C_1  and  C_2
REMARK    2  A    between atoms: C_2  and  C_3
REMARK    3  A    between atoms: C_3  and  C_4
REMARK    4  A    between atoms: C_4  and  N_5
REMARK    5  A    between atoms: C_6  and  N_32
REMARK    6  A    between atoms: C_7  and  N_14
REMARK    7  A    between atoms: N_14  and  C_15
REMARK    8  A    between atoms: C_15  and  C_16
REMARK    9  A    between atoms: C_22  and  C_24
REMARK                            x       y       z     vdW  Elec       q    Type
REMARK                         _______ _______ _______ _____ _____    ______ ____
ROOT
ATOM      1  N   UNL     1      -1.325  -1.944   0.115  0.00  0.00    -0.256 N 
ATOM      2  C   UNL     1      -1.421  -0.621  -0.121  0.00  0.00    +0.251 C 
ATOM      3  O   UNL     1      -0.416   0.062  -0.173  0.00  0.00    -0.270 OA
ENDROOT
BRANCH   1   6
ATOM      4  N   UNL     1      -4.419  -3.612  -0.956  0.00  0.00    -0.280 N 
ATOM      5  C   UNL     1      -3.293  -2.822  -0.994  0.00  0.00    +0.127 A 
ATOM      6  C   UNL     1      -2.486  -2.745   0.123  0.00  0.00    +0.140 A 
ATOM      7  C   UNL     1      -2.839  -3.484   1.268  0.00  0.00    +0.277 A 
ATOM      8  O   UNL     1      -2.141  -3.438   2.267  0.00  0.00    -0.266 OA
ATOM      9  N   UNL     1      -3.955  -4.238   1.254  0.00  0.00    -0.273 N 
ATOM     10  H   UNL     1      -4.211  -4.758   2.070  0.00  0.00    +0.173 HD
ATOM     11  C   UNL     1      -4.729  -4.301   0.156  0.00  0.00    +0.331 A 
ATOM     12  O   UNL     1      -5.728  -4.994   0.169  0.00  0.00    -0.246 OA
BRANCH   5  13
ATOM     13  N   UNL     1      -2.976  -2.117  -2.131  0.00  0.00    -0.343 N 
ATOM     14  H   UNL     1      -2.120  -1.667  -2.199  0.00  0.00    +0.144 HD
ATOM     15  H   UNL     1      -3.609  -2.070  -2.865  0.00  0.00    +0.144 HD
ENDBRANCH   5  13
BRANCH   4  16
ATOM     16  C   UNL     1      -5.284  -3.703  -2.135  0.00  0.00    +0.128 C 
BRANCH  16  17
ATOM     17  C   UNL     1      -4.815  -4.855  -3.025  0.00  0.00    +0.021 C 
BRANCH  17  19
ATOM     18  C   UNL     1      -5.250  -6.103  -5.145  0.00  0.00    +0.004 C 
ATOM     19  C   UNL     1      -5.719  -4.950  -4.255  0.00  0.00    -0.002 C 
ENDBRANCH  17  19
ENDBRANCH  16  17
ENDBRANCH   4  16
ENDBRANCH   1   6
BRANCH   2  20
ATOM     20  C   UNL     1      -2.747   0.001  -0.318  0.00  0.00    +0.039 A 
ATOM     21  C   UNL     1      -3.884  -0.578   0.250  0.00  0.00    +0.014 A 
ATOM     22  C   UNL     1      -5.119   0.006   0.064  0.00  0.00    +0.022 A 
ATOM     23  C   UNL     1      -5.234   1.165  -0.686  0.00  0.00    +0.059 A 
ATOM     24  C   UNL     1      -4.110   1.745  -1.252  0.00  0.00    +0.060 A 
ATOM     25  C   UNL     1      -2.868   1.169  -1.073  0.00  0.00    +0.034 A 
ATOM     26 CL   UNL     1      -4.263   3.198  -2.190  0.00  0.00    -0.082 Cl
ATOM     27 CL   UNL     1      -6.792   1.895  -0.915  0.00  0.00    -0.082 Cl
ENDBRANCH   2  20
BRANCH   1  28
ATOM     28  C   UNL     1      -0.015  -2.551   0.365  0.00  0.00    +0.149 C 
BRANCH  28  29
ATOM     29  C   UNL     1       0.544  -3.087  -0.927  0.00  0.00    -0.030 A 
ATOM     30  C   UNL     1       0.203  -4.357  -1.354  0.00  0.00    +0.005 A 
ATOM     31  C   UNL     1       0.712  -4.847  -2.542  0.00  0.00    +0.000 A 
ATOM     32  C   UNL     1       1.571  -4.072  -3.298  0.00  0.00    +0.000 A 
ATOM     33  C   UNL     1       1.917  -2.804  -2.869  0.00  0.00    +0.000 A 
ATOM     34  C   UNL     1       1.403  -2.312  -1.683  0.00  0.00    +0.005 A 
ENDBRANCH  28  29
ENDBRANCH   1  28
TORSDOF 8
