REMARK  Name = ZINC13122698
REMARK  6 active torsions:
REMARK  status: ('A' for Active; 'I' for Inactive)
REMARK    1  A    between atoms: C_1  and  C_2
REMARK    2  A    between atoms: C_2  and  O_3
REMARK    3  A    between atoms: C_8  and  C_21
REMARK    4  A    between atoms: C_11  and  C_15
REMARK    5  A    between atoms: C_24  and  O_27
REMARK    6  A    between atoms: O_27  and  C_28
REMARK                            x       y       z     vdW  Elec       q    Type
REMARK                         _______ _______ _______ _____ _____    ______ ____
ROOT
ATOM      1  C   UNL     1      -0.018   1.503   0.010  0.00  0.00    +0.107 C 
ATOM      2  C   UNL     1       0.002  -0.004   0.002  0.00  0.00    +0.164 C 
ATOM      3  N   UNL     1       0.000  -0.648  -1.127  0.00  0.00    -0.298 N 
ATOM      4  C   UNL     1       0.019  -2.020  -1.134  0.00  0.00    +0.251 A 
ATOM      5  N   UNL     1       0.024  -2.781  -2.212  0.00  0.00    -0.129 NA
ATOM      6  N   UNL     1       0.042  -4.103  -1.769  0.00  0.00    -0.219 N 
ATOM      7  C   UNL     1       0.046  -5.343  -2.539  0.00  0.00    +0.165 C 
ATOM      8  C   UNL     1       0.360  -6.503  -1.634  0.00  0.00    +0.028 C 
ATOM      9  C   UNL     1       0.366  -6.415  -0.311  0.00  0.00    +0.039 C 
ATOM     10  N   UNL     1       0.080  -5.215   0.354  0.00  0.00    -0.283 N 
ATOM     11  C   UNL     1       0.052  -4.059  -0.412  0.00  0.00    +0.220 A 
ATOM     12  N   UNL     1       0.040  -2.808  -0.044  0.00  0.00    -0.178 NA
ATOM     13  H   UNL     1      -0.015  -0.158  -1.964  0.00  0.00    +0.171 HD
ATOM     14  H   UNL     1      -0.090  -5.194   1.309  0.00  0.00    +0.155 HD
ENDROOT
BRANCH   9  15
ATOM     15  C   UNL     1       0.682  -7.621   0.488  0.00  0.00    -0.004 A 
ATOM     16  C   UNL     1       0.975  -8.826  -0.150  0.00  0.00    +0.010 A 
ATOM     17  C   UNL     1       1.269  -9.946   0.600  0.00  0.00    +0.001 A 
ATOM     18  C   UNL     1       1.273  -9.876   1.982  0.00  0.00    +0.000 A 
ATOM     19  C   UNL     1       0.984  -8.683   2.620  0.00  0.00    +0.001 A 
ATOM     20  C   UNL     1       0.694  -7.554   1.881  0.00  0.00    +0.010 A 
ENDBRANCH   9  15
BRANCH   7  21
ATOM     21  C   UNL     1      -1.310  -5.550  -3.163  0.00  0.00    -0.019 A 
ATOM     22  C   UNL     1      -2.431  -5.651  -2.360  0.00  0.00    +0.009 A 
ATOM     23  C   UNL     1      -3.675  -5.841  -2.930  0.00  0.00    +0.046 A 
ATOM     24  C   UNL     1      -3.800  -5.929  -4.309  0.00  0.00    +0.120 A 
ATOM     25  C   UNL     1      -2.674  -5.826  -5.112  0.00  0.00    +0.046 A 
ATOM     26  C   UNL     1      -1.432  -5.631  -4.538  0.00  0.00    +0.009 A 
BRANCH  24  27
ATOM     27  O   UNL     1      -5.023  -6.115  -4.871  0.00  0.00    -0.495 OA
ATOM     28  C   UNL     1      -5.075  -6.197  -6.297  0.00  0.00    +0.277 C 
ENDBRANCH  24  27
ENDBRANCH   7  21
BRANCH   2  29
ATOM     29  O   UNL     1       0.022  -0.685   1.166  0.00  0.00    -0.497 OA
ATOM     30  H   UNL     1       0.022  -0.120   1.952  0.00  0.00    +0.293 HD
ENDBRANCH   2  29
TORSDOF 4
