REMARK  Name = ZINC64739916
REMARK  10 active torsions:
REMARK  status: ('A' for Active; 'I' for Inactive)
REMARK    1  A    between atoms: C_1  and  N_2
REMARK    2  A    between atoms: C_11  and  C_13
REMARK    3  A    between atoms: N_15  and  C_16
REMARK    4  A    between atoms: C_16  and  C_17
REMARK    5  A    between atoms: C_17  and  C_18
REMARK    6  A    between atoms: C_17  and  N_26
REMARK    7  A    between atoms: C_21  and  O_24
REMARK    8  A    between atoms: O_24  and  C_25
REMARK    9  A    between atoms: N_26  and  C_27
REMARK   10  A    between atoms: N_26  and  C_28
REMARK                            x       y       z     vdW  Elec       q    Type
REMARK                         _______ _______ _______ _____ _____    ______ ____
ROOT
ATOM      1  C   UNL     1       0.245  -2.880   4.722  0.00  0.00    +0.244 C 
ATOM      2  O   UNL     1      -0.124  -4.036   4.652  0.00  0.00    -0.270 OA
ATOM      3  N   UNL     1       0.735  -2.398   5.881  0.00  0.00    -0.313 N 
ATOM      4  H   UNL     1       1.030  -1.476   5.938  0.00  0.00    +0.149 HD
ENDROOT
BRANCH   1  15
ATOM      5  C   UNL     1      -0.285   1.904   0.304  0.00  0.00    +0.130 C 
ATOM      6  N   UNL     1      -0.086   0.457   0.186  0.00  0.00    -0.323 N 
ATOM      7  C   UNL     1       0.035  -0.186  -1.131  0.00  0.00    +0.200 C 
ATOM      8  C   UNL     1      -0.759  -1.467  -1.128  0.00  0.00    +0.235 C 
ATOM      9  O   UNL     1      -1.240  -1.877  -2.163  0.00  0.00    -0.274 OA
ATOM     10  N   UNL     1      -0.941  -2.161   0.011  0.00  0.00    -0.283 N 
ATOM     11  C   UNL     1      -0.437  -1.682   1.227  0.00  0.00    +0.055 A 
ATOM     12  C   UNL     1      -0.000  -0.353   1.319  0.00  0.00    +0.051 A 
ATOM     13  C   UNL     1       0.502   0.143   2.513  0.00  0.00    +0.026 A 
ATOM     14  C   UNL     1       0.581  -0.676   3.619  0.00  0.00    +0.015 A 
ATOM     15  C   UNL     1       0.157  -2.004   3.538  0.00  0.00    +0.039 A 
ATOM     16  C   UNL     1      -0.362  -2.506   2.332  0.00  0.00    +0.038 A 
ATOM     17  H   UNL     1      -1.426  -3.001  -0.010  0.00  0.00    +0.155 HD
ENDBRANCH   1  15
BRANCH   3  18
ATOM     18  C   UNL     1       0.823  -3.268   7.057  0.00  0.00    +0.094 C 
BRANCH  18  19
ATOM     19  C   UNL     1       1.512  -2.516   8.198  0.00  0.00    -0.021 C 
BRANCH  19  20
ATOM     20  C   UNL     1       0.659  -1.345   8.615  0.00  0.00    -0.059 A 
ATOM     21  C   UNL     1      -0.423  -1.544   9.452  0.00  0.00    +0.005 A 
ATOM     22  C   UNL     1      -1.207  -0.472   9.835  0.00  0.00    +0.046 A 
ATOM     23  C   UNL     1      -0.906   0.803   9.380  0.00  0.00    +0.120 A 
ATOM     24  C   UNL     1       0.180   1.000   8.540  0.00  0.00    +0.046 A 
ATOM     25  C   UNL     1       0.964  -0.074   8.164  0.00  0.00    +0.005 A 
BRANCH  23  26
ATOM     26  O   UNL     1      -1.676   1.859   9.755  0.00  0.00    -0.495 OA
ATOM     27  C   UNL     1      -1.307   3.143   9.248  0.00  0.00    +0.277 C 
ENDBRANCH  23  26
ENDBRANCH  19  20
BRANCH  19  28
ATOM     28  N   UNL     1       1.694  -3.421   9.341  0.00  0.00    +0.382 N 
ATOM     29  C   UNL     1       2.527  -4.561   8.934  0.00  0.00    -0.096 C 
ATOM     30  C   UNL     1       2.354  -2.698  10.436  0.00  0.00    -0.096 C 
ATOM     31  H   UNL     1       0.795  -3.755   9.652  0.00  0.00    -0.082 HD
ENDBRANCH  19  28
ENDBRANCH  18  19
ENDBRANCH   3  18
TORSDOF 6
