REMARK  Name = ZINC40403922
REMARK  12 active torsions:
REMARK  status: ('A' for Active; 'I' for Inactive)
REMARK    1  A    between atoms: C_1  and  C_2
REMARK    2  A    between atoms: C_2  and  C_3
REMARK    3  A    between atoms: C_3  and  C_5
REMARK    4  A    between atoms: C_3  and  N_6
REMARK    5  A    between atoms: N_6  and  C_7
REMARK    6  A    between atoms: N_6  and  C_17
REMARK    7  A    between atoms: C_7  and  C_8
REMARK    8  A    between atoms: C_17  and  C_18
REMARK    9  A    between atoms: C_21  and  C_23
REMARK   10  A    between atoms: C_23  and  C_24
REMARK   11  A    between atoms: C_23  and  C_30
REMARK   12  A    between atoms: C_23  and  O_36
REMARK                            x       y       z     vdW  Elec       q    Type
REMARK                         _______ _______ _______ _____ _____    ______ ____
ROOT
ATOM      1  C   UNL     1       3.211  -1.822   2.293  0.00  0.00    +0.089 A 
ATOM      2  C   UNL     1       4.201  -2.142   1.440  0.00  0.00    +0.043 A 
ATOM      3  C   UNL     1       4.453  -3.524   1.606  0.00  0.00    +0.048 A 
ATOM      4  C   UNL     1       3.603  -3.965   2.551  0.00  0.00    +0.146 A 
ATOM      5  O   UNL     1       2.857  -2.928   2.967  0.00  0.00    -0.463 OA
ENDROOT
BRANCH   1   6
ATOM      6  C   UNL     1       2.607  -0.452   2.468  0.00  0.00    -0.002 C 
BRANCH   6   7
ATOM      7  N   UNL     1       1.877  -0.081   1.248  0.00  0.00    +0.389 N 
ATOM      8  H   UNL     1       2.466  -0.232   0.444  0.00  0.00    -0.080 HD
BRANCH   7   9
ATOM      9  C   UNL     1       0.667  -0.906   1.131  0.00  0.00    -0.071 C 
ATOM     10  C   UNL     1      -0.103  -0.872   2.453  0.00  0.00    -0.013 C 
BRANCH   9  12
ATOM     11  C   UNL     1       1.831  -2.382  -0.514  0.00  0.00    +0.002 C 
ATOM     12  C   UNL     1       1.063  -2.348   0.808  0.00  0.00    -0.019 C 
ENDBRANCH   9  12
ENDBRANCH   7   9
BRANCH   7  13
ATOM     13  C   UNL     1       1.497   1.337   1.318  0.00  0.00    -0.042 C 
BRANCH  13  14
ATOM     14  C   UNL     1       0.852   1.748   0.020  0.00  0.00    -0.060 A 
ATOM     15  C   UNL     1       1.638   2.124  -1.053  0.00  0.00    +0.005 A 
ATOM     16  C   UNL     1       1.051   2.502  -2.246  0.00  0.00    +0.050 A 
ATOM     17  C   UNL     1      -0.329   2.505  -2.369  0.00  0.00    +0.166 A 
ATOM     18  C   UNL     1      -1.122   2.126  -1.288  0.00  0.00    +0.166 A 
ATOM     19  C   UNL     1      -0.526   1.743  -0.097  0.00  0.00    +0.051 A 
ATOM     20  O   UNL     1      -2.433   2.213  -1.657  0.00  0.00    -0.453 OA
ATOM     21  C   UNL     1      -2.447   3.037  -2.838  0.00  0.00    +0.466 C 
ATOM     22  O   UNL     1      -1.144   2.829  -3.415  0.00  0.00    -0.453 OA
ENDBRANCH  13  14
ENDBRANCH   7  13
ENDBRANCH   6   7
ENDBRANCH   1   6
BRANCH   4  23
ATOM     23  C   UNL     1       3.507  -5.380   3.059  0.00  0.00    +0.174 C 
BRANCH  23  24
ATOM     24  C   UNL     1       3.053  -5.368   4.496  0.00  0.00    -0.004 A 
ATOM     25  C   UNL     1       3.849  -5.928   5.477  0.00  0.00    +0.007 A 
ATOM     26  C   UNL     1       3.433  -5.918   6.795  0.00  0.00    +0.000 A 
ATOM     27  C   UNL     1       2.220  -5.346   7.132  0.00  0.00    +0.000 A 
ATOM     28  C   UNL     1       1.424  -4.785   6.151  0.00  0.00    +0.000 A 
ATOM     29  C   UNL     1       1.843  -4.792   4.834  0.00  0.00    +0.007 A 
ENDBRANCH  23  24
BRANCH  23  30
ATOM     30  C   UNL     1       2.514  -6.147   2.225  0.00  0.00    -0.004 A 
ATOM     31  C   UNL     1       2.819  -7.421   1.784  0.00  0.00    +0.007 A 
ATOM     32  C   UNL     1       1.908  -8.125   1.019  0.00  0.00    +0.000 A 
ATOM     33  C   UNL     1       0.692  -7.555   0.695  0.00  0.00    +0.000 A 
ATOM     34  C   UNL     1       0.386  -6.281   1.136  0.00  0.00    +0.000 A 
ATOM     35  C   UNL     1       1.295  -5.579   1.905  0.00  0.00    +0.007 A 
ENDBRANCH  23  30
BRANCH  23  36
ATOM     36  O   UNL     1       4.788  -6.006   2.969  0.00  0.00    -0.372 OA
ATOM     37  H   UNL     1       5.479  -5.564   3.483  0.00  0.00    +0.212 HD
ENDBRANCH  23  36
ENDBRANCH   4  23
TORSDOF 10
