REMARK  Name = ZINC23436844
REMARK  12 active torsions:
REMARK  status: ('A' for Active; 'I' for Inactive)
REMARK    1  A    between atoms: C_1  and  C_2
REMARK    2  A    between atoms: C_5  and  C_8
REMARK    3  A    between atoms: C_8  and  O_9
REMARK    4  A    between atoms: O_9  and  C_10
REMARK    5  A    between atoms: C_10  and  C_12
REMARK    6  A    between atoms: C_10  and  C_33
REMARK    7  A    between atoms: C_12  and  N_13
REMARK    8  A    between atoms: N_21  and  C_22
REMARK    9  A    between atoms: C_22  and  C_23
REMARK   10  A    between atoms: C_23  and  C_24
REMARK   11  A    between atoms: C_37  and  O_39
REMARK   12  A    between atoms: O_39  and  C_40
REMARK                            x       y       z     vdW  Elec       q    Type
REMARK                         _______ _______ _______ _____ _____    ______ ____
ROOT
ATOM      1  N   UNL     1      11.810  -3.087   2.756  0.00  0.00    +0.384 N 
ATOM      2  C   UNL     1      11.493  -3.389   1.354  0.00  0.00    -0.059 C 
ATOM      3  C   UNL     1      10.837  -2.165   0.707  0.00  0.00    +0.091 C 
ATOM      4  N   UNL     1       9.688  -1.760   1.531  0.00  0.00    -0.289 N 
ATOM      5  C   UNL     1       9.901  -1.565   2.973  0.00  0.00    +0.091 C 
ATOM      6  C   UNL     1      10.593  -2.819   3.532  0.00  0.00    -0.059 C 
ATOM      7  C   UNL     1       8.474  -1.567   0.979  0.00  0.00    +0.302 C 
ATOM      8  O   UNL     1       7.558  -1.145   1.657  0.00  0.00    -0.253 OA
ATOM      9  N   UNL     1       8.276  -1.842  -0.326  0.00  0.00    -0.299 N 
ATOM     10  H   UNL     1       9.123  -2.143  -0.959  0.00  0.00    +0.150 HD
ATOM     11  H   UNL     1      12.424  -2.175   2.771  0.00  0.00    -0.082 HD
ENDROOT
BRANCH   1  12
ATOM     12  C   UNL     1      12.594  -4.171   3.364  0.00  0.00    -0.042 C 
BRANCH  12  13
ATOM     13  C   UNL     1      13.116  -3.720   4.729  0.00  0.00    +0.132 C 
BRANCH  13  14
ATOM     14  C   UNL     1      13.920  -4.831   5.352  0.00  0.00    -0.017 A 
ATOM     15  C   UNL     1      15.258  -4.977   5.037  0.00  0.00    +0.006 A 
ATOM     16  C   UNL     1      15.999  -5.995   5.607  0.00  0.00    +0.004 A 
ATOM     17  C   UNL     1      15.403  -6.870   6.495  0.00  0.00    +0.045 A 
ATOM     18  C   UNL     1      14.060  -6.727   6.813  0.00  0.00    +0.120 A 
ATOM     19  C   UNL     1      13.321  -5.701   6.243  0.00  0.00    +0.051 A 
BRANCH  18  20
ATOM     20  O   UNL     1      13.472  -7.586   7.686  0.00  0.00    -0.495 OA
ATOM     21  C   UNL     1      14.296  -8.614   8.239  0.00  0.00    +0.277 C 
ENDBRANCH  18  20
ENDBRANCH  13  14
BRANCH  13  22
ATOM     22  O   UNL     1      13.944  -2.567   4.565  0.00  0.00    -0.369 OA
BRANCH  22  23
ATOM     23  C   UNL     1      13.937  -1.681   5.686  0.00  0.00    +0.195 C 
BRANCH  23  28
ATOM     24  C   UNL     1      17.397   2.820   4.610  0.00  0.00    +0.044 C 
ATOM     25  C   UNL     1      16.495   1.647   4.891  0.00  0.00    -0.050 A 
ATOM     26  C   UNL     1      15.158   1.703   4.542  0.00  0.00    +0.004 A 
ATOM     27  C   UNL     1      14.330   0.626   4.800  0.00  0.00    +0.006 A 
ATOM     28  C   UNL     1      14.839  -0.507   5.405  0.00  0.00    -0.022 A 
ATOM     29  C   UNL     1      16.175  -0.562   5.758  0.00  0.00    +0.006 A 
ATOM     30  C   UNL     1      17.003   0.513   5.497  0.00  0.00    +0.004 A 
ENDBRANCH  23  28
ENDBRANCH  22  23
ENDBRANCH  13  22
ENDBRANCH  12  13
ENDBRANCH   1  12
BRANCH   9  31
ATOM     31  C   UNL     1       6.932  -1.739  -0.900  0.00  0.00    +0.110 C 
BRANCH  31  32
ATOM     32  C   UNL     1       6.983  -2.101  -2.386  0.00  0.00    +0.054 C 
BRANCH  32  33
ATOM     33  C   UNL     1       5.601  -1.995  -2.976  0.00  0.00    -0.042 A 
ATOM     34  C   UNL     1       5.173  -0.798  -3.520  0.00  0.00    +0.007 A 
ATOM     35  C   UNL     1       3.906  -0.695  -4.062  0.00  0.00    +0.050 A 
ATOM     36  C   UNL     1       3.061  -1.793  -4.063  0.00  0.00    +0.166 A 
ATOM     37  C   UNL     1       3.492  -2.999  -3.516  0.00  0.00    +0.166 A 
ATOM     38  C   UNL     1       4.764  -3.095  -2.974  0.00  0.00    +0.053 A 
ATOM     39  O   UNL     1       2.489  -3.917  -3.637  0.00  0.00    -0.453 OA
ATOM     40  C   UNL     1       1.593  -3.378  -4.627  0.00  0.00    +0.466 C 
ATOM     41  O   UNL     1       1.787  -1.955  -4.527  0.00  0.00    -0.453 OA
ENDBRANCH  32  33
ENDBRANCH  31  32
ENDBRANCH   9  31
TORSDOF 10
