REMARK  Name = ZINC04675035
REMARK  6 active torsions:
REMARK  status: ('A' for Active; 'I' for Inactive)
REMARK    1  A    between atoms: C_1  and  N_2
REMARK    2  A    between atoms: C_6  and  O_24
REMARK    3  A    between atoms: C_10  and  C_11
REMARK    4  A    between atoms: N_13  and  N_14
REMARK    5  A    between atoms: C_15  and  C_17
REMARK    6  A    between atoms: O_24  and  C_25
REMARK                            x       y       z     vdW  Elec       q    Type
REMARK                         _______ _______ _______ _____ _____    ______ ____
ROOT
ATOM      1  C   UNL     1      -7.550  -0.339  -0.413  0.00  0.00    +0.149 C 
ATOM      2  N   UNL     1      -7.168   1.074  -0.365  0.00  0.00    -0.339 N 
ATOM      3  C   UNL     1      -5.882   1.554  -0.264  0.00  0.00    +0.050 A 
ATOM      4  C   UNL     1      -4.639   0.931  -0.182  0.00  0.00    +0.030 A 
ATOM      5  C   UNL     1      -3.494   1.688  -0.088  0.00  0.00    +0.048 A 
ATOM      6  C   UNL     1      -3.563   3.080  -0.074  0.00  0.00    +0.129 A 
ATOM      7  C   UNL     1      -4.783   3.718  -0.148  0.00  0.00    +0.056 A 
ATOM      8  C   UNL     1      -5.957   2.960  -0.250  0.00  0.00    +0.004 A 
ATOM      9  C   UNL     1      -7.328   3.301  -0.346  0.00  0.00    +0.041 A 
ATOM     10  C   UNL     1      -8.039   2.145  -0.414  0.00  0.00    +0.107 A 
ENDROOT
BRANCH  10  11
ATOM     11  C   UNL     1      -9.502   2.049  -0.522  0.00  0.00    +0.277 C 
ATOM     12  O   UNL     1     -10.046   0.962  -0.480  0.00  0.00    -0.267 OA
ATOM     13  N   UNL     1     -10.242   3.166  -0.669  0.00  0.00    -0.229 N 
ATOM     14  H   UNL     1      -9.817   4.038  -0.630  0.00  0.00    +0.173 HD
BRANCH  13  15
ATOM     15  N   UNL     1     -11.624   3.069  -0.879  0.00  0.00    -0.230 N 
ATOM     16  C   UNL     1     -12.363   4.187  -1.026  0.00  0.00    +0.260 C 
ATOM     17  O   UNL     1     -11.831   5.278  -0.977  0.00  0.00    -0.269 OA
ATOM     18  H   UNL     1     -12.048   2.198  -0.919  0.00  0.00    +0.173 HD
BRANCH  16  19
ATOM     19  C   UNL     1     -13.821   4.084  -1.248  0.00  0.00    +0.041 A 
ATOM     20  C   UNL     1     -14.434   2.832  -1.311  0.00  0.00    +0.013 A 
ATOM     21  C   UNL     1     -15.796   2.742  -1.513  0.00  0.00    +0.004 A 
ATOM     22  C   UNL     1     -16.554   3.889  -1.663  0.00  0.00    +0.038 A 
ATOM     23  C   UNL     1     -15.952   5.136  -1.607  0.00  0.00    +0.124 A 
ATOM     24  C   UNL     1     -14.589   5.239  -1.400  0.00  0.00    +0.051 A 
ATOM     25  F   UNL     1     -16.698   6.253  -1.755  0.00  0.00    -0.205 F 
ENDBRANCH  16  19
ENDBRANCH  13  15
ENDBRANCH  10  11
BRANCH   6  26
ATOM     26  O   UNL     1      -2.422   3.813   0.020  0.00  0.00    -0.456 OA
BRANCH  26  27
ATOM     27  C   UNL     1      -1.235   3.154  -0.031  0.00  0.00    +0.128 A 
ATOM     28  C   UNL     1      -0.833   2.535  -1.206  0.00  0.00    +0.046 A 
ATOM     29  C   UNL     1       0.371   1.860  -1.254  0.00  0.00    +0.004 A 
ATOM     30  C   UNL     1       1.182   1.811  -0.134  0.00  0.00    +0.000 A 
ATOM     31  C   UNL     1       0.786   2.431   1.036  0.00  0.00    +0.004 A 
ATOM     32  C   UNL     1      -0.420   3.102   1.091  0.00  0.00    +0.046 A 
ENDBRANCH  26  27
ENDBRANCH   6  26
TORSDOF 5
