REMARK  Name = ZINC39975245
REMARK  8 active torsions:
REMARK  status: ('A' for Active; 'I' for Inactive)
REMARK    1  A    between atoms: C_1  and  O_2
REMARK    2  A    between atoms: O_2  and  C_3
REMARK    3  A    between atoms: C_6  and  O_28
REMARK    4  A    between atoms: C_7  and  N_9
REMARK    5  A    between atoms: C_10  and  C_17
REMARK    6  A    between atoms: C_14  and  S_16
REMARK    7  A    between atoms: C_20  and  C_23
REMARK    8  A    between atoms: O_28  and  C_29
REMARK                            x       y       z     vdW  Elec       q    Type
REMARK                         _______ _______ _______ _____ _____    ______ ____
ROOT
ATOM      1  N   UNL     1       1.322  -4.002  -2.286  0.00  0.00    -0.283 N 
ATOM      2  C   UNL     1       2.381  -4.879  -1.746  0.00  0.00    +0.188 C 
ATOM      3  N   UNL     1       1.712  -6.196  -1.574  0.00  0.00    -0.232 NA
ATOM      4  N   UNL     1       0.824  -6.271  -2.744  0.00  0.00    -0.226 NA
ATOM      5  C   UNL     1       0.327  -4.887  -2.916  0.00  0.00    +0.214 C 
ATOM      6  H   UNL     1       1.182  -6.222  -0.715  0.00  0.00    +0.143 HD
ATOM      7  H   UNL     1       0.060  -6.909  -2.578  0.00  0.00    +0.143 HD
ENDROOT
BRANCH   1  12
ATOM      8  C   UNL     1       0.606  -0.607  -1.056  0.00  0.00    +0.122 A 
ATOM      9  C   UNL     1       1.173   0.162  -2.062  0.00  0.00    +0.049 A 
ATOM     10  C   UNL     1       1.787  -0.449  -3.140  0.00  0.00    +0.051 A 
ATOM     11  C   UNL     1       1.839  -1.830  -3.218  0.00  0.00    +0.141 A 
ATOM     12  C   UNL     1       1.271  -2.606  -2.210  0.00  0.00    +0.078 A 
ATOM     13  C   UNL     1       0.660  -1.991  -1.127  0.00  0.00    +0.072 A 
BRANCH   8  15
ATOM     14  C   UNL     1      -0.017   1.425   0.010  0.00  0.00    +0.277 C 
ATOM     15  O   UNL     1       0.002  -0.004   0.002  0.00  0.00    -0.495 OA
ENDBRANCH   8  15
BRANCH  11  16
ATOM     16  O   UNL     1       2.443  -2.430  -4.280  0.00  0.00    -0.493 OA
ATOM     17  C   UNL     1       3.003  -1.573  -5.277  0.00  0.00    +0.277 C 
ENDBRANCH  11  16
ENDBRANCH   1  12
BRANCH   2  18
ATOM     18  C   UNL     1       2.881  -4.349  -0.401  0.00  0.00    +0.189 C 
ATOM     19  C   UNL     1       4.014  -5.210   0.127  0.00  0.00    +0.035 C 
ATOM     20  C   UNL     1       3.535  -5.698   1.290  0.00  0.00    +0.098 C 
ATOM     21  N   UNL     1       2.274  -5.237   1.513  0.00  0.00    -0.153 NA
ATOM     22  N   UNL     1       1.840  -4.487   0.631  0.00  0.00    -0.176 NA
BRANCH  20  23
ATOM     23  C   UNL     1       4.274  -6.604   2.195  0.00  0.00    +0.039 A 
ATOM     24  C   UNL     1       3.873  -7.151   3.384  0.00  0.00    +0.018 A 
ATOM     25  C   UNL     1       4.744  -7.978   4.059  0.00  0.00    +0.008 A 
ATOM     26  C   UNL     1       5.969  -8.224   3.527  0.00  0.00    +0.046 A 
ATOM     27  S   UNL     1       5.918  -7.276   2.016  0.00  0.00    -0.095 S 
ENDBRANCH  20  23
ENDBRANCH   2  18
BRANCH   5  28
ATOM     28  S   UNL     1       0.179  -4.499  -4.682  0.00  0.00    -0.139 S 
ATOM     29  H   UNL     1      -0.747  -5.366  -5.130  0.00  0.00    +0.105 HD
ENDBRANCH   5  28
TORSDOF 6
