REMARK  Name = ZINC13427032
REMARK  8 active torsions:
REMARK  status: ('A' for Active; 'I' for Inactive)
REMARK    1  A    between atoms: C_1  and  O_2
REMARK    2  A    between atoms: O_2  and  C_3
REMARK    3  A    between atoms: C_6  and  C_9
REMARK    4  A    between atoms: C_9  and  C_11
REMARK    5  A    between atoms: C_13  and  C_25
REMARK    6  A    between atoms: C_19  and  C_20
REMARK    7  A    between atoms: C_19  and  O_24
REMARK    8  A    between atoms: C_28  and  O_31
REMARK                            x       y       z     vdW  Elec       q    Type
REMARK                         _______ _______ _______ _____ _____    ______ ____
ROOT
ATOM      1  C   UNL     1       1.281  -0.493   0.690  0.00  0.00    +0.144 C 
ATOM      2  C   UNL     1       0.002  -0.004   0.002  0.00  0.00    +0.120 C 
ATOM      3  N   UNL     1      -0.018   1.460   0.010  0.00  0.00    -0.292 N 
ATOM      4  C   UNL     1       1.118   2.173   0.003  0.00  0.00    +0.302 C 
ATOM      5  O   UNL     1       1.046   3.386  -0.001  0.00  0.00    -0.253 OA
ATOM      6  N   UNL     1       2.331   1.600  -0.000  0.00  0.00    -0.264 N 
ATOM      7  C   UNL     1       2.486   0.144  -0.009  0.00  0.00    +0.243 C 
ATOM      8  H   UNL     1      -0.870   1.923   0.017  0.00  0.00    +0.151 HD
ATOM      9  H   UNL     1       3.122   2.162   0.003  0.00  0.00    +0.153 HD
ENDROOT
BRANCH   2  10
ATOM     10  C   UNL     1      -1.201  -0.528   0.743  0.00  0.00    -0.026 A 
ATOM     11  C   UNL     1      -1.618   0.091   1.907  0.00  0.00    +0.009 A 
ATOM     12  C   UNL     1      -2.724  -0.384   2.585  0.00  0.00    +0.046 A 
ATOM     13  C   UNL     1      -3.410  -1.490   2.103  0.00  0.00    +0.117 A 
ATOM     14  C   UNL     1      -2.986  -2.113   0.938  0.00  0.00    +0.046 A 
ATOM     15  C   UNL     1      -1.882  -1.631   0.261  0.00  0.00    +0.009 A 
BRANCH  13  16
ATOM     16  O   UNL     1      -4.495  -1.963   2.771  0.00  0.00    -0.507 OA
ATOM     17  H   UNL     1      -4.285  -2.630   3.439  0.00  0.00    +0.292 HD
ENDBRANCH  13  16
ENDBRANCH   2  10
BRANCH   7  18
ATOM     18  C   UNL     1       3.769  -0.238   0.732  0.00  0.00    +0.436 C 
ATOM     19  F   UNL     1       3.912  -1.629   0.730  0.00  0.00    -0.166 F 
ATOM     20  F   UNL     1       4.868   0.345   0.093  0.00  0.00    -0.166 F 
ATOM     21  F   UNL     1       3.699   0.222   2.052  0.00  0.00    -0.166 F 
ENDBRANCH   7  18
BRANCH   1  22
ATOM     22  C   UNL     1       1.370  -1.994   0.585  0.00  0.00    +0.173 C 
ATOM     23  O   UNL     1       0.881  -2.565  -0.368  0.00  0.00    -0.292 OA
BRANCH  22  27
ATOM     24  C   UNL     1       3.327  -4.218   3.611  0.00  0.00    +0.120 A 
ATOM     25  C   UNL     1       2.768  -4.875   2.520  0.00  0.00    +0.046 A 
ATOM     26  C   UNL     1       2.133  -4.160   1.538  0.00  0.00    +0.015 A 
ATOM     27  C   UNL     1       2.049  -2.765   1.634  0.00  0.00    +0.018 A 
ATOM     28  C   UNL     1       2.619  -2.108   2.731  0.00  0.00    +0.015 A 
ATOM     29  C   UNL     1       3.246  -2.833   3.711  0.00  0.00    +0.046 A 
BRANCH  24  31
ATOM     30  C   UNL     1       4.507  -4.193   5.673  0.00  0.00    +0.277 C 
ATOM     31  O   UNL     1       3.954  -4.930   4.581  0.00  0.00    -0.495 OA
ENDBRANCH  24  31
ENDBRANCH  22  27
ENDBRANCH   1  22
BRANCH   7  32
ATOM     32  O   UNL     1       2.556  -0.320  -1.358  0.00  0.00    -0.364 OA
ATOM     33  H   UNL     1       3.297   0.044  -1.862  0.00  0.00    +0.212 HD
ENDBRANCH   7  32
TORSDOF 7
