REMARK  Name = ZINC28289802
REMARK  13 active torsions:
REMARK  status: ('A' for Active; 'I' for Inactive)
REMARK    1  A    between atoms: C_1  and  C_2
REMARK    2  A    between atoms: C_8  and  C_14
REMARK    3  A    between atoms: C_12  and  C_13
REMARK    4  A    between atoms: N_16  and  C_17
REMARK    5  A    between atoms: C_17  and  C_18
REMARK    6  A    between atoms: C_18  and  C_20
REMARK    7  A    between atoms: C_18  and  N_30
REMARK    8  A    between atoms: C_23  and  C_26
REMARK    9  A    between atoms: C_26  and  C_27
REMARK   10  A    between atoms: C_26  and  C_28
REMARK   11  A    between atoms: C_26  and  C_29
REMARK   12  A    between atoms: N_30  and  C_31
REMARK   13  A    between atoms: N_30  and  C_32
REMARK                            x       y       z     vdW  Elec       q    Type
REMARK                         _______ _______ _______ _____ _____    ______ ____
ROOT
ATOM      1  C   UNL     1      -0.573  -1.447   3.236  0.00  0.00    +0.279 C 
ATOM      2  O   UNL     1      -0.749  -0.504   3.982  0.00  0.00    -0.267 OA
ATOM      3  N   UNL     1      -0.338  -1.235   1.926  0.00  0.00    -0.310 N 
ATOM      4  H   UNL     1      -0.179  -2.089   1.250  0.00  0.00    +0.149 HD
ENDROOT
BRANCH   1  12
ATOM      5  C   UNL     1      -0.499  -9.250   4.539  0.00  0.00    +0.044 C 
ATOM      6  C   UNL     1      -0.480  -7.804   4.116  0.00  0.00    -0.047 A 
ATOM      7  C   UNL     1      -0.694  -6.813   5.048  0.00  0.00    +0.019 A 
ATOM      8  C   UNL     1      -0.674  -5.477   4.649  0.00  0.00    +0.064 A 
ATOM      9  C   UNL     1      -0.898  -4.385   5.616  0.00  0.00    +0.193 A 
ATOM     10  O   UNL     1      -1.108  -4.609   6.795  0.00  0.00    -0.287 OA
ATOM     11  C   UNL     1      -0.849  -3.013   5.088  0.00  0.00    +0.103 A 
ATOM     12  C   UNL     1      -0.617  -2.830   3.767  0.00  0.00    +0.193 A 
ATOM     13  O   UNL     1      -0.419  -3.851   2.920  0.00  0.00    -0.450 OA
ATOM     14  C   UNL     1      -0.438  -5.142   3.305  0.00  0.00    +0.140 A 
ATOM     15  C   UNL     1      -0.226  -6.160   2.380  0.00  0.00    +0.050 A 
ATOM     16  C   UNL     1      -0.247  -7.476   2.788  0.00  0.00    -0.044 A 
ATOM     17  C   UNL     1      -0.015  -8.572   1.779  0.00  0.00    +0.044 C 
ENDBRANCH   1  12
BRANCH   3  18
ATOM     18  C   UNL     1      -0.295   0.132   1.401  0.00  0.00    +0.094 C 
BRANCH  18  19
ATOM     19  C   UNL     1      -0.137   0.090  -0.120  0.00  0.00    -0.021 C 
BRANCH  19  20
ATOM     20  C   UNL     1      -0.162   1.494  -0.667  0.00  0.00    -0.059 A 
ATOM     21  C   UNL     1      -1.361   2.172  -0.776  0.00  0.00    +0.002 A 
ATOM     22  C   UNL     1      -1.384   3.462  -1.273  0.00  0.00    +0.004 A 
ATOM     23  C   UNL     1      -0.208   4.069  -1.671  0.00  0.00    -0.042 A 
ATOM     24  C   UNL     1       0.991   3.389  -1.567  0.00  0.00    +0.004 A 
ATOM     25  C   UNL     1       1.014   2.102  -1.065  0.00  0.00    +0.002 A 
BRANCH  23  26
ATOM     26  C   UNL     1      -0.233   5.473  -2.218  0.00  0.00    -0.013 C 
ATOM     27  C   UNL     1       0.317   5.475  -3.645  0.00  0.00    +0.015 C 
ATOM     28  C   UNL     1      -1.672   5.992  -2.225  0.00  0.00    +0.015 C 
ATOM     29  C   UNL     1       0.631   6.379  -1.337  0.00  0.00    +0.015 C 
ENDBRANCH  23  26
ENDBRANCH  19  20
BRANCH  19  30
ATOM     30  N   UNL     1      -1.240  -0.684  -0.706  0.00  0.00    +0.382 N 
ATOM     31  C   UNL     1      -2.469  -0.528   0.083  0.00  0.00    -0.096 C 
ATOM     32  C   UNL     1      -1.462  -0.305  -2.108  0.00  0.00    -0.096 C 
ATOM     33  H   UNL     1      -0.956  -1.746  -0.684  0.00  0.00    -0.082 HD
ENDBRANCH  19  30
ENDBRANCH  18  19
ENDBRANCH   3  18
TORSDOF 6
