REMARK  Name = ZINC40894721
REMARK  7 active torsions:
REMARK  status: ('A' for Active; 'I' for Inactive)
REMARK    1  A    between atoms: C_1  and  C_2
REMARK    2  A    between atoms: C_2  and  C_3
REMARK    3  A    between atoms: C_3  and  N_4
REMARK    4  A    between atoms: C_5  and  C_7
REMARK    5  A    between atoms: C_12  and  O_18
REMARK    6  A    between atoms: O_18  and  C_19
REMARK    7  A    between atoms: C_19  and  C_21
REMARK                            x       y       z     vdW  Elec       q    Type
REMARK                         _______ _______ _______ _____ _____    ______ ____
ROOT
ATOM      1  C   UNL     1       1.450  -4.083  -2.325  0.00  0.00    +0.122 A 
ATOM      2  C   UNL     1       1.958  -4.807  -3.397  0.00  0.00    +0.031 A 
ATOM      3  C   UNL     1       1.904  -6.221  -3.332  0.00  0.00    +0.019 A 
ATOM      4  C   UNL     1       2.578  -7.003  -4.284  0.00  0.00    +0.015 A 
ATOM      5  C   UNL     1       2.552  -8.362  -4.187  0.00  0.00    +0.047 A 
ATOM      6  C   UNL     1       1.855  -8.985  -3.152  0.00  0.00    +0.135 A 
ATOM      7  C   UNL     1       1.167  -8.231  -2.214  0.00  0.00    +0.093 A 
ATOM      8  C   UNL     1       1.177  -6.848  -2.301  0.00  0.00    +0.143 A 
ATOM      9  O   UNL     1       0.473  -6.102  -1.415  0.00  0.00    -0.422 OA
ATOM     10  C   UNL     1       0.925  -4.846  -1.179  0.00  0.00    +0.350 A 
ATOM     11  O   UNL     1       0.896  -4.364  -0.062  0.00  0.00    -0.244 OA
ENDROOT
BRANCH   1  13
ATOM     12  N   UNL     1       0.947  -1.935  -1.276  0.00  0.00    -0.311 N 
ATOM     13  C   UNL     1       1.441  -2.611  -2.332  0.00  0.00    +0.251 C 
ATOM     14  O   UNL     1       1.880  -2.005  -3.291  0.00  0.00    -0.270 OA
ATOM     15  H   UNL     1       0.597  -2.418  -0.511  0.00  0.00    +0.149 HD
BRANCH  12  16
ATOM     16  C   UNL     1       0.938  -0.470  -1.283  0.00  0.00    +0.104 C 
BRANCH  16  18
ATOM     17  C   UNL     1       0.320   1.573   0.017  0.00  0.00    +0.005 C 
ATOM     18  C   UNL     1       0.329   0.043   0.024  0.00  0.00    +0.015 C 
ENDBRANCH  16  18
ENDBRANCH  12  16
ENDBRANCH   1  13
BRANCH   6  19
ATOM     19  O   UNL     1       1.849 -10.339  -3.063  0.00  0.00    -0.422 OA
BRANCH  19  20
ATOM     20  C   UNL     1       3.000 -10.956  -2.728  0.00  0.00    +0.351 C 
ATOM     21  O   UNL     1       3.974 -10.299  -2.415  0.00  0.00    -0.244 OA
BRANCH  20  22
ATOM     22  C   UNL     1       3.078 -12.425  -2.742  0.00  0.00    +0.144 A 
ATOM     23  C   UNL     1       4.248 -13.090  -2.397  0.00  0.00    +0.033 A 
ATOM     24  C   UNL     1       4.256 -14.506  -2.466  0.00  0.00    +0.019 A 
ATOM     25  C   UNL     1       5.332 -15.238  -1.942  0.00  0.00    +0.026 A 
ATOM     26  C   UNL     1       5.306 -16.604  -1.978  0.00  0.00    +0.019 A 
ATOM     27  C   UNL     1       4.224 -17.274  -2.536  0.00  0.00    +0.019 A 
ATOM     28  C   UNL     1       3.165 -16.574  -3.073  0.00  0.00    +0.048 A 
ATOM     29  C   UNL     1       3.173 -15.186  -3.055  0.00  0.00    +0.139 A 
ATOM     30  O   UNL     1       2.159 -14.487  -3.618  0.00  0.00    -0.422 OA
ATOM     31  C   UNL     1       1.916 -13.251  -3.118  0.00  0.00    +0.351 A 
ATOM     32  O   UNL     1       0.780 -12.835  -2.985  0.00  0.00    -0.244 OA
ATOM     33 BR   UNL     1       6.753 -17.589  -1.264  0.00  0.00    -0.050 Br
ENDBRANCH  20  22
ENDBRANCH  19  20
ENDBRANCH   6  19
TORSDOF 6
