REMARK  Name = ZINC13056161
REMARK  12 active torsions:
REMARK  status: ('A' for Active; 'I' for Inactive)
REMARK    1  A    between atoms: C_1  and  C_2
REMARK    2  A    between atoms: C_2  and  O_3
REMARK    3  A    between atoms: O_3  and  C_4
REMARK    4  A    between atoms: C_4  and  C_6
REMARK    5  A    between atoms: C_7  and  C_28
REMARK    6  A    between atoms: C_8  and  C_24
REMARK    7  A    between atoms: C_10  and  N_11
REMARK    8  A    between atoms: C_12  and  C_14
REMARK    9  A    between atoms: C_14  and  N_56
REMARK   10  A    between atoms: C_16  and  C_23
REMARK   11  A    between atoms: C_19  and  C_22
REMARK   12  A    between atoms: N_26  and  C_27
REMARK                            x       y       z     vdW  Elec       q    Type
REMARK                         _______ _______ _______ _____ _____    ______ ____
ROOT
ATOM      1  C   UNL     1       1.552  -0.583  -7.325  0.00  0.00    +0.091 A 
ATOM      2  C   UNL     1       0.517  -0.305  -8.205  0.00  0.00    -0.015 A 
ATOM      3  C   UNL     1      -0.627   0.239  -7.689  0.00  0.00    +0.079 A 
ATOM      4  S   UNL     1      -0.256   0.357  -5.949  0.00  0.00    -0.068 S 
ATOM      5  C   UNL     1       1.349  -0.297  -5.971  0.00  0.00    +0.087 A 
ATOM      6  C   UNL     1       0.650  -0.587  -9.679  0.00  0.00    +0.046 C 
ENDROOT
BRANCH   3   7
ATOM      7  C   UNL     1      -1.853   0.627  -8.390  0.00  0.00    +0.251 C 
ATOM      8  O   UNL     1      -1.938   0.475  -9.595  0.00  0.00    -0.270 OA
ATOM      9  N   UNL     1      -2.886   1.153  -7.702  0.00  0.00    -0.314 N 
ATOM     10  C   UNL     1      -4.112   1.541  -8.404  0.00  0.00    +0.128 C 
ATOM     11  H   UNL     1      -2.817   1.274  -6.742  0.00  0.00    +0.149 HD
ENDBRANCH   3   7
BRANCH   5  12
ATOM     12  N   UNL     1       2.216  -0.485  -4.912  0.00  0.00    -0.281 N 
ATOM     13  C   UNL     1       1.841  -0.140  -3.664  0.00  0.00    +0.201 C 
ATOM     14  O   UNL     1       0.742   0.335  -3.471  0.00  0.00    -0.278 OA
ATOM     15  H   UNL     1       3.095  -0.865  -5.066  0.00  0.00    +0.155 HD
BRANCH  13  16
ATOM     16  C   UNL     1       2.787  -0.345  -2.509  0.00  0.00    +0.019 C 
BRANCH  16  24
ATOM     17  C   UNL     1       2.116   1.702  -1.405  0.00  0.00    -0.075 C 
ATOM     18  C   UNL     1       1.379   2.263  -0.187  0.00  0.00    -0.031 C 
ATOM     19  C   UNL     1       2.139   1.878   1.085  0.00  0.00    +0.003 C 
ATOM     20  C   UNL     1       2.264   0.353   1.154  0.00  0.00    -0.031 C 
ATOM     21  C   UNL     1       2.975  -0.152  -0.103  0.00  0.00    -0.075 C 
ATOM     22  C   UNL     1       0.869  -0.270   1.237  0.00  0.00    +0.005 C 
ATOM     23  C   UNL     1       1.302   3.788  -0.293  0.00  0.00    +0.005 C 
ATOM     24  N   UNL     1       2.181   0.230  -1.290  0.00  0.00    +0.386 N 
ATOM     25  H   UNL     1       1.228  -0.138  -1.187  0.00  0.00    -0.081 HD
ENDBRANCH  16  24
ENDBRANCH  13  16
ENDBRANCH   5  12
BRANCH   1  26
ATOM     26  C   UNL     1       2.816  -1.160  -7.798  0.00  0.00    +0.342 C 
ATOM     27  O   UNL     1       2.951  -2.367  -7.848  0.00  0.00    -0.245 OA
BRANCH  26  28
ATOM     28  O   UNL     1       3.826  -0.351  -8.176  0.00  0.00    -0.461 OA
BRANCH  28  30
ATOM     29  C   UNL     1       6.071   0.078  -9.016  0.00  0.00    +0.048 C 
ATOM     30  C   UNL     1       5.047  -0.992  -8.633  0.00  0.00    +0.229 C 
ENDBRANCH  28  30
ENDBRANCH  26  28
ENDBRANCH   1  26
TORSDOF 7
