REMARK  Name = ZINC50441318
REMARK  8 active torsions:
REMARK  status: ('A' for Active; 'I' for Inactive)
REMARK    1  A    between atoms: C_2  and  N_19
REMARK    2  A    between atoms: C_5  and  O_8
REMARK    3  A    between atoms: O_8  and  C_9
REMARK    4  A    between atoms: C_9  and  C_10
REMARK    5  A    between atoms: C_10  and  C_12
REMARK    6  A    between atoms: C_10  and  O_17
REMARK    7  A    between atoms: C_12  and  N_13
REMARK    8  A    between atoms: N_13  and  C_14
REMARK                            x       y       z     vdW  Elec       q    Type
REMARK                         _______ _______ _______ _____ _____    ______ ____
ROOT
ATOM      1  O   UNL     1       1.235  -2.039  -0.022  0.00  0.00    -0.487 OA
ENDROOT
BRANCH   1   6
ATOM      2  C   UNL     1      -0.017   1.378   0.010  0.00  0.00    +0.051 A 
ATOM      3  C   UNL     1       1.170   2.087   0.002  0.00  0.00    +0.129 A 
ATOM      4  C   UNL     1       2.379   1.416  -0.013  0.00  0.00    +0.051 A 
ATOM      5  C   UNL     1       2.404   0.034  -0.021  0.00  0.00    +0.063 A 
ATOM      6  C   UNL     1       1.214  -0.680  -0.013  0.00  0.00    +0.149 A 
ATOM      7  C   UNL     1       0.002  -0.004   0.002  0.00  0.00    +0.063 A 
ATOM      8 BR   UNL     1      -1.622  -0.973   0.013  0.00  0.00    -0.046 Br
ATOM      9 BR   UNL     1       4.058  -0.883  -0.044  0.00  0.00    -0.046 Br
BRANCH   3  10
ATOM     10  N   UNL     1       1.147   3.567   0.010  0.00  0.00    +0.056 N 
ATOM     11  O   UNL     1       0.091   4.155   0.023  0.00  0.00    -0.126 OA
ATOM     12  O   UNL     1       2.184   4.188   0.004  0.00  0.00    -0.126 OA
ENDBRANCH   3  10
ENDBRANCH   1   6
BRANCH   1  13
ATOM     13  C   UNL     1       1.259  -2.696   1.247  0.00  0.00    +0.258 C 
BRANCH  13  14
ATOM     14  C   UNL     1       1.280  -4.211   1.038  0.00  0.00    +0.135 C 
BRANCH  14  15
ATOM     15  O   UNL     1       0.059  -4.624   0.421  0.00  0.00    -0.390 OA
ATOM     16  H   UNL     1      -0.732  -4.419   0.938  0.00  0.00    +0.210 HD
ENDBRANCH  14  15
BRANCH  14  17
ATOM     17  C   UNL     1       1.431  -4.911   2.390  0.00  0.00    -0.047 C 
BRANCH  17  18
ATOM     18  N   UNL     1       1.572  -6.358   2.179  0.00  0.00    +0.383 N 
ATOM     19  H   UNL     1       0.753  -6.711   1.707  0.00  0.00    -0.085 HD
ATOM     20  H   UNL     1       2.389  -6.537   1.615  0.00  0.00    -0.085 HD
BRANCH  18  21
ATOM     21  C   UNL     1       1.717  -7.030   3.477  0.00  0.00    -0.072 C 
ATOM     22  C   UNL     1       3.034  -7.758   3.753  0.00  0.00    -0.017 C 
ATOM     23  C   UNL     1       1.759  -8.559   3.480  0.00  0.00    -0.017 C 
ENDBRANCH  18  21
ENDBRANCH  17  18
ENDBRANCH  14  17
ENDBRANCH  13  14
ENDBRANCH   1  13
TORSDOF 8
