REMARK  Name = ZINC39962589
REMARK  8 active torsions:
REMARK  status: ('A' for Active; 'I' for Inactive)
REMARK    1  A    between atoms: C_1  and  C_2
REMARK    2  A    between atoms: C_5  and  C_8
REMARK    3  A    between atoms: C_8  and  O_9
REMARK    4  A    between atoms: O_9  and  C_10
REMARK    5  A    between atoms: C_13  and  C_16
REMARK    6  A    between atoms: C_18  and  C_29
REMARK    7  A    between atoms: C_19  and  N_28
REMARK    8  A    between atoms: C_24  and  C_27
REMARK                            x       y       z     vdW  Elec       q    Type
REMARK                         _______ _______ _______ _____ _____    ______ ____
ROOT
ATOM      1  C   UNL     1       1.608  -6.079  -0.040  0.00  0.00    +0.121 A 
ATOM      2  C   UNL     1       0.520  -6.939  -0.044  0.00  0.00    +0.046 A 
ATOM      3  C   UNL     1       0.721  -8.306  -0.053  0.00  0.00    +0.008 A 
ATOM      4  C   UNL     1       2.006  -8.817  -0.058  0.00  0.00    -0.035 A 
ATOM      5  C   UNL     1       3.092  -7.961  -0.053  0.00  0.00    +0.008 A 
ATOM      6  C   UNL     1       2.896  -6.594  -0.050  0.00  0.00    +0.046 A 
ENDROOT
BRANCH   4   7
ATOM      7  C   UNL     1       2.223 -10.308  -0.067  0.00  0.00    +0.098 C 
ATOM      8  C   UNL     1       3.042 -10.712  -1.279  0.00  0.00    +0.097 C 
ATOM      9  C   UNL     1       4.314 -11.147  -1.162  0.00  0.00    +0.195 C 
ATOM     10  O   UNL     1       5.008 -11.307  -0.020  0.00  0.00    -0.448 OA
ATOM     11  C   UNL     1       4.563 -10.576   1.126  0.00  0.00    +0.343 C 
ATOM     12  C   UNL     1       3.037 -10.723   1.128  0.00  0.00    +0.030 C 
ATOM     13  C   UNL     1       2.744 -11.247   2.293  0.00  0.00    +0.066 C 
ATOM     14  N   UNL     1       3.879 -11.541   2.976  0.00  0.00    -0.155 NA
ATOM     15  N   UNL     1       4.944 -11.219   2.386  0.00  0.00    -0.138 NA
ATOM     16  C   UNL     1       1.346 -11.488   2.801  0.00  0.00    +0.067 C 
BRANCH   9  17
ATOM     17  N   UNL     1       4.967 -11.460  -2.327  0.00  0.00    -0.329 N 
ATOM     18  H   UNL     1       4.513 -11.364  -3.179  0.00  0.00    +0.145 HD
ATOM     19  H   UNL     1       5.883 -11.778  -2.300  0.00  0.00    +0.145 HD
ENDBRANCH   9  17
BRANCH   8  20
ATOM     20  C   UNL     1       2.450 -10.629  -2.580  0.00  0.00    +0.101 C 
ATOM     21  N   UNL     1       1.980 -10.564  -3.612  0.00  0.00    -0.191 NA
ENDBRANCH   8  20
ENDBRANCH   4   7
BRANCH   1  22
ATOM     22  O   UNL     1       1.413  -4.734  -0.032  0.00  0.00    -0.487 OA
BRANCH  22  23
ATOM     23  C   UNL     1       0.059  -4.275  -0.021  0.00  0.00    +0.264 C 
BRANCH  23  28
ATOM     24  C   UNL     1      -0.018   1.503   0.010  0.00  0.00    +0.044 C 
ATOM     25  C   UNL     1       0.002  -0.004   0.002  0.00  0.00    -0.050 A 
ATOM     26  C   UNL     1       0.006  -0.689  -1.199  0.00  0.00    +0.004 A 
ATOM     27  C   UNL     1       0.025  -2.071  -1.206  0.00  0.00    +0.007 A 
ATOM     28  C   UNL     1       0.040  -2.768  -0.013  0.00  0.00    -0.010 A 
ATOM     29  C   UNL     1       0.037  -2.084   1.188  0.00  0.00    +0.007 A 
ATOM     30  C   UNL     1       0.023  -0.702   1.195  0.00  0.00    +0.004 A 
ENDBRANCH  23  28
ENDBRANCH  22  23
ENDBRANCH   1  22
TORSDOF 6
