REMARK  Name = ZINC39666022
REMARK  9 active torsions:
REMARK  status: ('A' for Active; 'I' for Inactive)
REMARK    1  A    between atoms: C_1  and  C_2
REMARK    2  A    between atoms: C_5  and  O_8
REMARK    3  A    between atoms: O_8  and  C_9
REMARK    4  A    between atoms: C_9  and  C_11
REMARK    5  A    between atoms: C_9  and  C_12
REMARK    6  A    between atoms: C_12  and  N_13
REMARK    7  A    between atoms: C_14  and  C_16
REMARK    8  A    between atoms: C_27  and  C_29
REMARK    9  A    between atoms: C_33  and  C_35
REMARK                            x       y       z     vdW  Elec       q    Type
REMARK                         _______ _______ _______ _____ _____    ______ ____
ROOT
ATOM      1  C   UNL     1       5.042  -6.667  -0.171  0.00  0.00    +0.100 C 
ATOM      2  C   UNL     1       5.768  -6.039   1.041  0.00  0.00    +0.121 C 
ATOM      3  N   UNL     1       6.337  -7.194   1.776  0.00  0.00    -0.296 N 
ATOM      4  C   UNL     1       6.814  -8.109   0.711  0.00  0.00    +0.115 C 
ATOM      5  C   UNL     1       5.734  -8.023  -0.386  0.00  0.00    -0.004 C 
ATOM      6  C   UNL     1       4.730  -9.160  -0.226  0.00  0.00    -0.010 C 
ATOM      7  C   UNL     1       5.429 -10.495  -0.500  0.00  0.00    -0.082 C 
ATOM      8  N   UNL     1       5.980 -10.489  -1.861  0.00  0.00    +0.379 N 
ATOM      9  C   UNL     1       7.012  -9.453  -1.980  0.00  0.00    -0.082 C 
ATOM     10  C   UNL     1       6.380  -8.074  -1.767  0.00  0.00    -0.010 C 
ATOM     11  C   UNL     1       6.406  -7.371   3.110  0.00  0.00    +0.247 C 
ATOM     12  O   UNL     1       6.015  -6.498   3.860  0.00  0.00    -0.270 OA
ATOM     13  H   UNL     1       6.386 -11.391  -2.061  0.00  0.00    -0.086 HD
ATOM     14  H   UNL     1       5.240 -10.303  -2.521  0.00  0.00    -0.086 HD
ENDROOT
BRANCH  11  15
ATOM     15  C   UNL     1       6.956  -8.627   3.660  0.00  0.00    +0.038 A 
ATOM     16  C   UNL     1       7.918  -9.344   2.944  0.00  0.00    +0.016 A 
ATOM     17  C   UNL     1       8.428 -10.514   3.462  0.00  0.00    +0.039 A 
ATOM     18  C   UNL     1       7.988 -10.981   4.692  0.00  0.00    +0.135 A 
ATOM     19  C   UNL     1       7.034 -10.273   5.407  0.00  0.00    +0.091 A 
ATOM     20  C   UNL     1       6.521  -9.098   4.901  0.00  0.00    +0.028 A 
ATOM     21  F   UNL     1       8.491 -12.129   5.196  0.00  0.00    -0.205 F 
BRANCH  19  22
ATOM     22  C   UNL     1       6.561 -10.786   6.743  0.00  0.00    +0.420 C 
ATOM     23  F   UNL     1       5.606  -9.909   7.267  0.00  0.00    -0.166 F 
ATOM     24  F   UNL     1       5.991 -12.053   6.580  0.00  0.00    -0.166 F 
ATOM     25  F   UNL     1       7.647 -10.872   7.620  0.00  0.00    -0.166 F 
ENDBRANCH  19  22
ENDBRANCH  11  15
BRANCH   1  27
ATOM     26  N   UNL     1       2.687  -6.962  -0.866  0.00  0.00    -0.312 N 
ATOM     27  C   UNL     1       3.581  -6.866   0.138  0.00  0.00    +0.218 C 
ATOM     28  O   UNL     1       3.209  -6.941   1.290  0.00  0.00    -0.275 OA
ATOM     29  H   UNL     1       2.984  -6.902  -1.787  0.00  0.00    +0.149 HD
BRANCH  26  30
ATOM     30  C   UNL     1       1.266  -7.156  -0.565  0.00  0.00    +0.148 C 
BRANCH  30  31
ATOM     31  C   UNL     1       0.474  -7.231  -1.872  0.00  0.00    +0.187 C 
ATOM     32  C   UNL     1      -1.021  -7.309  -1.559  0.00  0.00    +0.053 C 
BRANCH  31  33
ATOM     33  O   UNL     1       0.869  -8.395  -2.602  0.00  0.00    -0.488 OA
BRANCH  33  38
ATOM     34  C   UNL     1       0.436  -8.163  -8.213  0.00  0.00    +0.044 C 
ATOM     35  C   UNL     1       0.551  -8.226  -6.712  0.00  0.00    -0.050 A 
ATOM     36  C   UNL     1       0.086  -7.177  -5.940  0.00  0.00    +0.007 A 
ATOM     37  C   UNL     1       0.191  -7.232  -4.563  0.00  0.00    +0.046 A 
ATOM     38  C   UNL     1       0.764  -8.339  -3.956  0.00  0.00    +0.121 A 
ATOM     39  C   UNL     1       1.230  -9.390  -4.733  0.00  0.00    +0.046 A 
ATOM     40  C   UNL     1       1.118  -9.333  -6.108  0.00  0.00    +0.007 A 
ENDBRANCH  33  38
ENDBRANCH  31  33
ENDBRANCH  30  31
ENDBRANCH  26  30
ENDBRANCH   1  27
TORSDOF 7
