REMARK  Name = ZINC01479474
REMARK  8 active torsions:
REMARK  status: ('A' for Active; 'I' for Inactive)
REMARK    1  A    between atoms: C_1  and  C_2
REMARK    2  A    between atoms: C_5  and  C_7
REMARK    3  A    between atoms: N_8  and  N_9
REMARK    4  A    between atoms: C_10  and  C_12
REMARK    5  A    between atoms: C_12  and  S_13
REMARK    6  A    between atoms: S_13  and  C_14
REMARK    7  A    between atoms: C_17  and  C_26
REMARK    8  A    between atoms: N_18  and  C_19
REMARK                            x       y       z     vdW  Elec       q    Type
REMARK                         _______ _______ _______ _____ _____    ______ ____
ROOT
ATOM      1  C   UNL     1       2.505   5.954   0.010  0.00  0.00    +0.197 A 
ATOM      2  N   UNL     1       1.324   6.533   0.025  0.00  0.00    -0.122 NA
ATOM      3  N   UNL     1       1.459   7.811   0.030  0.00  0.00    -0.128 NA
ATOM      4  C   UNL     1       2.733   8.129   0.019  0.00  0.00    +0.169 A 
ATOM      5  N   UNL     1       3.444   6.948   0.012  0.00  0.00    -0.270 N 
ENDROOT
BRANCH   5   6
ATOM      6  C   UNL     1       4.838   6.797   0.005  0.00  0.00    +0.051 A 
ATOM      7  C   UNL     1       5.589   7.225   1.091  0.00  0.00    +0.027 A 
ATOM      8  C   UNL     1       6.961   7.072   1.083  0.00  0.00    +0.017 A 
ATOM      9  C   UNL     1       7.589   6.501  -0.011  0.00  0.00    +0.018 A 
ATOM     10  C   UNL     1       6.843   6.078  -1.096  0.00  0.00    +0.017 A 
ATOM     11  C   UNL     1       5.469   6.225  -1.091  0.00  0.00    +0.027 A 
ATOM     12 BR   UNL     1       9.469   6.299  -0.021  0.00  0.00    -0.050 Br
ENDBRANCH   5   6
BRANCH   4  13
ATOM     13  C   UNL     1       3.298   9.493   0.021  0.00  0.00    +0.022 A 
ATOM     14  C   UNL     1       4.644   9.716  -0.296  0.00  0.00    +0.031 A 
ATOM     15  C   UNL     1       5.129  11.007  -0.286  0.00  0.00    +0.111 A 
ATOM     16  N   UNL     1       4.346  12.022   0.026  0.00  0.00    -0.263 NA
ATOM     17  C   UNL     1       3.074  11.857   0.336  0.00  0.00    +0.111 A 
ATOM     18  C   UNL     1       2.505  10.601   0.346  0.00  0.00    +0.031 A 
ENDBRANCH   4  13
BRANCH   1  19
ATOM     19  S   UNL     1       2.819   4.220  -0.002  0.00  0.00    -0.076 S 
BRANCH  19  20
ATOM     20  C   UNL     1       1.121   3.593   0.011  0.00  0.00    +0.174 C 
BRANCH  20  22
ATOM     21  N   UNL     1      -0.017   1.397   0.010  0.00  0.00    -0.206 N 
ATOM     22  C   UNL     1       1.141   2.087   0.002  0.00  0.00    +0.242 C 
ATOM     23  O   UNL     1       2.200   1.494  -0.011  0.00  0.00    -0.273 OA
ATOM     24  H   UNL     1      -0.864   1.870   0.016  0.00  0.00    +0.177 HD
BRANCH  21  26
ATOM     25  C   UNL     1      -1.115  -0.670   0.009  0.00  0.00    +0.176 C 
ATOM     26  N   UNL     1       0.002  -0.004   0.002  0.00  0.00    -0.185 NA
BRANCH  25  31
ATOM     27  C   UNL     1       0.580  -5.383  -0.031  0.00  0.00    +0.086 C 
ATOM     28  C   UNL     1      -0.360  -4.205  -0.016  0.00  0.00    +0.103 A 
ATOM     29  C   UNL     1      -1.707  -4.274  -0.004  0.00  0.00    +0.045 A 
ATOM     30  C   UNL     1      -2.189  -2.952   0.013  0.00  0.00    +0.051 A 
ATOM     31  C   UNL     1      -1.096  -2.136   0.001  0.00  0.00    +0.148 A 
ATOM     32  O   UNL     1       0.006  -2.913  -0.013  0.00  0.00    -0.459 OA
ENDBRANCH  25  31
ENDBRANCH  21  26
ENDBRANCH  20  22
ENDBRANCH  19  20
ENDBRANCH   1  19
TORSDOF 7
