REMARK  Name = ZINC09524329
REMARK  9 active torsions:
REMARK  status: ('A' for Active; 'I' for Inactive)
REMARK    1  A    between atoms: C_1  and  C_2
REMARK    2  A    between atoms: C_2  and  C_33
REMARK    3  A    between atoms: C_6  and  C_21
REMARK    4  A    between atoms: C_13  and  S_17
REMARK    5  A    between atoms: S_17  and  C_18
REMARK    6  A    between atoms: C_18  and  C_19
REMARK    7  A    between atoms: C_24  and  N_27
REMARK    8  A    between atoms: N_27  and  C_28
REMARK    9  A    between atoms: N_27  and  C_29
REMARK                            x       y       z     vdW  Elec       q    Type
REMARK                         _______ _______ _______ _____ _____    ______ ____
ROOT
ATOM      1  C   UNL     1      -2.365   0.735   3.561  0.00  0.00    +0.011 C 
ATOM      2  C   UNL     1      -2.024  -0.749   3.705  0.00  0.00    -0.023 C 
ATOM      3  C   UNL     1      -2.563  -1.520   2.498  0.00  0.00    +0.058 C 
ATOM      4  C   UNL     1      -1.912  -1.006   1.237  0.00  0.00    +0.017 C 
ATOM      5  C   UNL     1      -0.656  -0.514   1.254  0.00  0.00    +0.024 C 
ATOM      6  C   UNL     1       0.003  -0.004  -0.003  0.00  0.00    +0.092 C 
ATOM      7  C   UNL     1      -0.706  -0.497  -1.229  0.00  0.00    +0.069 A 
ATOM      8  C   UNL     1      -0.074  -0.456  -2.477  0.00  0.00    +0.258 A 
ATOM      9  O   UNL     1       1.062  -0.021  -2.584  0.00  0.00    -0.267 OA
ATOM     10  N   UNL     1      -0.743  -0.905  -3.559  0.00  0.00    -0.302 N 
ATOM     11  H   UNL     1      -0.320  -0.885  -4.432  0.00  0.00    +0.171 HD
ATOM     12  C   UNL     1      -2.011  -1.385  -3.429  0.00  0.00    +0.171 A 
ATOM     13  N   UNL     1      -2.611  -1.427  -2.256  0.00  0.00    -0.208 NA
ATOM     14  C   UNL     1      -1.994  -0.998  -1.150  0.00  0.00    +0.135 A 
ATOM     15  N   UNL     1      -2.632  -1.055   0.074  0.00  0.00    -0.302 N 
ATOM     16  C   UNL     1       0.084  -0.461   2.450  0.00  0.00    +0.162 C 
ATOM     17  O   UNL     1       1.220  -0.029   2.429  0.00  0.00    -0.292 OA
ATOM     18  C   UNL     1      -0.503  -0.926   3.754  0.00  0.00    +0.086 C 
ATOM     19  C   UNL     1      -2.652  -1.299   4.988  0.00  0.00    +0.011 C 
ATOM     20  H   UNL     1      -3.598  -1.132   0.110  0.00  0.00    +0.153 HD
ENDROOT
BRANCH   6  21
ATOM     21  C   UNL     1      -0.018   1.503   0.007  0.00  0.00    -0.035 A 
ATOM     22  C   UNL     1      -1.226   2.176   0.031  0.00  0.00    +0.006 A 
ATOM     23  C   UNL     1      -1.248   3.557   0.046  0.00  0.00    +0.023 A 
ATOM     24  C   UNL     1      -0.056   4.269   0.024  0.00  0.00    +0.029 A 
ATOM     25  C   UNL     1       1.155   3.590  -0.006  0.00  0.00    +0.023 A 
ATOM     26  C   UNL     1       1.171   2.209  -0.015  0.00  0.00    +0.006 A 
BRANCH  24  27
ATOM     27  N   UNL     1      -0.075   5.666   0.034  0.00  0.00    -0.336 N 
ATOM     28  C   UNL     1       1.180   6.415   0.138  0.00  0.00    +0.129 C 
ATOM     29  C   UNL     1      -1.349   6.382  -0.061  0.00  0.00    +0.129 C 
ENDBRANCH  24  27
ENDBRANCH   6  21
BRANCH  12  30
ATOM     30  S   UNL     1      -2.866  -1.963  -4.856  0.00  0.00    -0.084 S 
BRANCH  30  31
ATOM     31  C   UNL     1      -4.436  -2.459  -4.103  0.00  0.00    +0.104 C 
BRANCH  31  32
ATOM     32  C   UNL     1      -5.354  -3.002  -5.168  0.00  0.00    -0.023 C 
ATOM     33  C   UNL     1      -5.717  -4.260  -5.141  0.00  0.00    +0.005 C 
ENDBRANCH  31  32
ENDBRANCH  30  31
ENDBRANCH  12  30
TORSDOF 5
