REMARK  Name = ZINC54893948
REMARK  10 active torsions:
REMARK  status: ('A' for Active; 'I' for Inactive)
REMARK    1  A    between atoms: C_1  and  C_2
REMARK    2  A    between atoms: C_2  and  S_3
REMARK    3  A    between atoms: S_3  and  N_6
REMARK    4  A    between atoms: N_6  and  C_7
REMARK    5  A    between atoms: C_10  and  N_14
REMARK    6  A    between atoms: C_12  and  C_13
REMARK    7  A    between atoms: C_15  and  C_16
REMARK    8  A    between atoms: C_20  and  O_23
REMARK    9  A    between atoms: C_21  and  O_22
REMARK   10  A    between atoms: O_23  and  C_24
REMARK                            x       y       z     vdW  Elec       q    Type
REMARK                         _______ _______ _______ _____ _____    ______ ____
ROOT
ATOM      1  C   UNL     1       1.411  -2.889   0.246  0.00  0.00    +0.051 A 
ATOM      2  C   UNL     1       2.623  -2.433  -0.261  0.00  0.00    +0.027 A 
ATOM      3  C   UNL     1       3.194  -3.056  -1.349  0.00  0.00    +0.029 A 
ATOM      4  C   UNL     1       2.555  -4.147  -1.943  0.00  0.00    +0.064 A 
ATOM      5  C   UNL     1       1.337  -4.603  -1.431  0.00  0.00    +0.033 A 
ATOM      6  C   UNL     1       0.774  -3.978  -0.339  0.00  0.00    -0.026 A 
ATOM      7  C   UNL     1      -0.536  -4.473   0.218  0.00  0.00    +0.046 C 
ENDROOT
BRANCH   1   8
ATOM      8  N   UNL     1       0.835  -2.256   1.349  0.00  0.00    -0.220 N 
ATOM      9  H   UNL     1       0.348  -2.776   2.007  0.00  0.00    +0.173 HD
BRANCH   8  10
ATOM     10  S   UNL     1       0.981  -0.617   1.532  0.00  0.00    +0.043 S 
ATOM     11  O   UNL     1       2.381  -0.373   1.510  0.00  0.00    -0.155 OA
ATOM     12  O   UNL     1       0.211  -0.310   2.686  0.00  0.00    -0.155 OA
BRANCH  10  14
ATOM     13  C   UNL     1       0.279   1.616   0.117  0.00  0.00    +0.030 C 
ATOM     14  C   UNL     1       0.201   0.090   0.055  0.00  0.00    +0.185 C 
ENDBRANCH  10  14
ENDBRANCH   8  10
ENDBRANCH   1   8
BRANCH   4  15
ATOM     15  N   UNL     1       3.119  -4.768  -3.024  0.00  0.00    -0.255 NA
ATOM     16  C   UNL     1       3.610  -4.057  -4.001  0.00  0.00    +0.123 C 
BRANCH  16  17
ATOM     17  C   UNL     1       4.217  -4.724  -5.162  0.00  0.00    +0.038 A 
ATOM     18  C   UNL     1       4.750  -3.965  -6.210  0.00  0.00    +0.013 A 
ATOM     19  C   UNL     1       5.317  -4.595  -7.296  0.00  0.00    +0.004 A 
ATOM     20  C   UNL     1       5.365  -5.978  -7.358  0.00  0.00    +0.049 A 
ATOM     21  C   UNL     1       4.841  -6.743  -6.329  0.00  0.00    +0.162 A 
ATOM     22  C   UNL     1       4.269  -6.124  -5.223  0.00  0.00    +0.167 A 
BRANCH  22  23
ATOM     23  O   UNL     1       3.760  -6.871  -4.210  0.00  0.00    -0.503 OA
ATOM     24  H   UNL     1       2.827  -7.099  -4.320  0.00  0.00    +0.292 HD
ENDBRANCH  22  23
BRANCH  21  25
ATOM     25  O   UNL     1       4.892  -8.100  -6.398  0.00  0.00    -0.491 OA
ATOM     26  C   UNL     1       5.498  -8.669  -7.560  0.00  0.00    +0.277 C 
ENDBRANCH  21  25
ENDBRANCH  16  17
ENDBRANCH   4  15
TORSDOF 7
