REMARK  Name = ZINC19460599
REMARK  7 active torsions:
REMARK  status: ('A' for Active; 'I' for Inactive)
REMARK    1  A    between atoms: C_1  and  C_2
REMARK    2  A    between atoms: C_2  and  C_28
REMARK    3  A    between atoms: C_7  and  C_10
REMARK    4  A    between atoms: C_13  and  O_16
REMARK    5  A    between atoms: N_19  and  C_22
REMARK    6  A    between atoms: C_28  and  O_30
REMARK    7  A    between atoms: O_30  and  C_31
REMARK                            x       y       z     vdW  Elec       q    Type
REMARK                         _______ _______ _______ _____ _____    ______ ____
ROOT
ATOM      1  C   UNL     1       1.802   2.286   1.428  0.00  0.00    +0.040 C 
ATOM      2  C   UNL     1       1.279   2.109   0.001  0.00  0.00    +0.127 C 
ATOM      3  C   UNL     1       1.091   3.430  -0.652  0.00  0.00    +0.120 C 
ATOM      4  C   UNL     1       2.554   3.721  -1.174  0.00  0.00    +0.111 C 
ATOM      5  C   UNL     1       2.794   2.400  -1.864  0.00  0.00    +0.097 C 
ATOM      6  N   UNL     1       2.298   1.410  -0.847  0.00  0.00    -0.294 NA
ATOM      7  C   UNL     1       2.287   5.021  -1.829  0.00  0.00    +0.232 C 
ATOM      8  O   UNL     1       2.791   5.449  -2.845  0.00  0.00    -0.274 OA
ATOM      9  N   UNL     1       1.348   5.636  -1.043  0.00  0.00    -0.210 N 
ATOM     10  C   UNL     1       0.738   4.768  -0.174  0.00  0.00    +0.232 C 
ATOM     11  O   UNL     1       0.060   5.044   0.793  0.00  0.00    -0.274 OA
ATOM     12  H   UNL     1       3.127   1.063  -0.213  0.00  0.00    +0.124 HD
ENDROOT
BRANCH   5  13
ATOM     13  C   UNL     1       4.261   2.194  -2.140  0.00  0.00    -0.029 A 
ATOM     14  C   UNL     1       5.120   1.874  -1.105  0.00  0.00    +0.009 A 
ATOM     15  C   UNL     1       6.465   1.680  -1.357  0.00  0.00    +0.046 A 
ATOM     16  C   UNL     1       6.954   1.816  -2.648  0.00  0.00    +0.117 A 
ATOM     17  C   UNL     1       6.091   2.143  -3.684  0.00  0.00    +0.046 A 
ATOM     18  C   UNL     1       4.747   2.331  -3.428  0.00  0.00    +0.009 A 
BRANCH  16  19
ATOM     19  O   UNL     1       8.277   1.631  -2.897  0.00  0.00    -0.507 OA
ATOM     20  H   UNL     1       8.664   1.739  -3.921  0.00  0.00    +0.292 HD
ENDBRANCH  16  19
ENDBRANCH   5  13
BRANCH   9  21
ATOM     21  C   UNL     1       1.045   7.003  -1.119  0.00  0.00    +0.044 A 
ATOM     22  C   UNL     1       0.075   7.547  -0.289  0.00  0.00    +0.024 A 
ATOM     23  C   UNL     1      -0.218   8.895  -0.362  0.00  0.00    +0.002 A 
ATOM     24  C   UNL     1       0.447   9.700  -1.268  0.00  0.00    +0.000 A 
ATOM     25  C   UNL     1       1.411   9.160  -2.100  0.00  0.00    +0.002 A 
ATOM     26  C   UNL     1       1.711   7.814  -2.028  0.00  0.00    +0.024 A 
ENDBRANCH   9  21
BRANCH   2  27
ATOM     27  C   UNL     1      -0.016   1.338   0.009  0.00  0.00    +0.328 C 
ATOM     28  O   UNL     1      -1.071   1.928   0.018  0.00  0.00    -0.249 OA
BRANCH  27  29
ATOM     29  O   UNL     1       0.002  -0.004   0.002  0.00  0.00    -0.467 OA
ATOM     30  C   UNL     1      -1.282  -0.681   0.011  0.00  0.00    +0.280 C 
ENDBRANCH  27  29
ENDBRANCH   2  27
TORSDOF 5
