REMARK  Name = ZINC20799432
REMARK  5 active torsions:
REMARK  status: ('A' for Active; 'I' for Inactive)
REMARK    1  A    between atoms: C_1  and  C_2
REMARK    2  A    between atoms: C_4  and  C_28
REMARK    3  A    between atoms: C_10  and  S_11
REMARK    4  A    between atoms: S_11  and  C_12
REMARK    5  A    between atoms: N_17  and  C_20
REMARK                            x       y       z     vdW  Elec       q    Type
REMARK                         _______ _______ _______ _____ _____    ______ ____
ROOT
ATOM      1  C   UNL     1       0.574  -6.924  -0.117  0.00  0.00    +0.150 C 
ATOM      2  C   UNL     1      -0.452  -8.074  -0.038  0.00  0.00    +0.120 C 
ATOM      3  C   UNL     1      -0.129  -8.746   1.279  0.00  0.00    +0.228 C 
ATOM      4  O   UNL     1      -0.706  -9.710   1.734  0.00  0.00    -0.275 OA
ATOM      5  N   UNL     1       0.894  -8.109   1.860  0.00  0.00    -0.209 N 
ATOM      6  C   UNL     1       1.371  -7.067   1.161  0.00  0.00    +0.240 C 
ATOM      7  O   UNL     1       2.292  -6.354   1.498  0.00  0.00    -0.274 OA
ENDROOT
BRANCH   5   8
ATOM      8  C   UNL     1       1.427  -8.498   3.098  0.00  0.00    +0.045 A 
ATOM      9  C   UNL     1       2.099  -9.707   3.216  0.00  0.00    +0.025 A 
ATOM     10  C   UNL     1       2.623 -10.089   4.435  0.00  0.00    +0.023 A 
ATOM     11  C   UNL     1       2.478  -9.268   5.539  0.00  0.00    +0.059 A 
ATOM     12  C   UNL     1       1.808  -8.062   5.425  0.00  0.00    +0.061 A 
ATOM     13  C   UNL     1       1.286  -7.674   4.205  0.00  0.00    +0.045 A 
ATOM     14 CL   UNL     1       1.628  -7.035   6.812  0.00  0.00    -0.082 Cl
ATOM     15 CL   UNL     1       3.138  -9.752   7.071  0.00  0.00    -0.082 Cl
ENDBRANCH   5   8
BRANCH   1  16
ATOM     16  S   UNL     1      -0.269  -5.319  -0.168  0.00  0.00    -0.072 S 
BRANCH  16  26
ATOM     17  C   UNL     1       1.653   1.335  -0.761  0.00  0.00    +0.066 C 
ATOM     18  C   UNL     1       1.394  -0.144  -0.641  0.00  0.00    +0.044 A 
ATOM     19  C   UNL     1       0.076  -0.613  -0.515  0.00  0.00    +0.044 A 
ATOM     20  C   UNL     1      -0.151  -1.944  -0.408  0.00  0.00    +0.028 A 
ATOM     21  N   UNL     1       0.914  -2.799  -0.424  0.00  0.00    -0.259 N 
ATOM     22  C   UNL     1       2.196  -2.305  -0.549  0.00  0.00    +0.257 A 
ATOM     23  N   UNL     1       2.401  -0.985  -0.659  0.00  0.00    -0.216 NA
ATOM     24  N   UNL     1       3.007  -3.347  -0.535  0.00  0.00    -0.108 NA
ATOM     25  N   UNL     1       2.324  -4.429  -0.412  0.00  0.00    -0.120 NA
ATOM     26  C   UNL     1       1.042  -4.154  -0.341  0.00  0.00    +0.198 A 
ATOM     27  C   UNL     1      -1.556  -2.473  -0.272  0.00  0.00    +0.064 C 
ENDBRANCH  16  26
ENDBRANCH   1  16
TORSDOF 3
