REMARK  Name = ZINC13551183
REMARK  2 active torsions:
REMARK  status: ('A' for Active; 'I' for Inactive)
REMARK    1  A    between atoms: N_11  and  N_12
REMARK    2  A    between atoms: C_13  and  C_14
REMARK                            x       y       z     vdW  Elec       q    Type
REMARK                         _______ _______ _______ _____ _____    ______ ____
ROOT
ATOM      1  C   UNL     1       3.277  -1.777  -0.037  0.00  0.00    +0.022 A 
ATOM      2  C   UNL     1       1.903  -1.680  -0.025  0.00  0.00    +0.033 A 
ATOM      3  C   UNL     1       1.297  -0.423  -0.013  0.00  0.00    +0.111 A 
ATOM      4  C   UNL     1       2.093   0.733  -0.014  0.00  0.00    +0.158 A 
ATOM      5  C   UNL     1       3.474   0.618  -0.027  0.00  0.00    +0.068 A 
ATOM      6  C   UNL     1       4.061  -0.632  -0.039  0.00  0.00    +0.045 A 
ATOM      7 CL   UNL     1       5.791  -0.772  -0.056  0.00  0.00    -0.083 Cl
ATOM      8  O   UNL     1       1.242   1.784  -0.000  0.00  0.00    -0.423 OA
ATOM      9  C   UNL     1      -0.016   1.305   0.009  0.00  0.00    +0.309 A 
ATOM     10  N   UNL     1       0.002  -0.004   0.002  0.00  0.00    -0.194 NA
ATOM     11  N   UNL     1      -1.154   2.078   0.019  0.00  0.00    -0.190 N 
ATOM     12  H   UNL     1      -2.144   1.599   0.021  0.00  0.00    +0.179 HD
ENDROOT
BRANCH  11  13
ATOM     13  N   UNL     1      -1.052   3.475   0.026  0.00  0.00    -0.186 NA
ATOM     14  C   UNL     1      -2.125   4.205   0.035  0.00  0.00    +0.141 C 
BRANCH  14  15
ATOM     15  C   UNL     1      -2.018   5.676   0.043  0.00  0.00    +0.032 A 
ATOM     16  C   UNL     1      -3.121   6.646   0.048  0.00  0.00    +0.050 A 
ATOM     17  C   UNL     1      -2.546   7.860   0.058  0.00  0.00    +0.195 A 
ATOM     18  O   UNL     1      -1.212   7.715   0.050  0.00  0.00    -0.470 OA
ATOM     19  C   UNL     1      -0.875   6.417   0.041  0.00  0.00    +0.204 A 
ENDBRANCH  14  15
ENDBRANCH  11  13
TORSDOF 2
