REMARK  Name = ZINC39969383
REMARK  10 active torsions:
REMARK  status: ('A' for Active; 'I' for Inactive)
REMARK    1  A    between atoms: C_1  and  O_2
REMARK    2  A    between atoms: O_2  and  C_3
REMARK    3  A    between atoms: C_8  and  C_13
REMARK    4  A    between atoms: C_13  and  C_29
REMARK    5  A    between atoms: C_14  and  C_15
REMARK    6  A    between atoms: C_18  and  O_22
REMARK    7  A    between atoms: O_22  and  C_23
REMARK    8  A    between atoms: C_23  and  C_24
REMARK    9  A    between atoms: C_24  and  O_26
REMARK   10  A    between atoms: O_26  and  C_27
REMARK                            x       y       z     vdW  Elec       q    Type
REMARK                         _______ _______ _______ _____ _____    ______ ____
ROOT
ATOM      1  C   UNL     1      -4.744  -4.787  -1.200  0.00  0.00    +0.072 C 
ATOM      2  C   UNL     1      -5.431  -5.942  -1.081  0.00  0.00    +0.026 C 
ENDROOT
BRANCH   1   8
ATOM      3  C   UNL     1      -1.676  -0.250  -0.032  0.00  0.00    +0.122 A 
ATOM      4  C   UNL     1      -2.982   0.319   0.274  0.00  0.00    +0.048 A 
ATOM      5  C   UNL     1      -4.081  -0.449   0.399  0.00  0.00    +0.031 A 
ATOM      6  C   UNL     1      -3.978  -1.906   0.225  0.00  0.00    +0.061 A 
ATOM      7  N   UNL     1      -4.861  -2.860   0.290  0.00  0.00    -0.359 N 
ATOM      8  C   UNL     1      -4.166  -4.125   0.024  0.00  0.00    +0.216 C 
ATOM      9  N   UNL     1      -2.756  -3.784  -0.205  0.00  0.00    -0.359 N 
ATOM     10  C   UNL     1      -2.645  -2.488  -0.088  0.00  0.00    +0.064 A 
ATOM     11  C   UNL     1      -1.501  -1.582  -0.212  0.00  0.00    +0.073 A 
ATOM     12  H   UNL     1      -5.806  -2.755   0.479  0.00  0.00    +0.162 HD
ATOM     13  H   UNL     1      -2.040  -4.406  -0.406  0.00  0.00    +0.162 HD
BRANCH   3  15
ATOM     14  C   UNL     1      -0.842   1.972   0.055  0.00  0.00    +0.277 C 
ATOM     15  O   UNL     1      -0.607   0.576  -0.144  0.00  0.00    -0.495 OA
ENDBRANCH   3  15
ENDBRANCH   1   8
BRANCH   2  16
ATOM     16  C   UNL     1      -5.764  -6.467   0.252  0.00  0.00    -0.021 A 
ATOM     17  C   UNL     1      -6.114  -5.589   1.283  0.00  0.00    +0.031 A 
ATOM     18  C   UNL     1      -6.426  -6.085   2.531  0.00  0.00    +0.085 A 
ATOM     19  C   UNL     1      -6.394  -7.455   2.765  0.00  0.00    +0.158 A 
ATOM     20  C   UNL     1      -6.046  -8.331   1.743  0.00  0.00    +0.085 A 
ATOM     21  C   UNL     1      -5.738  -7.845   0.490  0.00  0.00    +0.031 A 
ATOM     22 CL   UNL     1      -6.006 -10.041   2.043  0.00  0.00    -0.080 Cl
ATOM     23 CL   UNL     1      -6.861  -4.997   3.812  0.00  0.00    -0.080 Cl
BRANCH  19  24
ATOM     24  O   UNL     1      -6.701  -7.939   3.996  0.00  0.00    -0.478 OA
BRANCH  24  25
ATOM     25  C   UNL     1      -8.072  -8.258   4.244  0.00  0.00    +0.349 C 
BRANCH  25  26
ATOM     26  C   UNL     1      -8.221  -8.777   5.651  0.00  0.00    +0.345 C 
ATOM     27  O   UNL     1      -7.252  -8.864   6.368  0.00  0.00    -0.247 OA
BRANCH  26  28
ATOM     28  O   UNL     1      -9.429  -9.141   6.107  0.00  0.00    -0.466 OA
ATOM     29  C   UNL     1      -9.496  -9.624   7.451  0.00  0.00    +0.280 C 
ENDBRANCH  26  28
ENDBRANCH  25  26
ENDBRANCH  24  25
ENDBRANCH  19  24
ENDBRANCH   2  16
BRANCH   1  30
ATOM     30  C   UNL     1      -4.565  -4.189  -2.489  0.00  0.00    +0.099 C 
ATOM     31  N   UNL     1      -4.423  -3.715  -3.511  0.00  0.00    -0.191 NA
ENDBRANCH   1  30
TORSDOF 8
