REMARK  Name = ZINC66813896
REMARK  2 active torsions:
REMARK  status: ('A' for Active; 'I' for Inactive)
REMARK    1  A    between atoms: C_6  and  C_7
REMARK    2  A    between atoms: N_10  and  C_14
REMARK                            x       y       z     vdW  Elec       q    Type
REMARK                         _______ _______ _______ _____ _____    ______ ____
ROOT
ATOM      1  C   UNL     1      -1.293  -0.775   0.010  0.00  0.00    +0.166 C 
ATOM      2  C   UNL     1      -1.654  -1.155   1.451  0.00  0.00    +0.143 C 
ATOM      3  N   UNL     1      -2.813  -2.060   1.416  0.00  0.00    -0.308 N 
ATOM      4  C   UNL     1      -2.752  -3.227   0.522  0.00  0.00    +0.134 C 
ATOM      5  C   UNL     1      -2.338  -2.746  -0.874  0.00  0.00    +0.179 C 
ATOM      6  O   UNL     1      -1.146  -1.964  -0.768  0.00  0.00    -0.369 OA
ENDROOT
BRANCH   3   7
ATOM      7  C   UNL     1      -3.928  -1.821   2.201  0.00  0.00    +0.152 A 
ATOM      8  C   UNL     1      -5.032  -2.689   2.164  0.00  0.00    +0.147 A 
ATOM      9  C   UNL     1      -6.135  -2.395   2.984  0.00  0.00    +0.163 A 
ATOM     10  N   UNL     1      -7.053  -3.387   2.753  0.00  0.00    -0.329 N 
ATOM     11  C   UNL     1      -6.515  -4.236   1.832  0.00  0.00    +0.198 A 
ATOM     12  N   UNL     1      -5.329  -3.825   1.487  0.00  0.00    -0.231 NA
ATOM     13  H   UNL     1      -7.926  -3.470   3.169  0.00  0.00    +0.168 HD
ATOM     14  N   UNL     1      -6.094  -1.316   3.758  0.00  0.00    -0.216 NA
ATOM     15  C   UNL     1      -5.037  -0.531   3.760  0.00  0.00    +0.225 A 
ATOM     16  N   UNL     1      -3.976  -0.769   3.011  0.00  0.00    -0.218 NA
ENDBRANCH   3   7
BRANCH   1  22
ATOM     17  C   UNL     1      -0.017   1.378   0.010  0.00  0.00    +0.009 A 
ATOM     18  C   UNL     1       1.170   2.086   0.002  0.00  0.00    +0.040 A 
ATOM     19  C   UNL     1       2.379   1.412  -0.013  0.00  0.00    +0.142 A 
ATOM     20  C   UNL     1       2.397   0.026  -0.021  0.00  0.00    +0.076 A 
ATOM     21  C   UNL     1       1.208  -0.680  -0.013  0.00  0.00    +0.029 A 
ATOM     22  C   UNL     1       0.002  -0.004   0.002  0.00  0.00    -0.016 A 
ATOM     23 CL   UNL     1       3.911  -0.823  -0.040  0.00  0.00    -0.081 Cl
ATOM     24  F   UNL     1       3.539   2.103  -0.021  0.00  0.00    -0.204 F 
ENDBRANCH   1  22
TORSDOF 2
