REMARK  Name = ZINC13878641
REMARK  12 active torsions:
REMARK  status: ('A' for Active; 'I' for Inactive)
REMARK    1  A    between atoms: C_1  and  C_2
REMARK    2  A    between atoms: C_3  and  O_25
REMARK    3  A    between atoms: C_4  and  C_10
REMARK    4  A    between atoms: C_5  and  C_8
REMARK    5  A    between atoms: C_8  and  O_9
REMARK    6  A    between atoms: N_11  and  N_12
REMARK    7  A    between atoms: N_12  and  C_13
REMARK    8  A    between atoms: C_13  and  N_15
REMARK    9  A    between atoms: N_15  and  C_16
REMARK   10  A    between atoms: C_19  and  C_22
REMARK   11  A    between atoms: C_22  and  C_23
REMARK   12  A    between atoms: C_22  and  C_24
REMARK                            x       y       z     vdW  Elec       q    Type
REMARK                         _______ _______ _______ _____ _____    ______ ____
ROOT
ATOM      1  N   UNL     1      -0.396  -2.934  -4.804  0.00  0.00    -0.218 N 
ATOM      2  H   UNL     1      -0.667  -3.865  -4.780  0.00  0.00    +0.176 HD
ENDROOT
BRANCH   1   4
ATOM      3  C   UNL     1      -0.013  -2.933  -2.497  0.00  0.00    +0.142 C 
ATOM      4  N   UNL     1      -0.009  -2.287  -3.623  0.00  0.00    -0.188 NA
BRANCH   3   8
ATOM      5  C   UNL     1       1.591   1.137  -0.066  0.00  0.00    +0.069 C 
ATOM      6  C   UNL     1       1.163  -0.308  -0.073  0.00  0.00    +0.080 A 
ATOM      7  C   UNL     1       0.790  -0.904  -1.266  0.00  0.00    +0.147 A 
ATOM      8  C   UNL     1       0.394  -2.253  -1.255  0.00  0.00    +0.045 A 
ATOM      9  C   UNL     1       0.397  -2.931  -0.029  0.00  0.00    +0.008 A 
ATOM     10  C   UNL     1       0.784  -2.255   1.108  0.00  0.00    +0.117 A 
ATOM     11  N   UNL     1       1.154  -0.990   1.056  0.00  0.00    -0.256 NA
BRANCH   7  12
ATOM     12  O   UNL     1       0.806  -0.198  -2.426  0.00  0.00    -0.504 OA
ATOM     13  H   UNL     1       1.647  -0.240  -2.901  0.00  0.00    +0.292 HD
ENDBRANCH   7  12
BRANCH   9  14
ATOM     14  C   UNL     1      -0.018  -4.378   0.045  0.00  0.00    +0.193 C 
BRANCH  14  15
ATOM     15  O   UNL     1       0.072  -4.831   1.397  0.00  0.00    -0.390 OA
ATOM     16  H   UNL     1      -0.181  -5.756   1.520  0.00  0.00    +0.210 HD
ENDBRANCH  14  15
ENDBRANCH   9  14
ENDBRANCH   3   8
ENDBRANCH   1   4
BRANCH   1  17
ATOM     17  C   UNL     1      -0.392  -2.262  -5.973  0.00  0.00    +0.154 C 
ATOM     18  S   UNL     1      -0.865  -3.053  -7.416  0.00  0.00    -0.017 S 
BRANCH  17  19
ATOM     19  N   UNL     1      -0.016  -0.969  -6.005  0.00  0.00    -0.296 N 
ATOM     20  H   UNL     1       0.193  -0.503  -5.180  0.00  0.00    +0.154 HD
BRANCH  19  21
ATOM     21  C   UNL     1       0.074  -0.297  -7.229  0.00  0.00    +0.033 A 
ATOM     22  C   UNL     1      -0.942  -0.421  -8.167  0.00  0.00    +0.023 A 
ATOM     23  C   UNL     1      -0.851   0.243  -9.374  0.00  0.00    +0.006 A 
ATOM     24  C   UNL     1       0.251   1.032  -9.649  0.00  0.00    -0.045 A 
ATOM     25  C   UNL     1       1.265   1.158  -8.717  0.00  0.00    +0.006 A 
ATOM     26  C   UNL     1       1.177   0.500  -7.506  0.00  0.00    +0.023 A 
BRANCH  24  27
ATOM     27  C   UNL     1       0.348   1.756 -10.967  0.00  0.00    +0.013 C 
ATOM     28  C   UNL     1       0.436   3.262 -10.717  0.00  0.00    +0.012 C 
ATOM     29  C   UNL     1       1.599   1.289 -11.715  0.00  0.00    +0.012 C 
ENDBRANCH  24  27
ENDBRANCH  19  21
ENDBRANCH  17  19
ENDBRANCH   1  17
TORSDOF 9
