REMARK  Name = ZINC20581542
REMARK  5 active torsions:
REMARK  status: ('A' for Active; 'I' for Inactive)
REMARK    1  A    between atoms: C_3  and  N_31
REMARK    2  A    between atoms: C_6  and  C_7
REMARK    3  A    between atoms: C_8  and  C_9
REMARK    4  A    between atoms: C_15  and  C_17
REMARK    5  A    between atoms: N_22  and  C_24
REMARK                            x       y       z     vdW  Elec       q    Type
REMARK                         _______ _______ _______ _____ _____    ______ ____
ROOT
ATOM      1  C   UNL     1       3.818   3.127   0.013  0.00  0.00    +0.243 C 
ATOM      2  O   UNL     1       4.376   2.045   0.012  0.00  0.00    -0.270 OA
ATOM      3  N   UNL     1       2.472   3.192   0.012  0.00  0.00    -0.260 N 
ATOM      4  C   UNL     1       1.721   2.023   0.010  0.00  0.00    +0.188 A 
ATOM      5  N   UNL     1       2.113   0.756   0.008  0.00  0.00    -0.126 NA
ATOM      6  N   UNL     1       1.286  -0.196   0.006  0.00  0.00    -0.144 NA
ATOM      7  C   UNL     1      -0.017   0.005   0.005  0.00  0.00    +0.109 A 
ATOM      8  S   UNL     1      -0.055   1.795   0.008  0.00  0.00    -0.035 S 
ATOM      9  H   UNL     1       1.968   4.169   0.013  0.00  0.00    +0.157 HD
ENDROOT
BRANCH   7  10
ATOM     10  C   UNL     1      -1.150  -0.988   0.003  0.00  0.00    +0.073 C 
ATOM     11  C   UNL     1      -1.027  -1.966  -1.188  0.00  0.00    +0.108 C 
ATOM     12  C   UNL     1      -1.495  -3.292  -0.629  0.00  0.00    +0.220 C 
ATOM     13  O   UNL     1      -1.817  -4.252  -1.296  0.00  0.00    -0.275 OA
ATOM     14  N   UNL     1      -1.502  -3.251   0.714  0.00  0.00    -0.271 N 
ATOM     15  C   UNL     1      -1.048  -1.946   1.210  0.00  0.00    +0.124 C 
BRANCH  14  16
ATOM     16  C   UNL     1      -1.894  -4.315   1.535  0.00  0.00    +0.036 A 
ATOM     17  C   UNL     1      -2.428  -5.467   0.973  0.00  0.00    +0.026 A 
ATOM     18  C   UNL     1      -2.809  -6.518   1.784  0.00  0.00    +0.040 A 
ATOM     19  C   UNL     1      -2.669  -6.419   3.158  0.00  0.00    +0.124 A 
ATOM     20  C   UNL     1      -2.141  -5.269   3.721  0.00  0.00    +0.040 A 
ATOM     21  C   UNL     1      -1.754  -4.218   2.913  0.00  0.00    +0.026 A 
ATOM     22  F   UNL     1      -3.047  -7.446   3.950  0.00  0.00    -0.205 F 
ENDBRANCH  14  16
ENDBRANCH   7  10
BRANCH   1  24
ATOM     23  C   UNL     1       5.957   4.293   0.017  0.00  0.00    +0.013 C 
ATOM     24  C   UNL     1       4.610   4.358   0.016  0.00  0.00    +0.068 C 
BRANCH  23  30
ATOM     25  C   UNL     1       6.116   6.777   0.015  0.00  0.00    +0.010 A 
ATOM     26  C   UNL     1       6.869   7.932   0.022  0.00  0.00    +0.033 A 
ATOM     27  C   UNL     1       8.251   7.861   0.023  0.00  0.00    +0.126 A 
ATOM     28  C   UNL     1       8.889   6.633   0.022  0.00  0.00    +0.033 A 
ATOM     29  C   UNL     1       8.150   5.469   0.020  0.00  0.00    +0.010 A 
ATOM     30  C   UNL     1       6.753   5.532   0.019  0.00  0.00    -0.025 A 
BRANCH  27  31
ATOM     31  N   UNL     1       9.052   9.106   0.025  0.00  0.00    +0.056 N 
ATOM     32  O   UNL     1      10.268   9.048   0.026  0.00  0.00    -0.126 OA
ATOM     33  O   UNL     1       8.494  10.189   0.026  0.00  0.00    -0.126 OA
ENDBRANCH  27  31
ENDBRANCH  23  30
ENDBRANCH   1  24
TORSDOF 5
