REMARK  Name = ZINC11789415
REMARK  7 active torsions:
REMARK  status: ('A' for Active; 'I' for Inactive)
REMARK    1  A    between atoms: C_5  and  C_7
REMARK    2  A    between atoms: C_7  and  O_8
REMARK    3  A    between atoms: O_8  and  C_9
REMARK    4  A    between atoms: C_10  and  C_20
REMARK    5  A    between atoms: C_20  and  N_48
REMARK    6  A    between atoms: C_21  and  C_22
REMARK    7  A    between atoms: C_21  and  N_48
REMARK                            x       y       z     vdW  Elec       q    Type
REMARK                         _______ _______ _______ _____ _____    ______ ____
ROOT
ATOM      1  C   UNL     1       6.484  -4.270  -3.556  0.00  0.00    +0.217 A 
ATOM      2  C   UNL     1       5.475  -5.006  -2.923  0.00  0.00    -0.002 A 
ATOM      3  C   UNL     1       4.817  -5.985  -3.607  0.00  0.00    +0.017 A 
ATOM      4  C   UNL     1       5.186  -6.227  -4.946  0.00  0.00    +0.001 A 
ATOM      5  C   UNL     1       4.550  -7.219  -5.709  0.00  0.00    +0.013 A 
ATOM      6  C   UNL     1       4.932  -7.426  -6.999  0.00  0.00    +0.039 A 
ATOM      7  C   UNL     1       5.948  -6.662  -7.574  0.00  0.00    +0.125 A 
ATOM      8  C   UNL     1       6.586  -5.691  -6.861  0.00  0.00    +0.066 A 
ATOM      9  C   UNL     1       6.218  -5.450  -5.527  0.00  0.00    +0.078 A 
ATOM     10  N   UNL     1       6.827  -4.503  -4.805  0.00  0.00    -0.213 NA
ATOM     11  F   UNL     1       6.306  -6.889  -8.857  0.00  0.00    -0.205 F 
ENDROOT
BRANCH   1  12
ATOM     12  O   UNL     1       7.125  -3.296  -2.864  0.00  0.00    -0.471 OA
BRANCH  12  13
ATOM     13  C   UNL     1       8.146  -2.574  -3.556  0.00  0.00    +0.267 C 
BRANCH  13  18
ATOM     14  C   UNL     1       8.823  -0.471  -0.495  0.00  0.00    +0.000 A 
ATOM     15  C   UNL     1       9.836   0.355  -0.945  0.00  0.00    +0.001 A 
ATOM     16  C   UNL     1      10.303   0.233  -2.240  0.00  0.00    +0.020 A 
ATOM     17  C   UNL     1       9.757  -0.715  -3.086  0.00  0.00    +0.047 A 
ATOM     18  C   UNL     1       8.743  -1.541  -2.635  0.00  0.00    +0.008 A 
ATOM     19  C   UNL     1       8.273  -1.415  -1.341  0.00  0.00    +0.008 A 
ATOM     20 CL   UNL     1      10.342  -0.868  -4.713  0.00  0.00    -0.083 Cl
ENDBRANCH  13  18
ENDBRANCH  12  13
ENDBRANCH   1  12
BRANCH   2  21
ATOM     21  C   UNL     1       5.113  -4.714  -1.490  0.00  0.00    -0.041 C 
BRANCH  21  22
ATOM     22  N   UNL     1       4.238  -3.527  -1.445  0.00  0.00    +0.386 N 
ATOM     23  H   UNL     1       3.387  -3.714  -1.989  0.00  0.00    -0.085 HD
ATOM     24  H   UNL     1       4.734  -2.725  -1.850  0.00  0.00    -0.085 HD
BRANCH  22  25
ATOM     25  C   UNL     1       3.867  -3.217  -0.052  0.00  0.00    -0.024 C 
BRANCH  25  26
ATOM     26  C   UNL     1       2.974  -2.003  -0.037  0.00  0.00    +0.044 A 
ATOM     27  C   UNL     1       1.631  -2.016  -0.024  0.00  0.00    +0.114 A 
ATOM     28  N   UNL     1       1.195  -0.694  -0.013  0.00  0.00    -0.300 N 
ATOM     29  C   UNL     1       0.002  -0.004   0.002  0.00  0.00    +0.100 A 
ATOM     30  C   UNL     1      -0.016   1.328   0.009  0.00  0.00    +0.067 A 
ATOM     31  S   UNL     1       1.726   1.720  -0.005  0.00  0.00    -0.058 S 
ATOM     32  C   UNL     1       2.343   0.054  -0.020  0.00  0.00    +0.177 A 
ATOM     33  N   UNL     1       3.386  -0.726  -0.034  0.00  0.00    -0.228 NA
ENDBRANCH  25  26
ENDBRANCH  22  25
ENDBRANCH  21  22
ENDBRANCH   2  21
TORSDOF 7
