REMARK  Name = ZINC63494377
REMARK  5 active torsions:
REMARK  status: ('A' for Active; 'I' for Inactive)
REMARK    1  A    between atoms: C_1  and  C_2
REMARK    2  A    between atoms: C_11  and  C_17
REMARK    3  A    between atoms: N_19  and  C_20
REMARK    4  A    between atoms: C_20  and  C_21
REMARK    5  A    between atoms: C_21  and  C_26
REMARK                            x       y       z     vdW  Elec       q    Type
REMARK                         _______ _______ _______ _____ _____    ______ ____
ROOT
ATOM      1  C   UNL     1       0.013   1.619   0.074  0.00  0.00    +0.044 C 
ATOM      2  C   UNL     1       0.011   0.112   0.052  0.00  0.00    -0.050 A 
ATOM      3  C   UNL     1      -0.002  -0.558  -1.167  0.00  0.00    +0.005 A 
ATOM      4  C   UNL     1      -0.004  -1.921  -1.218  0.00  0.00    +0.024 A 
ATOM      5  C   UNL     1       0.008  -2.669  -0.030  0.00  0.00    +0.042 A 
ATOM      6  N   UNL     1       0.006  -4.007  -0.080  0.00  0.00    -0.281 N 
ATOM      7  C   UNL     1       0.017  -4.784   0.985  0.00  0.00    +0.249 C 
ATOM      8  O   UNL     1       0.014  -5.998   0.849  0.00  0.00    -0.270 OA
ATOM      9  C   UNL     1       0.032  -4.190   2.359  0.00  0.00    +0.049 C 
ATOM     10  C   UNL     1       0.045  -4.848   3.535  0.00  0.00    +0.011 C 
ATOM     11  C   UNL     1       0.059  -3.971   4.766  0.00  0.00    +0.160 C 
ATOM     12  S   UNL     1       0.053  -2.292   4.023  0.00  0.00    -0.107 S 
ATOM     13  C   UNL     1       0.034  -2.720   2.408  0.00  0.00    +0.030 C 
ATOM     14  C   UNL     1       0.022  -1.983   1.212  0.00  0.00    +0.011 A 
ATOM     15  C   UNL     1       0.029  -0.579   1.227  0.00  0.00    +0.014 A 
ATOM     16  H   UNL     1      -0.004  -4.431  -0.952  0.00  0.00    +0.155 HD
ENDROOT
BRANCH  11  17
ATOM     17  C   UNL     1       1.309  -4.199   5.577  0.00  0.00    +0.230 C 
ATOM     18  O   UNL     1       2.358  -4.442   5.019  0.00  0.00    -0.274 OA
ATOM     19  N   UNL     1       1.262  -4.131   6.922  0.00  0.00    -0.313 N 
ATOM     20  H   UNL     1       0.423  -3.937   7.369  0.00  0.00    +0.149 HD
BRANCH  19  21
ATOM     21  C   UNL     1       2.477  -4.353   7.710  0.00  0.00    +0.115 C 
BRANCH  21  22
ATOM     22  C   UNL     1       2.178  -4.100   9.189  0.00  0.00    +0.011 C 
ATOM     23  C   UNL     1       1.635  -2.673   9.381  0.00  0.00    +0.013 C 
ATOM     24  C   UNL     1       2.625  -1.947  10.315  0.00  0.00    +0.001 C 
ATOM     25  C   UNL     1       3.954  -2.722  10.137  0.00  0.00    +0.001 C 
ATOM     26  C   UNL     1       3.479  -4.191  10.014  0.00  0.00    +0.013 C 
BRANCH  22  27
ATOM     27  C   UNL     1       1.176  -5.106   9.693  0.00  0.00    -0.040 A 
ATOM     28  C   UNL     1       0.767  -6.143   8.875  0.00  0.00    +0.004 A 
ATOM     29  C   UNL     1      -0.152  -7.066   9.337  0.00  0.00    +0.000 A 
ATOM     30  C   UNL     1      -0.662  -6.953  10.617  0.00  0.00    +0.000 A 
ATOM     31  C   UNL     1      -0.252  -5.917  11.435  0.00  0.00    +0.000 A 
ATOM     32  C   UNL     1       0.670  -4.996  10.975  0.00  0.00    +0.004 A 
ENDBRANCH  22  27
ENDBRANCH  21  22
ENDBRANCH  19  21
ENDBRANCH  11  17
TORSDOF 4
