REMARK  Name = ZINC20849122
REMARK  8 active torsions:
REMARK  status: ('A' for Active; 'I' for Inactive)
REMARK    1  A    between atoms: C_1  and  C_2
REMARK    2  A    between atoms: C_5  and  N_9
REMARK    3  A    between atoms: C_7  and  C_8
REMARK    4  A    between atoms: C_10  and  C_23
REMARK    5  A    between atoms: C_11  and  C_14
REMARK    6  A    between atoms: C_16  and  C_22
REMARK    7  A    between atoms: C_17  and  C_19
REMARK    8  A    between atoms: C_19  and  C_21
REMARK                            x       y       z     vdW  Elec       q    Type
REMARK                         _______ _______ _______ _____ _____    ______ ____
ROOT
ATOM      1  N   UNL     1      -8.254   2.472   0.192  0.00  0.00    -0.217 N 
ATOM      2  C   UNL     1      -7.171   2.585   0.996  0.00  0.00    +0.072 A 
ATOM      3  C   UNL     1      -6.097   2.152   0.272  0.00  0.00    +0.141 A 
ATOM      4  N   UNL     1      -6.523   1.790  -0.949  0.00  0.00    -0.127 NA
ATOM      5  N   UNL     1      -7.796   1.961  -1.031  0.00  0.00    -0.060 NA
ATOM      6  C   UNL     1      -7.154   3.091   2.415  0.00  0.00    +0.068 C 
ENDROOT
BRANCH   1  11
ATOM      7  C   UNL     1     -13.609   3.811   1.512  0.00  0.00    +0.044 C 
ATOM      8  C   UNL     1     -12.187   3.455   1.162  0.00  0.00    -0.047 A 
ATOM      9  C   UNL     1     -11.152   4.287   1.548  0.00  0.00    +0.006 A 
ATOM     10  C   UNL     1      -9.848   3.964   1.229  0.00  0.00    +0.028 A 
ATOM     11  C   UNL     1      -9.577   2.803   0.518  0.00  0.00    +0.068 A 
ATOM     12  C   UNL     1     -10.618   1.972   0.127  0.00  0.00    +0.031 A 
ATOM     13  C   UNL     1     -11.920   2.298   0.454  0.00  0.00    -0.046 A 
ATOM     14  C   UNL     1     -13.050   1.395   0.033  0.00  0.00    +0.044 C 
ENDBRANCH   1  11
BRANCH   3  15
ATOM     15  C   UNL     1      -4.701   2.098   0.750  0.00  0.00    +0.131 A 
ATOM     16  N   UNL     1      -4.215   2.443   1.937  0.00  0.00    -0.242 NA
ATOM     17  C   UNL     1      -2.946   2.336   2.213  0.00  0.00    +0.057 A 
ATOM     18  C   UNL     1      -2.105   1.843   1.216  0.00  0.00    +0.077 A 
ATOM     19  S   UNL     1      -3.282   1.571  -0.101  0.00  0.00    -0.062 S 
ATOM     20  C   UNL     1      -2.407   2.731   3.564  0.00  0.00    +0.067 C 
BRANCH  18  21
ATOM     21  C   UNL     1      -0.711   1.625   1.239  0.00  0.00    +0.168 C 
ATOM     22  O   UNL     1      -0.073   1.880   2.241  0.00  0.00    -0.292 OA
ATOM     23  C   UNL     1      -0.014   1.076   0.021  0.00  0.00    +0.092 C 
ENDBRANCH  18  21
ENDBRANCH   3  15
TORSDOF 3
