REMARK  Name = ZINC39675328
REMARK  10 active torsions:
REMARK  status: ('A' for Active; 'I' for Inactive)
REMARK    1  A    between atoms: C_1  and  C_2
REMARK    2  A    between atoms: C_6  and  C_9
REMARK    3  A    between atoms: C_13  and  C_22
REMARK    4  A    between atoms: N_24  and  C_25
REMARK    5  A    between atoms: C_25  and  C_27
REMARK    6  A    between atoms: C_25  and  C_28
REMARK    7  A    between atoms: C_28  and  C_29
REMARK    8  A    between atoms: C_29  and  C_30
REMARK    9  A    between atoms: C_33  and  O_36
REMARK   10  A    between atoms: O_36  and  C_37
REMARK                            x       y       z     vdW  Elec       q    Type
REMARK                         _______ _______ _______ _____ _____    ______ ____
ROOT
ATOM      1  C   UNL     1       0.085  -2.895   2.598  0.00  0.00    +0.252 C 
ATOM      2  O   UNL     1       1.130  -3.247   3.111  0.00  0.00    -0.270 OA
ATOM      3  N   UNL     1      -1.091  -3.267   3.141  0.00  0.00    -0.296 N 
ATOM      4  C   UNL     1      -2.455  -2.945   2.660  0.00  0.00    +0.121 C 
ATOM      5  C   UNL     1      -3.264  -4.243   2.883  0.00  0.00    +0.100 C 
ATOM      6  C   UNL     1      -2.510  -4.988   3.997  0.00  0.00    -0.004 C 
ATOM      7  C   UNL     1      -1.312  -4.095   4.351  0.00  0.00    +0.115 C 
ATOM      8  C   UNL     1      -3.411  -5.171   5.215  0.00  0.00    -0.010 C 
ATOM      9  C   UNL     1      -2.659  -5.965   6.286  0.00  0.00    -0.082 C 
ATOM     10  N   UNL     1      -2.264  -7.271   5.744  0.00  0.00    +0.379 N 
ATOM     11  C   UNL     1      -1.324  -7.088   4.631  0.00  0.00    -0.082 C 
ATOM     12  C   UNL     1      -2.019  -6.341   3.490  0.00  0.00    -0.010 C 
ATOM     13  H   UNL     1      -1.823  -7.816   6.469  0.00  0.00    -0.086 HD
ATOM     14  H   UNL     1      -3.083  -7.758   5.413  0.00  0.00    -0.086 HD
ENDROOT
BRANCH   1  20
ATOM     15  C   UNL     1       0.143   1.609   0.445  0.00  0.00    +0.047 C 
ATOM     16  C   UNL     1       0.133   0.106   0.337  0.00  0.00    -0.014 A 
ATOM     17  C   UNL     1       0.142  -0.496  -0.908  0.00  0.00    +0.009 A 
ATOM     18  C   UNL     1       0.133  -1.874  -1.019  0.00  0.00    +0.039 A 
ATOM     19  C   UNL     1       0.114  -2.663   0.117  0.00  0.00    +0.138 A 
ATOM     20  C   UNL     1       0.105  -2.062   1.380  0.00  0.00    +0.107 A 
ATOM     21  C   UNL     1       0.120  -0.667   1.482  0.00  0.00    +0.141 A 
ATOM     22  F   UNL     1       0.117  -0.076   2.698  0.00  0.00    -0.204 F 
ATOM     23  F   UNL     1       0.105  -4.009   0.007  0.00  0.00    -0.205 F 
ENDBRANCH   1  20
BRANCH   5  24
ATOM     24  C   UNL     1      -4.668  -3.917   3.324  0.00  0.00    +0.218 C 
ATOM     25  O   UNL     1      -4.882  -2.918   3.976  0.00  0.00    -0.275 OA
ATOM     26  N   UNL     1      -5.685  -4.738   2.993  0.00  0.00    -0.312 N 
ATOM     27  H   UNL     1      -5.513  -5.537   2.472  0.00  0.00    +0.149 HD
BRANCH  26  28
ATOM     28  C   UNL     1      -7.050  -4.421   3.421  0.00  0.00    +0.070 C 
ATOM     29  C   UNL     1      -7.276  -4.952   4.838  0.00  0.00    +0.028 C 
BRANCH  28  30
ATOM     30  C   UNL     1      -8.049  -5.076   2.466  0.00  0.00    +0.026 C 
BRANCH  30  31
ATOM     31  C   UNL     1      -7.907  -4.455   1.075  0.00  0.00    +0.037 C 
BRANCH  31  32
ATOM     32  C   UNL     1      -8.891  -5.101   0.133  0.00  0.00    -0.047 A 
ATOM     33  C   UNL     1      -8.526  -6.228  -0.580  0.00  0.00    +0.007 A 
ATOM     34  C   UNL     1      -9.426  -6.821  -1.444  0.00  0.00    +0.046 A 
ATOM     35  C   UNL     1     -10.697  -6.285  -1.595  0.00  0.00    +0.120 A 
ATOM     36  C   UNL     1     -11.060  -5.154  -0.878  0.00  0.00    +0.046 A 
ATOM     37  C   UNL     1     -10.159  -4.568  -0.011  0.00  0.00    +0.007 A 
BRANCH  35  38
ATOM     38  O   UNL     1     -11.584  -6.866  -2.445  0.00  0.00    -0.495 OA
ATOM     39  C   UNL     1     -12.874  -6.261  -2.550  0.00  0.00    +0.277 C 
ENDBRANCH  35  38
ENDBRANCH  31  32
ENDBRANCH  30  31
ENDBRANCH  28  30
ENDBRANCH  26  28
ENDBRANCH   5  24
TORSDOF 7
