REMARK  Name = ZINC49482292
REMARK  4 active torsions:
REMARK  status: ('A' for Active; 'I' for Inactive)
REMARK    1  A    between atoms: C_1  and  C_2
REMARK    2  A    between atoms: C_4  and  C_7
REMARK    3  A    between atoms: C_11  and  C_13
REMARK    4  A    between atoms: N_18  and  C_20
REMARK                            x       y       z     vdW  Elec       q    Type
REMARK                         _______ _______ _______ _____ _____    ______ ____
ROOT
ATOM      1  C   UNL     1       0.038  -3.206  -1.697  0.00  0.00    +0.112 C 
ATOM      2  C   UNL     1       0.898  -4.387  -1.212  0.00  0.00    +0.122 C 
ATOM      3  N   UNL     1      -0.201  -5.251  -1.685  0.00  0.00    -0.295 N 
ATOM      4  C   UNL     1      -1.169  -4.148  -1.534  0.00  0.00    +0.122 C 
ATOM      5  C   UNL     1      -0.287  -6.534  -2.091  0.00  0.00    +0.267 C 
ATOM      6  O   UNL     1       0.708  -7.231  -2.114  0.00  0.00    -0.268 OA
ENDROOT
BRANCH   5   7
ATOM      7  C   UNL     1      -1.591  -7.091  -2.510  0.00  0.00    +0.146 A 
ATOM      8  C   UNL     1      -1.679  -8.440  -2.931  0.00  0.00    +0.040 A 
ATOM      9  C   UNL     1      -2.898  -8.919  -3.309  0.00  0.00    +0.074 A 
ATOM     10  C   UNL     1      -4.001  -8.038  -3.257  0.00  0.00    +0.267 A 
ATOM     11  O   UNL     1      -5.111  -8.423  -3.586  0.00  0.00    -0.266 OA
ATOM     12  N   UNL     1      -3.818  -6.770  -2.842  0.00  0.00    -0.232 N 
ATOM     13  N   UNL     1      -2.665  -6.335  -2.485  0.00  0.00    -0.164 NA
ATOM     14  C   UNL     1      -4.969  -5.865  -2.793  0.00  0.00    +0.176 C 
ENDBRANCH   5   7
BRANCH   1  18
ATOM     15  C   UNL     1      -0.018   1.503   0.010  0.00  0.00    +0.091 C 
ATOM     16  C   UNL     1       0.002  -0.004   0.002  0.00  0.00    +0.169 A 
ATOM     17  N   UNL     1       0.008  -0.776  -1.091  0.00  0.00    -0.196 NA
ATOM     18  C   UNL     1       0.026  -2.034  -0.750  0.00  0.00    +0.233 A 
ATOM     19  O   UNL     1       0.033  -2.107   0.587  0.00  0.00    -0.338 OA
ATOM     20  N   UNL     1       0.023  -0.767   1.057  0.00  0.00    -0.062 NA
ENDBRANCH   1  18
TORSDOF 2
