REMARK  Name = ZINC19973052
REMARK  8 active torsions:
REMARK  status: ('A' for Active; 'I' for Inactive)
REMARK    1  A    between atoms: C_1  and  C_2
REMARK    2  A    between atoms: C_12  and  C_14
REMARK    3  A    between atoms: C_14  and  C_16
REMARK    4  A    between atoms: C_14  and  N_25
REMARK    5  A    between atoms: N_20  and  C_21
REMARK    6  A    between atoms: C_21  and  C_22
REMARK    7  A    between atoms: C_21  and  C_23
REMARK    8  A    between atoms: C_21  and  C_24
REMARK                            x       y       z     vdW  Elec       q    Type
REMARK                         _______ _______ _______ _____ _____    ______ ____
ROOT
ATOM      1  C   UNL     1       0.107  -2.860   5.057  0.00  0.00    +0.162 C 
ENDROOT
BRANCH   1   2
ATOM      2  N   UNL     1      -0.987  -2.531   5.981  0.00  0.00    -0.286 NA
ATOM      3  C   UNL     1      -0.971  -1.103   6.328  0.00  0.00    +0.104 C 
ATOM      4  C   UNL     1      -2.168  -0.786   7.227  0.00  0.00    +0.122 C 
ATOM      5  N   UNL     1      -2.105  -1.619   8.435  0.00  0.00    -0.307 N 
ATOM      6  C   UNL     1      -2.121  -3.047   8.088  0.00  0.00    +0.122 C 
ATOM      7  C   UNL     1      -0.923  -3.365   7.190  0.00  0.00    +0.104 C 
ATOM      8  C   UNL     1      -3.132  -1.310   9.304  0.00  0.00    +0.162 A 
ATOM      9  N   UNL     1      -3.441  -0.149   9.834  0.00  0.00    -0.225 NA
ATOM     10  C   UNL     1      -4.486   0.009  10.677  0.00  0.00    +0.080 A 
ATOM     11  C   UNL     1      -4.924   1.194  11.311  0.00  0.00    +0.029 A 
ATOM     12  C   UNL     1      -6.012   1.182  12.144  0.00  0.00    +0.002 A 
ATOM     13  C   UNL     1      -6.720   0.015  12.394  0.00  0.00    +0.001 A 
ATOM     14  C   UNL     1      -6.319  -1.163  11.790  0.00  0.00    +0.017 A 
ATOM     15  C   UNL     1      -5.231  -1.159  10.954  0.00  0.00    +0.041 A 
ATOM     16  S   UNL     1      -4.385  -2.386   9.987  0.00  0.00    -0.052 S 
ENDBRANCH   1   2
BRANCH   1  28
ATOM     17  C   UNL     1      -1.570   0.418  -0.388  0.00  0.00    +0.046 C 
ATOM     18  C   UNL     1      -0.324   0.466   0.459  0.00  0.00    -0.026 A 
ATOM     19  C   UNL     1       0.712   1.309   0.118  0.00  0.00    +0.005 A 
ATOM     20  C   UNL     1       1.863   1.366   0.893  0.00  0.00    +0.001 A 
ATOM     21  C   UNL     1       1.994   0.579   2.002  0.00  0.00    +0.010 A 
ATOM     22  C   UNL     1       0.958  -0.287   2.364  0.00  0.00    -0.001 A 
ATOM     23  C   UNL     1      -0.213  -0.344   1.584  0.00  0.00    +0.052 A 
ATOM     24  N   UNL     1      -1.232  -1.200   1.945  0.00  0.00    -0.322 N 
ATOM     25  H   UNL     1      -2.149  -1.250   1.340  0.00  0.00    +0.169 HD
ATOM     26  C   UNL     1      -1.124  -1.984   3.032  0.00  0.00    +0.254 A 
ATOM     27  O   UNL     1      -2.044  -2.729   3.321  0.00  0.00    -0.268 OA
ATOM     28  C   UNL     1       0.028  -1.965   3.847  0.00  0.00    +0.042 A 
ATOM     29  C   UNL     1       1.065  -1.144   3.546  0.00  0.00    +0.021 A 
ENDBRANCH   1  28
BRANCH   1  30
ATOM     30  C   UNL     1       1.429  -2.654   5.749  0.00  0.00    +0.174 A 
ATOM     31  N   UNL     1       1.793  -1.605   6.445  0.00  0.00    -0.111 NA
ATOM     32  N   UNL     1       2.991  -1.808   6.875  0.00  0.00    -0.023 NA
ATOM     33  N   UNL     1       3.400  -2.960   6.471  0.00  0.00    -0.043 NA
ATOM     34  N   UNL     1       2.464  -3.515   5.778  0.00  0.00    -0.222 N 
BRANCH  34  35
ATOM     35  C   UNL     1       2.518  -4.832   5.140  0.00  0.00    +0.059 C 
ATOM     36  C   UNL     1       2.244  -4.685   3.642  0.00  0.00    +0.036 C 
ATOM     37  C   UNL     1       3.905  -5.443   5.347  0.00  0.00    +0.036 C 
ATOM     38  C   UNL     1       1.460  -5.745   5.764  0.00  0.00    +0.036 C 
ENDBRANCH  34  35
ENDBRANCH   1  30
TORSDOF 4
