REMARK  Name = ZINC05799049
REMARK  12 active torsions:
REMARK  status: ('A' for Active; 'I' for Inactive)
REMARK    1  A    between atoms: C_1  and  C_2
REMARK    2  A    between atoms: C_2  and  C_13
REMARK    3  A    between atoms: N_3  and  C_4
REMARK    4  A    between atoms: C_6  and  C_11
REMARK    5  A    between atoms: C_6  and  C_12
REMARK    6  A    between atoms: C_7  and  C_9
REMARK    7  A    between atoms: C_7  and  C_10
REMARK    8  A    between atoms: C_14  and  C_26
REMARK    9  A    between atoms: N_17  and  C_20
REMARK   10  A    between atoms: C_26  and  C_27
REMARK   11  A    between atoms: C_27  and  O_29
REMARK   12  A    between atoms: O_29  and  C_30
REMARK                            x       y       z     vdW  Elec       q    Type
REMARK                         _______ _______ _______ _____ _____    ______ ____
ROOT
ATOM      1  C   UNL     1      -2.342  -0.280  -3.164  0.00  0.00    +0.083 A 
ATOM      2  C   UNL     1      -3.590   0.305  -3.230  0.00  0.00    +0.058 A 
ATOM      3  N   UNL     1      -4.495  -0.561  -2.731  0.00  0.00    -0.293 N 
ATOM      4  H   UNL     1      -5.449  -0.395  -2.666  0.00  0.00    +0.187 HD
ATOM      5  N   UNL     1      -3.854  -1.733  -2.318  0.00  0.00    -0.219 N 
ATOM      6  C   UNL     1      -2.533  -1.609  -2.562  0.00  0.00    +0.281 A 
ATOM      7  O   UNL     1      -1.669  -2.434  -2.331  0.00  0.00    -0.265 OA
ENDROOT
BRANCH   5   8
ATOM      8  C   UNL     1      -4.478  -2.847  -1.746  0.00  0.00    +0.067 A 
ATOM      9  C   UNL     1      -5.863  -2.906  -1.669  0.00  0.00    +0.028 A 
ATOM     10  C   UNL     1      -6.476  -4.010  -1.110  0.00  0.00    +0.002 A 
ATOM     11  C   UNL     1      -5.711  -5.051  -0.615  0.00  0.00    +0.000 A 
ATOM     12  C   UNL     1      -4.331  -4.992  -0.684  0.00  0.00    +0.002 A 
ATOM     13  C   UNL     1      -3.712  -3.894  -1.248  0.00  0.00    +0.028 A 
ENDBRANCH   5   8
BRANCH   1  15
ATOM     14  C   UNL     1      -0.645   0.199  -5.043  0.00  0.00    +0.066 C 
ATOM     15  C   UNL     1      -1.071   0.311  -3.602  0.00  0.00    +0.047 C 
ATOM     16  N   UNL     1      -0.315   0.929  -2.748  0.00  0.00    -0.284 NA
BRANCH  16  17
ATOM     17  C   UNL     1      -0.789   1.156  -1.377  0.00  0.00    +0.103 C 
ATOM     18  C   UNL     1       0.088   0.368  -0.404  0.00  0.00    +0.014 C 
ATOM     19  C   UNL     1      -0.369   0.603   1.033  0.00  0.00    -0.071 C 
ATOM     20  C   UNL     1      -1.137   2.905   0.387  0.00  0.00    -0.071 C 
ATOM     21  C   UNL     1      -0.670   2.643  -1.043  0.00  0.00    +0.014 C 
ATOM     22  C   UNL     1      -0.724   4.348   0.754  0.00  0.00    -0.010 C 
ATOM     23  C   UNL     1      -2.668   2.842   0.446  0.00  0.00    -0.010 C 
ATOM     24  C   UNL     1      -1.659  -0.184   1.296  0.00  0.00    -0.010 C 
ATOM     25  C   UNL     1       0.717   0.024   1.967  0.00  0.00    -0.010 C 
ATOM     26  N   UNL     1      -0.516   2.032   1.419  0.00  0.00    +0.386 N 
ATOM     27  H   UNL     1       0.419   2.402   1.628  0.00  0.00    -0.084 HD
ATOM     28  H   UNL     1      -1.098   2.075   2.264  0.00  0.00    -0.084 HD
ENDBRANCH  16  17
ENDBRANCH   1  15
BRANCH   2  29
ATOM     29  C   UNL     1      -3.891   1.679  -3.772  0.00  0.00    +0.176 C 
BRANCH  29  30
ATOM     30  C   UNL     1      -4.380   1.563  -5.192  0.00  0.00    +0.313 C 
ATOM     31  O   UNL     1      -4.474   0.476  -5.712  0.00  0.00    -0.250 OA
BRANCH  30  32
ATOM     32  O   UNL     1      -4.710   2.667  -5.881  0.00  0.00    -0.468 OA
ATOM     33  C   UNL     1      -5.173   2.479  -7.244  0.00  0.00    +0.280 C 
ENDBRANCH  30  32
ENDBRANCH  29  30
ENDBRANCH   2  29
TORSDOF 6
