REMARK  Name = ZINC13111953
REMARK  2 active torsions:
REMARK  status: ('A' for Active; 'I' for Inactive)
REMARK    1  A    between atoms: C_1  and  C_2
REMARK    2  A    between atoms: C_3  and  C_16
REMARK                            x       y       z     vdW  Elec       q    Type
REMARK                         _______ _______ _______ _____ _____    ______ ____
ROOT
ATOM      1  C   UNL     1       0.143   1.500  -0.006  0.00  0.00    +0.050 C 
ATOM      2  C   UNL     1       0.073  -0.005  -0.005  0.00  0.00    +0.020 A 
ATOM      3  C   UNL     1      -0.090  -0.827  -1.134  0.00  0.00    +0.098 A 
ATOM      4  N   UNL     1      -0.103  -2.082  -0.734  0.00  0.00    -0.162 NA
ATOM      5  N   UNL     1       0.051  -2.103   0.658  0.00  0.00    -0.179 N 
ATOM      6  C   UNL     1       0.164  -0.811   1.087  0.00  0.00    +0.141 A 
ATOM      7  N   UNL     1       0.335  -0.544   2.430  0.00  0.00    -0.343 N 
ATOM      8  C   UNL     1       0.393  -1.562   3.345  0.00  0.00    +0.026 A 
ATOM      9  C   UNL     1       0.276  -2.838   2.929  0.00  0.00    +0.038 A 
ATOM     10  C   UNL     1       0.103  -3.109   1.550  0.00  0.00    +0.278 A 
ATOM     11  O   UNL     1       0.012  -4.262   1.167  0.00  0.00    -0.265 OA
ATOM     12  C   UNL     1       0.305  -4.011   3.872  0.00  0.00    +0.042 C 
ATOM     13  C   UNL     1       0.914  -3.611   5.214  0.00  0.00    +0.005 C 
ATOM     14  C   UNL     1       0.202  -2.345   5.706  0.00  0.00    +0.006 C 
ATOM     15  C   UNL     1       0.594  -1.188   4.790  0.00  0.00    +0.054 C 
ATOM     16  H   UNL     1       0.415   0.375   2.730  0.00  0.00    +0.167 HD
ENDROOT
BRANCH   3  17
ATOM     17  C   UNL     1      -0.226  -0.361  -2.536  0.00  0.00    +0.002 A 
ATOM     18  C   UNL     1       0.575   0.677  -3.009  0.00  0.00    +0.010 A 
ATOM     19  C   UNL     1       0.444   1.107  -4.314  0.00  0.00    +0.001 A 
ATOM     20  C   UNL     1      -0.480   0.510  -5.152  0.00  0.00    +0.000 A 
ATOM     21  C   UNL     1      -1.278  -0.520  -4.688  0.00  0.00    +0.001 A 
ATOM     22  C   UNL     1      -1.152  -0.962  -3.386  0.00  0.00    +0.010 A 
ENDBRANCH   3  17
TORSDOF 1
