REMARK  Name = ZINC05461335
REMARK  4 active torsions:
REMARK  status: ('A' for Active; 'I' for Inactive)
REMARK    1  A    between atoms: C_1  and  O_2
REMARK    2  A    between atoms: O_2  and  C_3
REMARK    3  A    between atoms: C_6  and  C_9
REMARK    4  A    between atoms: C_12  and  C_24
REMARK                            x       y       z     vdW  Elec       q    Type
REMARK                         _______ _______ _______ _____ _____    ______ ____
ROOT
ATOM      1  C   UNL     1      -4.981  -2.629   0.035  0.00  0.00    +0.122 C 
ATOM      2  C   UNL     1      -5.105  -3.510  -1.213  0.00  0.00    +0.057 C 
ATOM      3  C   UNL     1      -6.331  -4.421  -1.083  0.00  0.00    +0.106 C 
ATOM      4  N   UNL     1      -6.128  -5.321   0.068  0.00  0.00    -0.309 N 
ATOM      5  C   UNL     1      -5.622  -4.741   1.222  0.00  0.00    +0.175 A 
ATOM      6  N   UNL     1      -5.083  -3.474   1.228  0.00  0.00    -0.306 N 
ATOM      7  C   UNL     1      -4.690  -3.207   2.510  0.00  0.00    +0.069 A 
ATOM      8  C   UNL     1      -4.094  -2.102   3.104  0.00  0.00    +0.028 A 
ATOM      9  C   UNL     1      -3.831  -2.180   4.463  0.00  0.00    +0.002 A 
ATOM     10  C   UNL     1      -4.143  -3.305   5.207  0.00  0.00    +0.002 A 
ATOM     11  C   UNL     1      -4.737  -4.418   4.639  0.00  0.00    +0.028 A 
ATOM     12  C   UNL     1      -5.012  -4.361   3.269  0.00  0.00    +0.065 A 
ATOM     13  N   UNL     1      -5.572  -5.255   2.422  0.00  0.00    -0.327 N 
ATOM     14  H   UNL     1      -6.337  -6.267   0.020  0.00  0.00    +0.149 HD
ATOM     15  H   UNL     1      -5.891  -6.137   2.669  0.00  0.00    +0.169 HD
ENDROOT
BRANCH   3  16
ATOM     16  C   UNL     1      -7.564  -3.583  -0.863  0.00  0.00    -0.027 A 
ATOM     17  C   UNL     1      -7.843  -3.080   0.394  0.00  0.00    +0.007 A 
ATOM     18  C   UNL     1      -8.973  -2.311   0.596  0.00  0.00    +0.020 A 
ATOM     19  C   UNL     1      -9.826  -2.045  -0.460  0.00  0.00    +0.041 A 
ATOM     20  C   UNL     1      -9.546  -2.547  -1.718  0.00  0.00    +0.020 A 
ATOM     21  C   UNL     1      -8.412  -3.312  -1.920  0.00  0.00    +0.007 A 
ATOM     22 CL   UNL     1     -11.246  -1.079  -0.206  0.00  0.00    -0.084 Cl
ENDBRANCH   3  16
BRANCH   1  26
ATOM     23  C   UNL     1      -1.200  -0.637   0.010  0.00  0.00    +0.120 A 
ATOM     24  C   UNL     1      -2.375   0.101   0.019  0.00  0.00    +0.046 A 
ATOM     25  C   UNL     1      -3.596  -0.545   0.027  0.00  0.00    +0.009 A 
ATOM     26  C   UNL     1      -3.648  -1.927   0.026  0.00  0.00    -0.024 A 
ATOM     27  C   UNL     1      -2.479  -2.665   0.017  0.00  0.00    +0.009 A 
ATOM     28  C   UNL     1      -1.255  -2.024   0.003  0.00  0.00    +0.046 A 
BRANCH  23  30
ATOM     29  C   UNL     1      -0.017   1.425   0.010  0.00  0.00    +0.277 C 
ATOM     30  O   UNL     1       0.002  -0.004   0.002  0.00  0.00    -0.495 OA
ENDBRANCH  23  30
ENDBRANCH   1  26
TORSDOF 3
