REMARK  Name = ZINC19731631
REMARK  6 active torsions:
REMARK  status: ('A' for Active; 'I' for Inactive)
REMARK    1  A    between atoms: C_3  and  S_24
REMARK    2  A    between atoms: C_6  and  C_7
REMARK    3  A    between atoms: C_7  and  N_8
REMARK    4  A    between atoms: N_8  and  C_9
REMARK    5  A    between atoms: N_14  and  C_17
REMARK    6  A    between atoms: S_24  and  N_27
REMARK                            x       y       z     vdW  Elec       q    Type
REMARK                         _______ _______ _______ _____ _____    ______ ____
ROOT
ATOM      1  N   UNL     1      -1.648  -0.938  -1.731  0.00  0.00    -0.301 NA
ATOM      2  H   UNL     1      -1.873  -0.086  -2.222  0.00  0.00    +0.123 HD
ENDROOT
BRANCH   1   3
ATOM      3  C   UNL     1      -2.854  -1.742  -1.492  0.00  0.00    +0.150 C 
ATOM      4  C   UNL     1      -3.860  -1.568  -2.648  0.00  0.00    +0.125 C 
ATOM      5  C   UNL     1      -3.994  -2.965  -3.214  0.00  0.00    +0.228 C 
ATOM      6  O   UNL     1      -4.698  -3.279  -4.150  0.00  0.00    -0.275 OA
ATOM      7  N   UNL     1      -3.212  -3.799  -2.518  0.00  0.00    -0.209 N 
ATOM      8  C   UNL     1      -2.524  -3.218  -1.522  0.00  0.00    +0.244 C 
ATOM      9  O   UNL     1      -1.761  -3.783  -0.769  0.00  0.00    -0.273 OA
BRANCH   7  10
ATOM     10  C   UNL     1      -3.119  -5.169  -2.805  0.00  0.00    +0.044 A 
ATOM     11  C   UNL     1      -3.611  -6.103  -1.903  0.00  0.00    +0.025 A 
ATOM     12  C   UNL     1      -3.519  -7.451  -2.188  0.00  0.00    +0.017 A 
ATOM     13  C   UNL     1      -2.936  -7.871  -3.369  0.00  0.00    +0.018 A 
ATOM     14  C   UNL     1      -2.444  -6.943  -4.269  0.00  0.00    +0.017 A 
ATOM     15  C   UNL     1      -2.539  -5.593  -3.993  0.00  0.00    +0.025 A 
ATOM     16 BR   UNL     1      -2.810  -9.718  -3.755  0.00  0.00    -0.050 Br
ENDBRANCH   7  10
ENDBRANCH   1   3
BRANCH   1  17
ATOM     17  C   UNL     1      -0.948  -0.651  -0.472  0.00  0.00    +0.117 C 
BRANCH  17  23
ATOM     18  C   UNL     1       0.202   1.554  -0.758  0.00  0.00    +0.007 A 
ATOM     19  C   UNL     1       1.330   2.310  -1.019  0.00  0.00    +0.029 A 
ATOM     20  C   UNL     1       2.536   1.686  -1.278  0.00  0.00    +0.105 A 
ATOM     21  C   UNL     1       2.615   0.306  -1.276  0.00  0.00    +0.029 A 
ATOM     22  C   UNL     1       1.487  -0.450  -1.014  0.00  0.00    +0.007 A 
ATOM     23  C   UNL     1       0.281   0.173  -0.757  0.00  0.00    -0.033 A 
BRANCH  20  24
ATOM     24  S   UNL     1       3.972   2.650  -1.612  0.00  0.00    +0.056 S 
ATOM     25  O   UNL     1       4.852   1.822  -2.359  0.00  0.00    -0.153 OA
ATOM     26  O   UNL     1       3.516   3.906  -2.093  0.00  0.00    -0.153 OA
BRANCH  24  27
ATOM     27  N   UNL     1       4.715   2.940  -0.160  0.00  0.00    -0.204 NA
ATOM     28  H   UNL     1       4.332   2.590   0.659  0.00  0.00    +0.144 HD
ATOM     29  H   UNL     1       5.533   3.461  -0.130  0.00  0.00    +0.144 HD
ENDBRANCH  24  27
ENDBRANCH  20  24
ENDBRANCH  17  23
ENDBRANCH   1  17
TORSDOF 6
