REMARK  Name = ZINC16810564
REMARK  8 active torsions:
REMARK  status: ('A' for Active; 'I' for Inactive)
REMARK    1  A    between atoms: C_1  and  C_2
REMARK    2  A    between atoms: C_2  and  C_4
REMARK    3  A    between atoms: C_2  and  S_18
REMARK    4  A    between atoms: C_4  and  C_6
REMARK    5  A    between atoms: C_15  and  C_17
REMARK    6  A    between atoms: S_18  and  C_19
REMARK    7  A    between atoms: C_23  and  C_26
REMARK    8  A    between atoms: N_33  and  C_34
REMARK                            x       y       z     vdW  Elec       q    Type
REMARK                         _______ _______ _______ _____ _____    ______ ____
ROOT
ATOM      1  S   UNL     1       3.056  -3.525  -3.713  0.00  0.00    -0.076 S 
ENDROOT
BRANCH   1   2
ATOM      2  C   UNL     1       2.174  -2.436  -2.646  0.00  0.00    +0.173 A 
ATOM      3  N   UNL     1       1.413  -2.933  -1.693  0.00  0.00    -0.216 NA
ATOM      4  C   UNL     1       0.732  -2.136  -0.877  0.00  0.00    +0.117 A 
ATOM      5  C   UNL     1       0.796  -0.736  -0.980  0.00  0.00    +0.080 A 
ATOM      6  C   UNL     1      -0.010  -0.008  -0.003  0.00  0.00    +0.010 A 
ATOM      7  C   UNL     1      -0.742  -0.714   0.893  0.00  0.00    +0.057 A 
ATOM      8  S   UNL     1      -0.382  -2.409   0.477  0.00  0.00    -0.076 S 
ATOM      9  C   UNL     1       1.637  -0.224  -2.015  0.00  0.00    +0.263 A 
ATOM     10  O   UNL     1       1.756   0.979  -2.176  0.00  0.00    -0.267 OA
ATOM     11  N   UNL     1       2.295  -1.086  -2.812  0.00  0.00    -0.290 N 
ATOM     12  C   UNL     1       3.158  -0.567  -3.875  0.00  0.00    +0.154 C 
BRANCH   6  13
ATOM     13  C   UNL     1      -0.031   1.470   0.005  0.00  0.00    +0.021 A 
ATOM     14  C   UNL     1      -1.107   2.317   0.013  0.00  0.00    +0.016 A 
ATOM     15  C   UNL     1      -0.879   3.677   0.022  0.00  0.00    +0.008 A 
ATOM     16  C   UNL     1       0.399   4.133   0.013  0.00  0.00    +0.046 A 
ATOM     17  S   UNL     1       1.339   2.615  -0.002  0.00  0.00    -0.097 S 
ENDBRANCH   6  13
ENDBRANCH   1   2
BRANCH   1  19
ATOM     18  C   UNL     1       1.020  -5.292  -3.266  0.00  0.00    +0.028 C 
ATOM     19  C   UNL     1       2.524  -5.120  -3.043  0.00  0.00    +0.122 C 
BRANCH  19  20
ATOM     20  C   UNL     1       3.265  -6.231  -3.741  0.00  0.00    +0.176 C 
ATOM     21  O   UNL     1       3.705  -6.058  -4.859  0.00  0.00    -0.291 OA
BRANCH  20  22
ATOM     22  C   UNL     1       3.455  -7.523  -3.070  0.00  0.00    +0.019 A 
ATOM     23  C   UNL     1       2.950  -7.729  -1.780  0.00  0.00    +0.013 A 
ATOM     24  C   UNL     1       3.127  -8.928  -1.158  0.00  0.00    +0.024 A 
ATOM     25  C   UNL     1       3.813  -9.969  -1.796  0.00  0.00    +0.040 A 
ATOM     26  C   UNL     1       4.315  -9.767  -3.076  0.00  0.00    -0.024 A 
ATOM     27  C   UNL     1       4.138  -8.561  -3.716  0.00  0.00    +0.017 A 
ATOM     28  C   UNL     1       5.004 -11.035  -3.527  0.00  0.00    +0.056 C 
ATOM     29  C   UNL     1       4.839 -12.004  -2.345  0.00  0.00    +0.118 C 
ATOM     30  N   UNL     1       4.093 -11.252  -1.332  0.00  0.00    -0.271 N 
ATOM     31  C   UNL     1       3.731 -11.732  -0.127  0.00  0.00    +0.217 C 
ATOM     32  O   UNL     1       3.194 -11.003   0.680  0.00  0.00    -0.276 OA
ATOM     33  C   UNL     1       3.992 -13.175   0.219  0.00  0.00    +0.109 C 
ENDBRANCH  20  22
ENDBRANCH  19  20
ENDBRANCH   1  19
TORSDOF 5
