REMARK  Name = ZINC50900575
REMARK  8 active torsions:
REMARK  status: ('A' for Active; 'I' for Inactive)
REMARK    1  A    between atoms: C_1  and  C_2
REMARK    2  A    between atoms: C_2  and  C_3
REMARK    3  A    between atoms: C_2  and  C_4
REMARK    4  A    between atoms: C_4  and  C_5
REMARK    5  A    between atoms: N_9  and  C_13
REMARK    6  A    between atoms: C_13  and  N_14
REMARK    7  A    between atoms: C_18  and  C_21
REMARK    8  A    between atoms: N_23  and  C_24
REMARK                            x       y       z     vdW  Elec       q    Type
REMARK                         _______ _______ _______ _____ _____    ______ ____
ROOT
ATOM      1  N   UNL     1      -4.268  -5.402   0.229  0.00  0.00    +0.391 N 
ATOM      2  C   UNL     1      -3.977  -5.351  -1.209  0.00  0.00    -0.077 C 
ATOM      3  C   UNL     1      -3.739  -6.769  -1.736  0.00  0.00    -0.018 C 
ATOM      4  C   UNL     1      -4.994  -7.613  -1.497  0.00  0.00    +0.009 C 
ATOM      5  C   UNL     1      -5.330  -7.598  -0.003  0.00  0.00    +0.058 C 
ATOM      6  C   UNL     1      -5.509  -6.150   0.460  0.00  0.00    -0.064 C 
ATOM      7  H   UNL     1      -3.506  -5.860   0.708  0.00  0.00    -0.079 HD
ENDROOT
BRANCH   5   8
ATOM      8  C   UNL     1      -6.607  -8.364   0.233  0.00  0.00    +0.215 C 
ATOM      9  O   UNL     1      -7.565  -7.808   0.727  0.00  0.00    -0.276 OA
ATOM     10  N   UNL     1      -6.683  -9.666  -0.104  0.00  0.00    -0.312 N 
ATOM     11  H   UNL     1      -5.917 -10.111  -0.499  0.00  0.00    +0.149 HD
BRANCH  10  12
ATOM     12  C   UNL     1      -7.924 -10.411   0.125  0.00  0.00    +0.073 C 
ATOM     13  C   UNL     1      -8.407 -11.339  -0.991  0.00  0.00    +0.024 C 
ATOM     14  C   UNL     1      -7.817 -11.928   0.292  0.00  0.00    +0.024 C 
ENDBRANCH  10  12
ENDBRANCH   5   8
BRANCH   1  15
ATOM     15  C   UNL     1      -4.418  -4.035   0.745  0.00  0.00    +0.043 C 
BRANCH  15  19
ATOM     16  C   UNL     1      -1.399  -2.059  -0.136  0.00  0.00    +0.161 C 
ATOM     17  C   UNL     1      -2.776  -2.605  -0.456  0.00  0.00    +0.242 C 
ATOM     18  O   UNL     1      -3.415  -2.432  -1.471  0.00  0.00    -0.273 OA
ATOM     19  N   UNL     1      -3.143  -3.325   0.624  0.00  0.00    -0.241 N 
ATOM     20  C   UNL     1      -2.198  -3.308   1.571  0.00  0.00    +0.307 C 
ATOM     21  O   UNL     1      -2.300  -3.885   2.636  0.00  0.00    -0.252 OA
ATOM     22  N   UNL     1      -1.120  -2.583   1.213  0.00  0.00    -0.288 N 
ATOM     23  H   UNL     1      -0.318  -2.434   1.738  0.00  0.00    +0.151 HD
BRANCH  16  24
ATOM     24  C   UNL     1      -1.416  -0.529  -0.126  0.00  0.00    +0.034 C 
BRANCH  24  26
ATOM     25  C   UNL     1       0.956  -0.376  -0.897  0.00  0.00    +0.007 C 
ATOM     26  C   UNL     1      -0.021  -0.006   0.222  0.00  0.00    -0.015 C 
ATOM     27  C   UNL     1      -0.070   1.516   0.373  0.00  0.00    +0.007 C 
ENDBRANCH  24  26
ENDBRANCH  16  24
ENDBRANCH  15  19
ENDBRANCH   1  15
TORSDOF 6
