REMARK  Name = ZINC67025700
REMARK  10 active torsions:
REMARK  status: ('A' for Active; 'I' for Inactive)
REMARK    1  A    between atoms: C_1  and  C_2
REMARK    2  A    between atoms: C_7  and  C_8
REMARK    3  A    between atoms: C_8  and  C_10
REMARK    4  A    between atoms: C_8  and  N_26
REMARK    5  A    between atoms: C_10  and  C_11
REMARK    6  A    between atoms: N_13  and  C_14
REMARK    7  A    between atoms: C_17  and  C_20
REMARK    8  A    between atoms: N_22  and  C_23
REMARK    9  A    between atoms: N_22  and  O_24
REMARK   10  A    between atoms: O_24  and  C_25
REMARK                            x       y       z     vdW  Elec       q    Type
REMARK                         _______ _______ _______ _____ _____    ______ ____
ROOT
ATOM      1  C   UNL     1       2.008   1.060   3.908  0.00  0.00    +0.123 C 
ENDROOT
BRANCH   1   2
ATOM      2  C   UNL     1       1.787   2.061   5.013  0.00  0.00    +0.219 C 
ATOM      3  O   UNL     1       0.685   2.189   5.503  0.00  0.00    -0.275 OA
ATOM      4  N   UNL     1       2.814   2.812   5.458  0.00  0.00    -0.285 N 
ATOM      5  H   UNL     1       3.679   2.756   5.022  0.00  0.00    +0.155 HD
BRANCH   4   6
ATOM      6  C   UNL     1       2.633   3.668   6.543  0.00  0.00    +0.033 A 
ATOM      7  C   UNL     1       1.790   3.298   7.586  0.00  0.00    +0.024 A 
ATOM      8  C   UNL     1       1.609   4.141   8.659  0.00  0.00    +0.015 A 
ATOM      9  C   UNL     1       2.274   5.370   8.700  0.00  0.00    +0.039 A 
ATOM     10  C   UNL     1       3.120   5.738   7.651  0.00  0.00    +0.015 A 
ATOM     11  C   UNL     1       3.300   4.888   6.583  0.00  0.00    +0.024 A 
BRANCH   9  12
ATOM     12  C   UNL     1       2.082   6.276   9.849  0.00  0.00    +0.269 C 
ATOM     13  O   UNL     1       1.588   5.857  10.879  0.00  0.00    -0.268 OA
ATOM     14  N   UNL     1       2.453   7.568   9.757  0.00  0.00    -0.180 N 
ATOM     15  C   UNL     1       2.390   8.434  10.937  0.00  0.00    +0.167 C 
BRANCH  14  16
ATOM     16  O   UNL     1       2.905   8.089   8.520  0.00  0.00    -0.280 OA
ATOM     17  C   UNL     1       1.887   8.741   7.758  0.00  0.00    +0.227 C 
ENDBRANCH  14  16
ENDBRANCH   9  12
ENDBRANCH   4   6
ENDBRANCH   1   2
BRANCH   1  18
ATOM     18  C   UNL     1       0.691   0.346   3.595  0.00  0.00    +0.114 C 
BRANCH  18  25
ATOM     19  C   UNL     1      -1.604  -0.622   2.132  0.00  0.00    +0.044 C 
ATOM     20  C   UNL     1      -0.216  -1.027   1.710  0.00  0.00    -0.045 A 
ATOM     21  C   UNL     1      -0.040  -1.857   0.618  0.00  0.00    +0.004 A 
ATOM     22  C   UNL     1       1.233  -2.229   0.231  0.00  0.00    +0.000 A 
ATOM     23  C   UNL     1       2.332  -1.770   0.934  0.00  0.00    +0.000 A 
ATOM     24  C   UNL     1       2.156  -0.939   2.024  0.00  0.00    +0.006 A 
ATOM     25  C   UNL     1       0.882  -0.564   2.409  0.00  0.00    -0.024 A 
ENDBRANCH  18  25
BRANCH  18  26
ATOM     26  N   UNL     1       0.277  -0.445   4.757  0.00  0.00    -0.292 N 
ATOM     27  C   UNL     1       1.031  -1.484   5.167  0.00  0.00    +0.298 C 
ATOM     28  O   UNL     1       2.098  -1.711   4.630  0.00  0.00    -0.253 OA
ATOM     29  N   UNL     1       0.601  -2.272   6.173  0.00  0.00    -0.313 N 
ATOM     30  H   UNL     1      -0.539  -0.221   5.230  0.00  0.00    +0.151 HD
ATOM     31  H   UNL     1      -0.250  -2.091   6.601  0.00  0.00    +0.146 HD
ATOM     32  H   UNL     1       1.143  -3.020   6.468  0.00  0.00    +0.146 HD
ENDBRANCH  18  26
ENDBRANCH   1  18
TORSDOF 7
