REMARK  Name = ZINC16267095
REMARK  7 active torsions:
REMARK  status: ('A' for Active; 'I' for Inactive)
REMARK    1  A    between atoms: C_1  and  C_2
REMARK    2  A    between atoms: C_6  and  C_10
REMARK    3  A    between atoms: C_7  and  O_9
REMARK    4  A    between atoms: C_10  and  C_11
REMARK    5  A    between atoms: C_10  and  C_18
REMARK    6  A    between atoms: C_19  and  O_20
REMARK    7  A    between atoms: C_22  and  C_26
REMARK                            x       y       z     vdW  Elec       q    Type
REMARK                         _______ _______ _______ _____ _____    ______ ____
ROOT
ATOM      1  C   UNL     1       0.215  -4.250  -0.022  0.00  0.00    +0.101 C 
ENDROOT
BRANCH   1   7
ATOM      2  C   UNL     1       2.383   0.694  -2.024  0.00  0.00    +0.086 C 
ATOM      3  C   UNL     1       1.810  -0.582  -1.463  0.00  0.00    +0.110 A 
ATOM      4  C   UNL     1       1.408  -0.620  -0.181  0.00  0.00    +0.092 A 
ATOM      5  C   UNL     1       0.869  -1.828   0.340  0.00  0.00    +0.193 A 
ATOM      6  O   UNL     1       0.493  -1.898   1.501  0.00  0.00    -0.287 OA
ATOM      7  C   UNL     1       0.778  -2.944  -0.519  0.00  0.00    +0.091 A 
ATOM      8  C   UNL     1       1.208  -2.821  -1.804  0.00  0.00    +0.292 A 
ATOM      9  O   UNL     1       1.704  -1.660  -2.253  0.00  0.00    -0.430 OA
BRANCH   8  10
ATOM     10  O   UNL     1       1.128  -3.881  -2.638  0.00  0.00    -0.480 OA
ATOM     11  H   UNL     1       1.456  -3.704  -3.531  0.00  0.00    +0.295 HD
ENDBRANCH   8  10
ENDBRANCH   1   7
BRANCH   1  12
ATOM     12  C   UNL     1      -0.577  -4.908  -1.122  0.00  0.00    +0.090 A 
ATOM     13  C   UNL     1      -1.424  -4.162  -1.921  0.00  0.00    +0.131 A 
ATOM     14  C   UNL     1      -2.148  -4.819  -2.941  0.00  0.00    +0.087 A 
ATOM     15  C   UNL     1      -2.001  -6.146  -3.117  0.00  0.00    +0.110 A 
ATOM     16  O   UNL     1      -1.177  -6.862  -2.338  0.00  0.00    -0.427 OA
ATOM     17  C   UNL     1      -0.463  -6.284  -1.357  0.00  0.00    +0.345 A 
ATOM     18  O   UNL     1       0.283  -6.960  -0.668  0.00  0.00    -0.245 OA
ATOM     19  C   UNL     1      -2.777  -6.839  -4.207  0.00  0.00    +0.086 C 
BRANCH  13  20
ATOM     20  O   UNL     1      -1.558  -2.829  -1.729  0.00  0.00    -0.506 OA
ATOM     21  H   UNL     1      -2.175  -2.403  -2.341  0.00  0.00    +0.292 HD
ENDBRANCH  13  20
ENDBRANCH   1  12
BRANCH   1  22
ATOM     22  C   UNL     1      -0.684  -3.992   1.159  0.00  0.00    -0.017 A 
ATOM     23  C   UNL     1      -1.838  -3.248   1.000  0.00  0.00    +0.006 A 
ATOM     24  C   UNL     1      -2.663  -3.012   2.083  0.00  0.00    +0.000 A 
ATOM     25  C   UNL     1      -2.335  -3.518   3.327  0.00  0.00    +0.001 A 
ATOM     26  C   UNL     1      -1.182  -4.262   3.488  0.00  0.00    +0.020 A 
ATOM     27  C   UNL     1      -0.358  -4.504   2.402  0.00  0.00    +0.045 A 
ATOM     28 CL   UNL     1       1.088  -5.444   2.602  0.00  0.00    -0.083 Cl
ENDBRANCH   1  22
TORSDOF 5
