REMARK  Name = ZINC27697332
REMARK  9 active torsions:
REMARK  status: ('A' for Active; 'I' for Inactive)
REMARK    1  A    between atoms: C_4  and  C_7
REMARK    2  A    between atoms: C_7  and  C_9
REMARK    3  A    between atoms: C_7  and  S_30
REMARK    4  A    between atoms: N_17  and  C_18
REMARK    5  A    between atoms: C_18  and  C_19
REMARK    6  A    between atoms: C_19  and  C_21
REMARK    7  A    between atoms: C_19  and  O_29
REMARK    8  A    between atoms: C_21  and  N_22
REMARK    9  A    between atoms: S_30  and  C_31
REMARK                            x       y       z     vdW  Elec       q    Type
REMARK                         _______ _______ _______ _____ _____    ______ ____
ROOT
ATOM      1  C   UNL     1      -1.988   5.735   6.149  0.00  0.00    +0.129 A 
ATOM      2  N   UNL     1      -1.778   6.840   6.804  0.00  0.00    -0.231 NA
ATOM      3  C   UNL     1      -2.195   7.897   6.061  0.00  0.00    +0.089 A 
ATOM      4  C   UNL     1      -2.211   9.278   6.274  0.00  0.00    +0.030 A 
ATOM      5  C   UNL     1      -2.709  10.110   5.311  0.00  0.00    +0.002 A 
ATOM      6  C   UNL     1      -3.201   9.598   4.119  0.00  0.00    +0.002 A 
ATOM      7  C   UNL     1      -3.195   8.239   3.887  0.00  0.00    +0.028 A 
ATOM      8  C   UNL     1      -2.693   7.378   4.854  0.00  0.00    +0.069 A 
ATOM      9  N   UNL     1      -2.546   6.008   4.939  0.00  0.00    -0.324 N 
ENDROOT
BRANCH   1  10
ATOM     10  C   UNL     1      -1.659   4.355   6.657  0.00  0.00    +0.147 C 
BRANCH  10  14
ATOM     11  C   UNL     1       2.568   3.757   6.513  0.00  0.00    +0.000 A 
ATOM     12  C   UNL     1       1.743   3.074   5.639  0.00  0.00    +0.000 A 
ATOM     13  C   UNL     1       0.375   3.268   5.685  0.00  0.00    +0.005 A 
ATOM     14  C   UNL     1      -0.168   4.144   6.606  0.00  0.00    -0.027 A 
ATOM     15  C   UNL     1       0.658   4.830   7.477  0.00  0.00    +0.005 A 
ATOM     16  C   UNL     1       2.025   4.633   7.434  0.00  0.00    +0.000 A 
ENDBRANCH  10  14
BRANCH  10  17
ATOM     17  S   UNL     1      -2.236   4.186   8.368  0.00  0.00    -0.109 S 
BRANCH  17  18
ATOM     18  C   UNL     1      -1.917   2.499   8.761  0.00  0.00    +0.009 A 
ATOM     19  C   UNL     1      -1.348   1.658   7.812  0.00  0.00    +0.015 A 
ATOM     20  C   UNL     1      -1.095   0.337   8.125  0.00  0.00    +0.001 A 
ATOM     21  C   UNL     1      -1.416  -0.152   9.378  0.00  0.00    +0.000 A 
ATOM     22  C   UNL     1      -1.988   0.680  10.323  0.00  0.00    +0.001 A 
ATOM     23  C   UNL     1      -2.239   2.003  10.019  0.00  0.00    +0.015 A 
ENDBRANCH  17  18
ENDBRANCH  10  17
ENDBRANCH   1  10
BRANCH   9  24
ATOM     24  C   UNL     1      -2.925   5.029   3.917  0.00  0.00    +0.153 C 
BRANCH  24  25
ATOM     25  C   UNL     1      -4.383   4.613   4.126  0.00  0.00    +0.118 C 
BRANCH  25  26
ATOM     26  O   UNL     1      -5.234   5.744   3.928  0.00  0.00    -0.392 OA
ATOM     27  H   UNL     1      -6.323   5.638   4.037  0.00  0.00    +0.210 HD
ENDBRANCH  25  26
BRANCH  25  28
ATOM     28  C   UNL     1      -4.749   3.518   3.122  0.00  0.00    -0.045 C 
BRANCH  28  29
ATOM     29  N   UNL     1      -6.121   3.059   3.377  0.00  0.00    +0.381 N 
ATOM     30  C   UNL     1      -6.723   2.481   2.155  0.00  0.00    -0.079 C 
ATOM     31  C   UNL     1      -6.371   1.030   1.964  0.00  0.00    -0.019 C 
ATOM     32  C   UNL     1      -7.493   0.170   2.585  0.00  0.00    -0.002 C 
ATOM     33  C   UNL     1      -7.381   0.087   4.037  0.00  0.00    -0.002 C 
ATOM     34  C   UNL     1      -7.493   1.471   4.710  0.00  0.00    -0.019 C 
ATOM     35  C   UNL     1      -6.174   2.180   4.566  0.00  0.00    -0.079 C 
ATOM     36  H   UNL     1      -6.746   3.930   3.628  0.00  0.00    -0.082 HD
ENDBRANCH  28  29
ENDBRANCH  25  28
ENDBRANCH  24  25
ENDBRANCH   9  24
TORSDOF 9
