REMARK  Name = ZINC04278249
REMARK  3 active torsions:
REMARK  status: ('A' for Active; 'I' for Inactive)
REMARK    1  A    between atoms: C_1  and  C_2
REMARK    2  A    between atoms: C_10  and  O_25
REMARK    3  A    between atoms: C_22  and  O_24
REMARK                            x       y       z     vdW  Elec       q    Type
REMARK                         _______ _______ _______ _____ _____    ______ ____
ROOT
ATOM      1  C   UNL     1      -0.019   1.526   0.010  0.00  0.00    +0.014 C 
ATOM      2  C   UNL     1       0.002  -0.004   0.002  0.00  0.00    -0.003 C 
ATOM      3  C   UNL     1      -1.416  -0.533   0.060  0.00  0.00    +0.010 C 
ATOM      4  C   UNL     1      -2.090   0.086   1.297  0.00  0.00    +0.009 C 
ATOM      5  C   UNL     1      -1.308  -0.236   2.564  0.00  0.00    +0.024 C 
ATOM      6  C   UNL     1      -1.958   0.378   3.770  0.00  0.00    -0.033 A 
ATOM      7  C   UNL     1      -3.329   0.551   3.788  0.00  0.00    +0.008 A 
ATOM      8  C   UNL     1      -3.951   1.107   4.889  0.00  0.00    +0.046 A 
ATOM      9  C   UNL     1      -3.205   1.499   5.994  0.00  0.00    +0.118 A 
ATOM     10  C   UNL     1      -1.831   1.336   5.991  0.00  0.00    +0.057 A 
ATOM     11  C   UNL     1      -1.202   0.777   4.875  0.00  0.00    +0.024 A 
ATOM     12  C   UNL     1       0.266   0.624   4.865  0.00  0.00    +0.164 C 
ATOM     13  O   UNL     1       0.953   1.126   5.729  0.00  0.00    -0.292 OA
ATOM     14  C   UNL     1       0.889  -0.181   3.743  0.00  0.00    +0.084 C 
ATOM     15  C   UNL     1       0.153   0.217   2.459  0.00  0.00    +0.008 C 
ATOM     16  C   UNL     1       0.753  -0.523   1.259  0.00  0.00    +0.002 C 
ATOM     17  C   UNL     1       2.205  -0.177   0.914  0.00  0.00    +0.007 C 
ATOM     18  C   UNL     1       2.307  -0.559  -0.588  0.00  0.00    +0.032 C 
ATOM     19  C   UNL     1       0.866  -0.499  -1.152  0.00  0.00    +0.121 C 
ENDROOT
BRANCH  19  20
ATOM     20  O   UNL     1       0.801   0.416  -2.248  0.00  0.00    -0.391 OA
ATOM     21  H   UNL     1       1.332   0.153  -3.012  0.00  0.00    +0.210 HD
ENDBRANCH  19  20
BRANCH   9  22
ATOM     22  O   UNL     1      -3.824   2.042   7.076  0.00  0.00    -0.507 OA
ATOM     23  H   UNL     1      -4.098   1.393   7.739  0.00  0.00    +0.292 HD
ENDBRANCH   9  22
TORSDOF 2
