REMARK  Name = ZINC19817391
REMARK  8 active torsions:
REMARK  status: ('A' for Active; 'I' for Inactive)
REMARK    1  A    between atoms: C_1  and  C_2
REMARK    2  A    between atoms: C_5  and  C_32
REMARK    3  A    between atoms: C_11  and  C_12
REMARK    4  A    between atoms: C_20  and  C_22
REMARK    5  A    between atoms: C_22  and  S_23
REMARK    6  A    between atoms: S_23  and  C_24
REMARK    7  A    between atoms: C_26  and  C_31
REMARK    8  A    between atoms: C_28  and  C_30
REMARK                            x       y       z     vdW  Elec       q    Type
REMARK                         _______ _______ _______ _____ _____    ______ ____
ROOT
ATOM      1  C   UNL     1      -0.018   1.503   0.010  0.00  0.00    +0.044 C 
ATOM      2  C   UNL     1       0.002  -0.004   0.002  0.00  0.00    -0.047 A 
ATOM      3  C   UNL     1       0.005  -0.669  -1.188  0.00  0.00    +0.015 A 
ATOM      4  C   UNL     1       0.025  -2.071  -1.195  0.00  0.00    +0.022 A 
ATOM      5  C   UNL     1       0.030  -2.812  -2.392  0.00  0.00    +0.051 A 
ATOM      6  N   UNL     1       0.049  -4.126  -2.316  0.00  0.00    -0.219 NA
ATOM      7  C   UNL     1       0.063  -4.756  -1.143  0.00  0.00    +0.222 A 
ATOM      8  N   UNL     1       0.059  -4.116   0.009  0.00  0.00    -0.214 NA
ATOM      9  C   UNL     1       0.041  -2.778   0.035  0.00  0.00    +0.077 A 
ATOM     10  C   UNL     1       0.036  -2.059   1.240  0.00  0.00    +0.032 A 
ATOM     11  C   UNL     1       0.023  -0.697   1.210  0.00  0.00    -0.045 A 
ATOM     12  C   UNL     1       0.024   0.073   2.506  0.00  0.00    +0.044 C 
ATOM     13  N   UNL     1       0.083  -6.144  -1.134  0.00  0.00    -0.254 N 
ATOM     14  C   UNL     1       0.087  -6.838  -2.318  0.00  0.00    +0.202 A 
ATOM     15  N   UNL     1       0.101  -8.198  -2.295  0.00  0.00    -0.295 N 
ATOM     16  H   UNL     1       0.108  -8.670  -1.447  0.00  0.00    +0.172 HD
ATOM     17  C   UNL     1       0.105  -8.888  -3.455  0.00  0.00    +0.253 A 
ATOM     18  O   UNL     1       0.117 -10.108  -3.453  0.00  0.00    -0.268 OA
ATOM     19  C   UNL     1       0.095  -8.174  -4.666  0.00  0.00    +0.094 A 
ATOM     20  C   UNL     1       0.081  -6.810  -4.627  0.00  0.00    +0.060 A 
ATOM     21  N   UNL     1       0.073  -6.176  -3.457  0.00  0.00    -0.220 NA
ATOM     22  C   UNL     1       0.013  -2.117  -3.729  0.00  0.00    +0.066 C 
ATOM     23  H   UNL     1       0.094  -6.623  -0.290  0.00  0.00    +0.158 HD
ENDROOT
BRANCH  20  24
ATOM     24  C   UNL     1       0.070  -6.020  -5.911  0.00  0.00    +0.133 C 
BRANCH  24  25
ATOM     25  S   UNL     1      -1.590  -5.343  -6.189  0.00  0.00    -0.080 S 
BRANCH  25  26
ATOM     26  C   UNL     1      -1.440  -4.459  -7.706  0.00  0.00    +0.189 A 
ATOM     27  N   UNL     1      -0.272  -4.440  -8.332  0.00  0.00    -0.227 NA
ATOM     28  C   UNL     1      -0.126  -3.786  -9.472  0.00  0.00    +0.043 A 
ATOM     29  C   UNL     1      -1.214  -3.117 -10.012  0.00  0.00    +0.046 A 
ATOM     30  C   UNL     1      -2.421  -3.158  -9.332  0.00  0.00    +0.043 A 
ATOM     31  N   UNL     1      -2.501  -3.834  -8.198  0.00  0.00    -0.227 NA
ATOM     32  C   UNL     1      -3.630  -2.445  -9.882  0.00  0.00    +0.066 C 
ATOM     33  C   UNL     1       1.206  -3.769 -10.176  0.00  0.00    +0.066 C 
ENDBRANCH  25  26
ENDBRANCH  24  25
ENDBRANCH  20  24
TORSDOF 3
