REMARK  Name = ZINC64308873
REMARK  9 active torsions:
REMARK  status: ('A' for Active; 'I' for Inactive)
REMARK    1  A    between atoms: C_1  and  C_2
REMARK    2  A    between atoms: C_2  and  C_3
REMARK    3  A    between atoms: C_2  and  C_4
REMARK    4  A    between atoms: C_2  and  C_5
REMARK    5  A    between atoms: C_5  and  C_6
REMARK    6  A    between atoms: C_6  and  N_7
REMARK    7  A    between atoms: C_13  and  C_15
REMARK    8  A    between atoms: C_18  and  S_20
REMARK    9  A    between atoms: S_20  and  N_23
REMARK                            x       y       z     vdW  Elec       q    Type
REMARK                         _______ _______ _______ _____ _____    ______ ____
ROOT
ATOM      1  N   UNL     1       2.902  -0.422  -2.393  0.00  0.00    +0.382 N 
ATOM      2  C   UNL     1       3.027  -1.883  -2.323  0.00  0.00    -0.060 C 
ATOM      3  C   UNL     1       3.591  -2.411  -3.646  0.00  0.00    +0.089 C 
ATOM      4  N   UNL     1       4.851  -1.706  -3.930  0.00  0.00    -0.299 N 
ATOM      5  C   UNL     1       4.855  -0.237  -3.860  0.00  0.00    +0.089 C 
ATOM      6  C   UNL     1       4.232   0.188  -2.527  0.00  0.00    -0.060 C 
ATOM      7  C   UNL     1       5.971  -2.388  -4.243  0.00  0.00    +0.282 C 
ATOM      8  O   UNL     1       6.987  -1.787  -4.540  0.00  0.00    -0.267 OA
ATOM      9  H   UNL     1       2.338  -0.173  -3.191  0.00  0.00    -0.082 HD
ENDROOT
BRANCH   7  10
ATOM     10  C   UNL     1       5.965  -3.855  -4.228  0.00  0.00    +0.192 A 
ATOM     11  C   UNL     1       7.052  -4.663  -4.395  0.00  0.00    +0.057 A 
ATOM     12  C   UNL     1       6.589  -5.986  -4.306  0.00  0.00    +0.072 A 
ATOM     13  C   UNL     1       5.256  -5.927  -4.093  0.00  0.00    +0.258 A 
ATOM     14  O   UNL     1       4.885  -4.641  -4.041  0.00  0.00    -0.432 OA
BRANCH  13  15
ATOM     15  S   UNL     1       4.185  -7.313  -3.907  0.00  0.00    +0.089 S 
ATOM     16  O   UNL     1       2.882  -6.869  -4.260  0.00  0.00    -0.150 OA
ATOM     17  O   UNL     1       4.819  -8.406  -4.556  0.00  0.00    -0.150 OA
BRANCH  15  18
ATOM     18  N   UNL     1       4.138  -7.683  -2.293  0.00  0.00    -0.201 NA
ATOM     19  H   UNL     1       4.652  -7.158  -1.660  0.00  0.00    +0.144 HD
ATOM     20  H   UNL     1       3.597  -8.425  -1.982  0.00  0.00    +0.144 HD
ENDBRANCH  15  18
ENDBRANCH  13  15
ENDBRANCH   7  10
BRANCH   1  21
ATOM     21  C   UNL     1       2.260   0.072  -1.168  0.00  0.00    -0.078 C 
BRANCH  21  22
ATOM     22  C   UNL     1       0.829  -0.463  -1.090  0.00  0.00    -0.013 C 
BRANCH  22  24
ATOM     23  C   UNL     1       0.132   1.581   0.165  0.00  0.00    +0.010 C 
ATOM     24  C   UNL     1       0.160   0.051   0.186  0.00  0.00    -0.039 C 
ATOM     25  C   UNL     1       0.951  -0.428   1.405  0.00  0.00    +0.010 C 
ATOM     26  C   UNL     1      -1.271  -0.484   0.263  0.00  0.00    +0.010 C 
ENDBRANCH  22  24
ENDBRANCH  21  22
ENDBRANCH   1  21
TORSDOF 6
