REMARK  Name = ZINC33681533
REMARK  12 active torsions:
REMARK  status: ('A' for Active; 'I' for Inactive)
REMARK    1  A    between atoms: C_1  and  C_2
REMARK    2  A    between atoms: C_2  and  C_3
REMARK    3  A    between atoms: C_3  and  C_4
REMARK    4  A    between atoms: C_4  and  C_5
REMARK    5  A    between atoms: C_5  and  C_30
REMARK    6  A    between atoms: C_10  and  C_13
REMARK    7  A    between atoms: C_15  and  O_20
REMARK    8  A    between atoms: C_17  and  O_19
REMARK    9  A    between atoms: N_23  and  C_26
REMARK   10  A    between atoms: C_26  and  C_27
REMARK   11  A    between atoms: C_26  and  C_28
REMARK   12  A    between atoms: C_26  and  C_29
REMARK                            x       y       z     vdW  Elec       q    Type
REMARK                         _______ _______ _______ _____ _____    ______ ____
ROOT
ATOM      1  C   UNL     1       1.235   3.094   0.007  0.00  0.00    +0.048 C 
ATOM      2  C   UNL     1       2.514   3.579   0.720  0.00  0.00    +0.086 C 
ATOM      3  C   UNL     1       2.080   4.851   1.496  0.00  0.00    +0.077 C 
ATOM      4  C   UNL     1       0.579   5.016   1.178  0.00  0.00    -0.026 C 
ATOM      5  N   UNL     1       0.119   3.651   0.813  0.00  0.00    +0.395 N 
ATOM      6  C   UNL     1       2.240   4.449   2.945  0.00  0.00    +0.225 C 
ATOM      7  O   UNL     1       2.005   5.159   3.899  0.00  0.00    -0.275 OA
ATOM      8  N   UNL     1       2.682   3.188   3.009  0.00  0.00    -0.236 N 
ATOM      9  C   UNL     1       2.870   2.604   1.820  0.00  0.00    +0.225 C 
ATOM     10  O   UNL     1       3.264   1.470   1.651  0.00  0.00    -0.275 OA
ATOM     11  H   UNL     1      -0.797   3.674   0.205  0.00  0.00    -0.083 HD
ATOM     12  H   UNL     1      -0.044   3.020   1.699  0.00  0.00    -0.083 HD
ENDROOT
BRANCH   4  13
ATOM     13  C   UNL     1      -0.164   5.513   2.392  0.00  0.00    -0.054 A 
ATOM     14  C   UNL     1      -0.524   4.628   3.390  0.00  0.00    +0.047 A 
ATOM     15  C   UNL     1      -1.203   5.085   4.511  0.00  0.00    +0.121 A 
ATOM     16  C   UNL     1      -1.529   6.428   4.624  0.00  0.00    +0.090 A 
ATOM     17  C   UNL     1      -1.171   7.312   3.618  0.00  0.00    +0.121 A 
ATOM     18  C   UNL     1      -0.488   6.852   2.501  0.00  0.00    +0.047 A 
BRANCH  17  19
ATOM     19  O   UNL     1      -1.489   8.629   3.725  0.00  0.00    -0.507 OA
ATOM     20  H   UNL     1      -1.205   9.330   2.927  0.00  0.00    +0.292 HD
ENDBRANCH  17  19
BRANCH  15  21
ATOM     21  O   UNL     1      -1.553   4.215   5.495  0.00  0.00    -0.507 OA
ATOM     22  H   UNL     1      -2.091   4.578   6.383  0.00  0.00    +0.292 HD
ENDBRANCH  15  21
ENDBRANCH   4  13
BRANCH   8  23
ATOM     23  C   UNL     1       2.938   2.502   4.278  0.00  0.00    +0.036 C 
ATOM     24  C   UNL     1       4.409   2.084   4.344  0.00  0.00    +0.031 C 
ATOM     25  C   UNL     1       2.624   3.446   5.441  0.00  0.00    +0.031 C 
ATOM     26  C   UNL     1       2.050   1.260   4.375  0.00  0.00    +0.031 C 
ENDBRANCH   8  23
BRANCH   1  27
ATOM     27  C   UNL     1       1.177   1.588  -0.001  0.00  0.00    +0.346 C 
ATOM     28  O   UNL     1       1.620   0.971  -0.940  0.00  0.00    -0.248 OA
ATOM     29  O   UNL     1       0.632   0.933   1.036  0.00  0.00    -0.248 OA
ENDBRANCH   1  27
BRANCH   1  30
ATOM     30  C   UNL     1       1.185   3.636  -1.423  0.00  0.00    -0.000 C 
BRANCH  30  31
ATOM     31  C   UNL     1      -0.163   3.282  -2.055  0.00  0.00    -0.001 C 
BRANCH  31  33
ATOM     32  C   UNL     1      -1.561   3.469  -4.118  0.00  0.00    +0.004 C 
ATOM     33  C   UNL     1      -0.213   3.823  -3.486  0.00  0.00    -0.003 C 
ENDBRANCH  31  33
ENDBRANCH  30  31
ENDBRANCH   1  30
TORSDOF 8
