REMARK  Name = ZINC53240277
REMARK  10 active torsions:
REMARK  status: ('A' for Active; 'I' for Inactive)
REMARK    1  A    between atoms: C_1  and  C_2
REMARK    2  A    between atoms: C_2  and  C_3
REMARK    3  A    between atoms: C_3  and  C_4
REMARK    4  A    between atoms: C_4  and  N_5
REMARK    5  A    between atoms: N_5  and  C_6
REMARK    6  A    between atoms: C_7  and  C_9
REMARK    7  A    between atoms: N_12  and  C_15
REMARK    8  A    between atoms: C_15  and  C_17
REMARK    9  A    between atoms: C_15  and  C_18
REMARK   10  A    between atoms: N_23  and  C_24
REMARK                            x       y       z     vdW  Elec       q    Type
REMARK                         _______ _______ _______ _____ _____    ______ ____
ROOT
ATOM      1  C   UNL     1       3.022  -3.484  -8.790  0.00  0.00    +0.017 C 
ATOM      2  C   UNL     1       1.685  -3.037  -9.385  0.00  0.00    -0.004 C 
ENDROOT
BRANCH   1   3
ATOM      3  C   UNL     1       4.096  -2.497  -9.170  0.00  0.00    +0.207 C 
ATOM      4  O   UNL     1       4.343  -1.559  -8.442  0.00  0.00    -0.277 OA
ATOM      5  N   UNL     1       4.782  -2.657 -10.319  0.00  0.00    -0.242 N 
ATOM      6  C   UNL     1       5.742  -1.775 -10.659  0.00  0.00    +0.306 C 
ATOM      7  O   UNL     1       5.990  -0.835  -9.930  0.00  0.00    -0.252 OA
ATOM      8  N   UNL     1       6.429  -1.935 -11.808  0.00  0.00    -0.296 N 
ATOM      9  H   UNL     1       4.585  -3.408 -10.901  0.00  0.00    +0.159 HD
ATOM     10  H   UNL     1       6.231  -2.686 -12.390  0.00  0.00    +0.151 HD
BRANCH   8  11
ATOM     11  C   UNL     1       7.472  -0.976 -12.178  0.00  0.00    +0.074 C 
ATOM     12  C   UNL     1       6.838   0.217 -12.895  0.00  0.00    +0.022 C 
ATOM     13  C   UNL     1       7.928   1.219 -13.281  0.00  0.00    +0.002 C 
ATOM     14  C   UNL     1       8.936   0.542 -14.211  0.00  0.00    +0.000 C 
ATOM     15  C   UNL     1       9.571  -0.651 -13.495  0.00  0.00    +0.002 C 
ATOM     16  C   UNL     1       8.480  -1.653 -13.108  0.00  0.00    +0.022 C 
ENDBRANCH   8  11
ENDBRANCH   1   3
BRANCH   1  20
ATOM     17  C   UNL     1       3.001  -4.921  -4.779  0.00  0.00    +0.072 C 
ATOM     18  C   UNL     1       4.107  -3.963  -5.229  0.00  0.00    -0.006 C 
ATOM     19  C   UNL     1       4.193  -3.975  -6.757  0.00  0.00    -0.077 C 
ATOM     20  N   UNL     1       2.910  -3.546  -7.326  0.00  0.00    +0.387 N 
ATOM     21  C   UNL     1       1.858  -4.500  -6.957  0.00  0.00    -0.077 C 
ATOM     22  C   UNL     1       1.682  -4.509  -5.438  0.00  0.00    -0.006 C 
ATOM     23  H   UNL     1       2.674  -2.632  -6.970  0.00  0.00    -0.081 HD
BRANCH  17  26
ATOM     24  N   UNL     1       3.779  -5.440  -2.489  0.00  0.00    -0.304 N 
ATOM     25  C   UNL     1       4.980  -6.037  -3.080  0.00  0.00    +0.132 C 
ATOM     26  C   UNL     1       2.857  -4.857  -3.280  0.00  0.00    +0.218 C 
ATOM     27  O   UNL     1       1.912  -4.279  -2.785  0.00  0.00    -0.275 OA
BRANCH  24  28
ATOM     28  C   UNL     1       3.581  -5.478  -1.038  0.00  0.00    +0.107 C 
BRANCH  28  29
ATOM     29  C   UNL     1       4.202  -4.230  -0.406  0.00  0.00    +0.019 C 
BRANCH  29  31
ATOM     30  C   UNL     1       4.615  -3.022   1.742  0.00  0.00    +0.004 C 
ATOM     31  C   UNL     1       3.995  -4.270   1.110  0.00  0.00    -0.002 C 
ENDBRANCH  29  31
ENDBRANCH  28  29
ENDBRANCH  24  28
ENDBRANCH  17  26
ENDBRANCH   1  20
TORSDOF 7
