REMARK  Name = ZINC66704327
REMARK  8 active torsions:
REMARK  status: ('A' for Active; 'I' for Inactive)
REMARK    1  A    between atoms: C_1  and  C_2
REMARK    2  A    between atoms: C_4  and  C_27
REMARK    3  A    between atoms: C_6  and  C_8
REMARK    4  A    between atoms: C_8  and  C_10
REMARK    5  A    between atoms: C_8  and  N_11
REMARK    6  A    between atoms: N_14  and  C_15
REMARK    7  A    between atoms: C_15  and  C_16
REMARK    8  A    between atoms: C_20  and  C_22
REMARK                            x       y       z     vdW  Elec       q    Type
REMARK                         _______ _______ _______ _____ _____    ______ ____
ROOT
ATOM      1  N   UNL     1      -0.838  -2.189   3.449  0.00  0.00    -0.293 N 
ATOM      2  C   UNL     1      -1.383  -2.900   4.456  0.00  0.00    +0.300 C 
ATOM      3  O   UNL     1      -1.135  -4.085   4.567  0.00  0.00    -0.253 OA
ATOM      4  N   UNL     1      -2.203  -2.296   5.339  0.00  0.00    -0.292 N 
ATOM      5  H   UNL     1      -1.036  -1.244   3.360  0.00  0.00    +0.151 HD
ATOM      6  H   UNL     1      -2.401  -1.351   5.250  0.00  0.00    +0.151 HD
ENDROOT
BRANCH   1   7
ATOM      7  C   UNL     1       0.054  -2.844   2.489  0.00  0.00    +0.102 C 
ATOM      8  C   UNL     1       1.478  -2.867   3.048  0.00  0.00    +0.033 C 
BRANCH   7  14
ATOM      9  C   UNL     1      -0.018   1.503   0.010  0.00  0.00    +0.044 C 
ATOM     10  C   UNL     1       0.002  -0.004   0.002  0.00  0.00    -0.050 A 
ATOM     11  C   UNL     1       0.006  -0.689  -1.199  0.00  0.00    +0.006 A 
ATOM     12  C   UNL     1       0.025  -2.071  -1.206  0.00  0.00    -0.050 A 
ATOM     13  C   UNL     1       0.040  -2.768  -0.013  0.00  0.00    +0.008 A 
ATOM     14  C   UNL     1       0.037  -2.084   1.188  0.00  0.00    -0.027 A 
ATOM     15  C   UNL     1       0.023  -0.702   1.195  0.00  0.00    +0.008 A 
ATOM     16  C   UNL     1       0.027  -2.817  -2.516  0.00  0.00    +0.044 C 
ENDBRANCH   7  14
ENDBRANCH   1   7
BRANCH   4  17
ATOM     17  C   UNL     1      -2.796  -3.069   6.434  0.00  0.00    +0.181 C 
BRANCH  17  18
ATOM     18  C   UNL     1      -3.666  -2.167   7.271  0.00  0.00    +0.143 A 
ATOM     19  N   UNL     1      -4.995  -2.011   7.139  0.00  0.00    -0.261 N 
ATOM     20  H   UNL     1      -5.570  -2.453   6.495  0.00  0.00    +0.190 HD
ATOM     21  N   UNL     1      -5.388  -1.085   8.119  0.00  0.00    -0.152 NA
ATOM     22  C   UNL     1      -4.299  -0.740   8.773  0.00  0.00    +0.188 A 
ATOM     23  N   UNL     1      -3.258  -1.408   8.253  0.00  0.00    -0.209 NA
BRANCH  22  24
ATOM     24  C   UNL     1      -4.234   0.218   9.897  0.00  0.00    +0.058 A 
ATOM     25  C   UNL     1      -5.247   0.926  10.486  0.00  0.00    +0.019 A 
ATOM     26  C   UNL     1      -4.944   1.770  11.532  0.00  0.00    +0.008 A 
ATOM     27  C   UNL     1      -3.655   1.875  11.945  0.00  0.00    +0.046 A 
ATOM     28  S   UNL     1      -2.816   0.749  10.843  0.00  0.00    -0.093 S 
ENDBRANCH  22  24
ENDBRANCH  17  18
ENDBRANCH   4  17
TORSDOF 5
