REMARK  Name = ZINC67543571
REMARK  8 active torsions:
REMARK  status: ('A' for Active; 'I' for Inactive)
REMARK    1  A    between atoms: C_1  and  C_2
REMARK    2  A    between atoms: C_7  and  C_10
REMARK    3  A    between atoms: C_14  and  N_17
REMARK    4  A    between atoms: N_20  and  C_21
REMARK    5  A    between atoms: N_20  and  C_22
REMARK    6  A    between atoms: C_22  and  C_24
REMARK    7  A    between atoms: C_22  and  C_25
REMARK    8  A    between atoms: C_29  and  O_31
REMARK                            x       y       z     vdW  Elec       q    Type
REMARK                         _______ _______ _______ _____ _____    ______ ____
ROOT
ATOM      1  N   UNL     1       4.844   2.515  -5.240  0.00  0.00    -0.268 N 
ATOM      2  C   UNL     1       4.482   2.333  -6.526  0.00  0.00    +0.307 C 
ATOM      3  O   UNL     1       3.510   1.654  -6.793  0.00  0.00    -0.252 OA
ATOM      4  N   UNL     1       5.199   2.903  -7.514  0.00  0.00    -0.282 N 
ATOM      5  C   UNL     1       6.371   3.721  -7.192  0.00  0.00    +0.134 C 
ATOM      6  H   UNL     1       5.580   3.108  -5.023  0.00  0.00    +0.156 HD
ENDROOT
BRANCH   1  18
ATOM      7  C   UNL     1       0.464   1.683   0.380  0.00  0.00    +0.039 C 
ATOM      8  C   UNL     1       0.271   0.172   0.242  0.00  0.00    +0.133 C 
ATOM      9  C   UNL     1       0.792  -0.288  -1.124  0.00  0.00    +0.137 C 
ATOM     10  N   UNL     1       2.255  -0.123  -1.143  0.00  0.00    -0.312 N 
ATOM     11  C   UNL     1       3.028  -0.685  -0.024  0.00  0.00    +0.137 C 
ATOM     12  C   UNL     1       2.397  -0.206   1.289  0.00  0.00    +0.133 C 
ATOM     13  O   UNL     1       0.997  -0.499   1.274  0.00  0.00    -0.371 OA
ATOM     14  C   UNL     1       3.059  -0.925   2.466  0.00  0.00    +0.039 C 
ATOM     15  C   UNL     1       2.888   0.544  -2.188  0.00  0.00    +0.099 A 
ATOM     16  C   UNL     1       2.146   0.953  -3.291  0.00  0.00    +0.043 A 
ATOM     17  C   UNL     1       2.785   1.615  -4.324  0.00  0.00    +0.028 A 
ATOM     18  C   UNL     1       4.155   1.848  -4.217  0.00  0.00    +0.051 A 
ATOM     19  C   UNL     1       4.829   1.411  -3.087  0.00  0.00    +0.107 A 
ATOM     20  N   UNL     1       4.187   0.787  -2.118  0.00  0.00    -0.348 N 
ATOM     21  H   UNL     1       4.680   0.494  -1.335  0.00  0.00    +0.167 HD
ENDBRANCH   1  18
BRANCH   4  22
ATOM     22  C   UNL     1       4.807   2.705  -8.912  0.00  0.00    +0.104 C 
ATOM     23  C   UNL     1       4.644   4.064  -9.594  0.00  0.00    +0.033 C 
BRANCH  22  24
ATOM     24  C   UNL     1       5.870   1.909  -9.624  0.00  0.00    -0.024 A 
ATOM     25  C   UNL     1       5.527   0.764 -10.319  0.00  0.00    +0.006 A 
ATOM     26  C   UNL     1       6.500   0.032 -10.974  0.00  0.00    +0.004 A 
ATOM     27  C   UNL     1       7.819   0.444 -10.935  0.00  0.00    +0.045 A 
ATOM     28  C   UNL     1       8.165   1.593 -10.239  0.00  0.00    +0.117 A 
ATOM     29  C   UNL     1       7.186   2.329  -9.588  0.00  0.00    +0.050 A 
BRANCH  28  30
ATOM     30  O   UNL     1       9.461   2.000 -10.200  0.00  0.00    -0.507 OA
ATOM     31  H   UNL     1       9.708   2.598 -10.918  0.00  0.00    +0.292 HD
ENDBRANCH  28  30
ENDBRANCH  22  24
ENDBRANCH   4  22
TORSDOF 4
