REMARK  Name = ZINC00851455
REMARK  7 active torsions:
REMARK  status: ('A' for Active; 'I' for Inactive)
REMARK    1  A    between atoms: C_1  and  C_2
REMARK    2  A    between atoms: C_2  and  C_34
REMARK    3  A    between atoms: C_6  and  C_19
REMARK    4  A    between atoms: C_21  and  O_29
REMARK    5  A    between atoms: C_22  and  O_28
REMARK    6  A    between atoms: C_24  and  N_25
REMARK    7  A    between atoms: O_29  and  C_30
REMARK                            x       y       z     vdW  Elec       q    Type
REMARK                         _______ _______ _______ _____ _____    ______ ____
ROOT
ATOM      1  C   UNL     1      -3.677   0.047   3.244  0.00  0.00    +0.011 C 
ATOM      2  C   UNL     1      -3.966   1.054   2.130  0.00  0.00    -0.024 C 
ATOM      3  C   UNL     1      -2.790   1.105   1.152  0.00  0.00    +0.043 C 
ATOM      4  C   UNL     1      -2.602  -0.230   0.481  0.00  0.00    -0.029 C 
ATOM      5  C   UNL     1      -3.676  -1.033   0.244  0.00  0.00    +0.023 C 
ATOM      6  C   UNL     1      -3.514  -2.350  -0.473  0.00  0.00    +0.137 C 
ATOM      7  N   UNL     1      -2.162  -2.875  -0.288  0.00  0.00    -0.332 N 
ATOM      8  C   UNL     1      -1.089  -2.008  -0.182  0.00  0.00    +0.036 A 
ATOM      9  C   UNL     1      -1.306  -0.648   0.094  0.00  0.00    +0.007 A 
ATOM     10  C   UNL     1      -0.164   0.260   0.031  0.00  0.00    -0.009 A 
ATOM     11  C   UNL     1      -0.293   1.650   0.059  0.00  0.00    +0.009 A 
ATOM     12  C   UNL     1       0.817   2.446   0.062  0.00  0.00    +0.001 A 
ATOM     13  C   UNL     1       2.093   1.894   0.027  0.00  0.00    +0.001 A 
ATOM     14  C   UNL     1       2.261   0.544  -0.034  0.00  0.00    +0.008 A 
ATOM     15  C   UNL     1       1.138  -0.298  -0.071  0.00  0.00    -0.017 A 
ATOM     16  C   UNL     1       1.293  -1.689  -0.224  0.00  0.00    +0.010 A 
ATOM     17  C   UNL     1       0.211  -2.501  -0.325  0.00  0.00    +0.024 A 
ATOM     18  C   UNL     1      -4.966  -0.661   0.654  0.00  0.00    +0.162 C 
ATOM     19  O   UNL     1      -5.900  -1.410   0.437  0.00  0.00    -0.292 OA
ATOM     20  C   UNL     1      -5.223   0.641   1.361  0.00  0.00    +0.086 C 
ATOM     21  C   UNL     1      -4.177   2.442   2.743  0.00  0.00    +0.011 C 
ATOM     22  H   UNL     1      -2.013  -3.839  -0.243  0.00  0.00    +0.147 HD
ENDROOT
BRANCH   6  23
ATOM     23  C   UNL     1      -3.781  -2.158  -1.944  0.00  0.00    +0.011 A 
ATOM     24  C   UNL     1      -3.809  -0.883  -2.479  0.00  0.00    +0.057 A 
ATOM     25  C   UNL     1      -4.048  -0.705  -3.832  0.00  0.00    +0.162 A 
ATOM     26  C   UNL     1      -4.271  -1.811  -4.648  0.00  0.00    +0.161 A 
ATOM     27  C   UNL     1      -4.247  -3.085  -4.104  0.00  0.00    +0.082 A 
ATOM     28  C   UNL     1      -4.003  -3.256  -2.754  0.00  0.00    +0.135 A 
BRANCH  28  29
ATOM     29  N   UNL     1      -3.977  -4.618  -2.175  0.00  0.00    +0.057 N 
ATOM     30  O   UNL     1      -4.069  -5.590  -2.902  0.00  0.00    -0.126 OA
ATOM     31  O   UNL     1      -3.865  -4.766  -0.971  0.00  0.00    -0.126 OA
ENDBRANCH  28  29
BRANCH  26  32
ATOM     32  O   UNL     1      -4.511  -1.641  -5.975  0.00  0.00    -0.503 OA
ATOM     33  H   UNL     1      -5.447  -1.538  -6.196  0.00  0.00    +0.292 HD
ENDBRANCH  26  32
BRANCH  25  34
ATOM     34  O   UNL     1      -4.071   0.548  -4.361  0.00  0.00    -0.491 OA
ATOM     35  C   UNL     1      -3.834   1.635  -3.464  0.00  0.00    +0.277 C 
ENDBRANCH  25  34
ENDBRANCH   6  23
TORSDOF 4
