REMARK  Name = ZINC20834623
REMARK  7 active torsions:
REMARK  status: ('A' for Active; 'I' for Inactive)
REMARK    1  A    between atoms: C_3  and  O_27
REMARK    2  A    between atoms: C_4  and  C_8
REMARK    3  A    between atoms: N_9  and  N_10
REMARK    4  A    between atoms: C_13  and  S_16
REMARK    5  A    between atoms: S_16  and  C_17
REMARK    6  A    between atoms: C_17  and  C_18
REMARK    7  A    between atoms: C_21  and  C_23
REMARK                            x       y       z     vdW  Elec       q    Type
REMARK                         _______ _______ _______ _____ _____    ______ ____
ROOT
ATOM      1  N   UNL     1       9.213   0.414  -2.810  0.00  0.00    -0.205 N 
ATOM      2  C   UNL     1       8.025   0.446  -2.094  0.00  0.00    +0.232 A 
ATOM      3  N   UNL     1       6.767   0.486  -2.626  0.00  0.00    -0.186 NA
ATOM      4  C   UNL     1       5.872   0.507  -1.594  0.00  0.00    +0.211 A 
ATOM      5  N   UNL     1       6.549   0.486  -0.470  0.00  0.00    -0.144 NA
ATOM      6  N   UNL     1       7.913   0.442  -0.787  0.00  0.00    -0.245 N 
ATOM      7  H   UNL     1       9.192   0.420  -3.910  0.00  0.00    +0.177 HD
ATOM      8  H   UNL     1       8.815   0.409  -0.158  0.00  0.00    +0.192 HD
ENDROOT
BRANCH   1  10
ATOM      9  C   UNL     1      11.551   0.345  -2.803  0.00  0.00    +0.142 C 
ATOM     10  N   UNL     1      10.439   0.375  -2.133  0.00  0.00    -0.187 NA
BRANCH   9  14
ATOM     11  C   UNL     1      15.267   0.225  -0.750  0.00  0.00    +0.019 A 
ATOM     12  C   UNL     1      14.087   0.256  -0.029  0.00  0.00    +0.047 A 
ATOM     13  C   UNL     1      12.871   0.301  -0.689  0.00  0.00    +0.126 A 
ATOM     14  C   UNL     1      12.840   0.303  -2.091  0.00  0.00    +0.037 A 
ATOM     15  C   UNL     1      14.038   0.272  -2.808  0.00  0.00    +0.028 A 
ATOM     16  C   UNL     1      15.242   0.233  -2.135  0.00  0.00    +0.019 A 
ATOM     17 BR   UNL     1      16.864   0.189  -3.106  0.00  0.00    -0.050 Br
BRANCH  13  18
ATOM     18  O   UNL     1      11.712   0.338   0.018  0.00  0.00    -0.506 OA
ATOM     19  H   UNL     1      10.747   0.374  -0.508  0.00  0.00    +0.292 HD
ENDBRANCH  13  18
ENDBRANCH   9  14
ENDBRANCH   1  10
BRANCH   4  20
ATOM     20  S   UNL     1       4.117   0.560  -1.745  0.00  0.00    -0.075 S 
BRANCH  20  21
ATOM     21  C   UNL     1       3.530   0.568  -0.029  0.00  0.00    +0.175 C 
BRANCH  21  22
ATOM     22  C   UNL     1       2.023   0.612  -0.014  0.00  0.00    +0.228 A 
ATOM     23  N   UNL     1       1.222  -0.414  -0.012  0.00  0.00    -0.111 NA
ATOM     24  N   UNL     1       0.002  -0.004   0.002  0.00  0.00    -0.103 NA
ATOM     25  C   UNL     1      -0.016   1.298   0.009  0.00  0.00    +0.322 A 
ATOM     26  O   UNL     1       1.261   1.718  -0.001  0.00  0.00    -0.416 OA
BRANCH  25  27
ATOM     27  C   UNL     1      -1.242   2.174   0.020  0.00  0.00    +0.471 C 
ATOM     28  F   UNL     1      -2.385   1.374   0.137  0.00  0.00    -0.162 F 
ATOM     29  F   UNL     1      -1.177   3.055   1.105  0.00  0.00    -0.162 F 
ATOM     30  F   UNL     1      -1.304   2.904  -1.171  0.00  0.00    -0.162 F 
ENDBRANCH  25  27
ENDBRANCH  21  22
ENDBRANCH  20  21
ENDBRANCH   4  20
TORSDOF 7
