REMARK  Name = ZINC08763964
REMARK  5 active torsions:
REMARK  status: ('A' for Active; 'I' for Inactive)
REMARK    1  A    between atoms: C_1  and  C_2
REMARK    2  A    between atoms: C_2  and  S_3
REMARK    3  A    between atoms: S_3  and  C_4
REMARK    4  A    between atoms: C_17  and  C_20
REMARK    5  A    between atoms: C_25  and  O_26
REMARK                            x       y       z     vdW  Elec       q    Type
REMARK                         _______ _______ _______ _____ _____    ______ ____
ROOT
ATOM      1  C   UNL     1       1.294  -4.696   0.096  0.00  0.00    +0.212 A 
ATOM      2  N   UNL     1       0.516  -4.093  -0.798  0.00  0.00    -0.184 NA
ATOM      3  C   UNL     1       0.442  -2.773  -0.805  0.00  0.00    +0.248 A 
ATOM      4  C   UNL     1       1.190  -2.046   0.148  0.00  0.00    +0.156 A 
ATOM      5  N   UNL     1       1.947  -2.708   1.010  0.00  0.00    -0.141 NA
ATOM      6  N   UNL     1       1.994  -3.995   0.979  0.00  0.00    -0.122 NA
ATOM      7  C   UNL     1       1.112  -0.571   0.165  0.00  0.00    +0.028 A 
ATOM      8  C   UNL     1       2.255   0.217   0.236  0.00  0.00    +0.012 A 
ATOM      9  C   UNL     1       2.139   1.593   0.273  0.00  0.00    +0.001 A 
ATOM     10  C   UNL     1       0.891   2.192   0.241  0.00  0.00    +0.002 A 
ATOM     11  C   UNL     1      -0.254   1.421   0.166  0.00  0.00    +0.024 A 
ATOM     12  C   UNL     1      -0.154   0.043   0.122  0.00  0.00    +0.039 A 
ATOM     13  N   UNL     1      -1.289  -0.768   0.017  0.00  0.00    -0.305 N 
ATOM     14  C   UNL     1      -1.517  -1.502  -1.224  0.00  0.00    +0.297 C 
ATOM     15  O   UNL     1      -0.326  -2.113  -1.704  0.00  0.00    -0.449 OA
ATOM     16  H   UNL     1      -1.913  -0.842   0.756  0.00  0.00    +0.150 HD
ENDROOT
BRANCH  14  17
ATOM     17  C   UNL     1      -2.034  -0.547  -2.269  0.00  0.00    +0.055 A 
ATOM     18  C   UNL     1      -1.164   0.011  -3.187  0.00  0.00    +0.032 A 
ATOM     19  C   UNL     1      -1.638   0.888  -4.146  0.00  0.00    +0.043 A 
ATOM     20  C   UNL     1      -2.983   1.209  -4.189  0.00  0.00    +0.039 A 
ATOM     21  C   UNL     1      -3.857   0.653  -3.274  0.00  0.00    +0.061 A 
ATOM     22  C   UNL     1      -3.384  -0.232  -2.314  0.00  0.00    +0.139 A 
ATOM     23 BR   UNL     1      -5.695   1.091  -3.333  0.00  0.00    -0.046 Br
ATOM     24 CL   UNL     1      -0.543   1.589  -5.296  0.00  0.00    -0.083 Cl
BRANCH  22  25
ATOM     25  O   UNL     1      -4.242  -0.785  -1.416  0.00  0.00    -0.505 OA
ATOM     26  H   UNL     1      -4.351  -0.268  -0.607  0.00  0.00    +0.292 HD
ENDBRANCH  22  25
ENDBRANCH  14  17
BRANCH   1  27
ATOM     27  S   UNL     1       1.398  -6.455   0.109  0.00  0.00    -0.085 S 
BRANCH  27  29
ATOM     28  C   UNL     1       2.804  -8.188   1.685  0.00  0.00    +0.016 C 
ATOM     29  C   UNL     1       2.554  -6.692   1.481  0.00  0.00    +0.074 C 
ENDBRANCH  27  29
ENDBRANCH   1  27
TORSDOF 4
