REMARK  Name = ZINC58648528
REMARK  4 active torsions:
REMARK  status: ('A' for Active; 'I' for Inactive)
REMARK    1  A    between atoms: C_1  and  N_2
REMARK    2  A    between atoms: N_2  and  C_3
REMARK    3  A    between atoms: C_6  and  N_9
REMARK    4  A    between atoms: C_12  and  C_14
REMARK                            x       y       z     vdW  Elec       q    Type
REMARK                         _______ _______ _______ _____ _____    ______ ____
ROOT
ATOM      1  C   UNL     1       2.473  -0.662  -1.242  0.00  0.00    +0.138 C 
ATOM      2  N   UNL     1       1.201  -1.004  -0.602  0.00  0.00    -0.274 N 
ATOM      3  C   UNL     1       0.044  -0.529  -1.105  0.00  0.00    +0.227 C 
ATOM      4  O   UNL     1      -0.998  -0.718  -0.513  0.00  0.00    -0.275 OA
ENDROOT
BRANCH   3   5
ATOM      5  C   UNL     1       0.045   0.235  -2.404  0.00  0.00    +0.106 C 
ATOM      6  C   UNL     1       0.005  -0.751  -3.569  0.00  0.00    +0.018 C 
ATOM      7  C   UNL     1      -0.213   0.040  -4.865  0.00  0.00    +0.006 C 
ATOM      8  C   UNL     1      -1.638   0.588  -4.860  0.00  0.00    +0.035 C 
ATOM      9  C   UNL     1      -1.922   1.315  -3.571  0.00  0.00    -0.043 A 
ATOM     10  C   UNL     1      -1.151   1.150  -2.443  0.00  0.00    -0.032 A 
ATOM     11  C   UNL     1      -1.472   1.845  -1.284  0.00  0.00    +0.004 A 
ATOM     12  C   UNL     1      -2.553   2.702  -1.257  0.00  0.00    +0.000 A 
ATOM     13  C   UNL     1      -3.324   2.870  -2.392  0.00  0.00    +0.000 A 
ATOM     14  C   UNL     1      -3.008   2.180  -3.542  0.00  0.00    +0.004 A 
ENDBRANCH   3   5
BRANCH   2  15
ATOM     15  C   UNL     1       1.186  -1.825   0.532  0.00  0.00    +0.036 A 
ATOM     16  C   UNL     1      -0.021  -2.287   1.040  0.00  0.00    +0.026 A 
ATOM     17  C   UNL     1      -0.032  -3.097   2.159  0.00  0.00    +0.034 A 
ATOM     18  C   UNL     1       1.156  -3.446   2.773  0.00  0.00    +0.126 A 
ATOM     19  C   UNL     1       2.360  -2.987   2.270  0.00  0.00    +0.034 A 
ATOM     20  C   UNL     1       2.378  -2.182   1.147  0.00  0.00    +0.026 A 
BRANCH  18  21
ATOM     21  N   UNL     1       1.141  -4.314   3.973  0.00  0.00    +0.056 N 
ATOM     22  O   UNL     1       0.089  -4.716   4.414  0.00  0.00    -0.126 OA
ATOM     23  O   UNL     1       2.179  -4.620   4.511  0.00  0.00    -0.126 OA
ENDBRANCH  18  21
ENDBRANCH   2  15
TORSDOF 3
