REMARK  Name = ZINC40158904
REMARK  6 active torsions:
REMARK  status: ('A' for Active; 'I' for Inactive)
REMARK    1  A    between atoms: C_3  and  C_6
REMARK    2  A    between atoms: C_6  and  C_8
REMARK    3  A    between atoms: C_6  and  N_13
REMARK    4  A    between atoms: N_16  and  C_17
REMARK    5  A    between atoms: C_17  and  C_19
REMARK    6  A    between atoms: C_17  and  C_24
REMARK                            x       y       z     vdW  Elec       q    Type
REMARK                         _______ _______ _______ _____ _____    ______ ____
ROOT
ATOM      1  N   UNL     1       4.587   1.010   0.851  0.00  0.00    -0.292 N 
ATOM      2  C   UNL     1       4.641   1.268   2.173  0.00  0.00    +0.301 C 
ATOM      3  O   UNL     1       4.005   2.194   2.639  0.00  0.00    -0.253 OA
ATOM      4  N   UNL     1       5.401   0.500   2.979  0.00  0.00    -0.292 N 
ATOM      5  H   UNL     1       5.094   0.272   0.480  0.00  0.00    +0.151 HD
ATOM      6  H   UNL     1       5.909  -0.239   2.607  0.00  0.00    +0.151 HD
ENDROOT
BRANCH   1   7
ATOM      7  C   UNL     1       3.761   1.845  -0.024  0.00  0.00    +0.114 C 
BRANCH   7  10
ATOM      8  C   UNL     1      -0.016   1.351   0.009  0.00  0.00    +0.008 A 
ATOM      9  C   UNL     1       1.183   2.038   0.002  0.00  0.00    +0.013 A 
ATOM     10  C   UNL     1       2.343   1.336  -0.013  0.00  0.00    +0.010 A 
ATOM     11  S   UNL     1       1.754  -0.349  -0.017  0.00  0.00    -0.100 S 
ATOM     12  C   UNL     1       0.002  -0.004   0.002  0.00  0.00    +0.045 A 
ENDBRANCH   7  10
BRANCH   7  13
ATOM     13  C   UNL     1       4.312   1.789  -1.451  0.00  0.00    +0.014 C 
ATOM     14  C   UNL     1       4.357   0.328  -1.942  0.00  0.00    +0.006 C 
ATOM     15  C   UNL     1       5.655   0.251  -2.785  0.00  0.00    +0.000 C 
ATOM     16  C   UNL     1       6.636   1.143  -1.984  0.00  0.00    +0.000 C 
ATOM     17  C   UNL     1       5.760   2.307  -1.477  0.00  0.00    +0.006 C 
ENDBRANCH   7  13
ENDBRANCH   1   7
BRANCH   4  18
ATOM     18  C   UNL     1       5.461   0.780   4.415  0.00  0.00    +0.114 C 
BRANCH  18  19
ATOM     19  C   UNL     1       4.303   0.107   5.107  0.00  0.00    +0.010 A 
ATOM     20  C   UNL     1       3.520   0.573   6.110  0.00  0.00    +0.013 A 
ATOM     21  C   UNL     1       2.503  -0.228   6.594  0.00  0.00    +0.008 A 
ATOM     22  C   UNL     1       2.318  -1.456   6.051  0.00  0.00    +0.045 A 
ATOM     23  S   UNL     1       3.601  -1.508   4.811  0.00  0.00    -0.100 S 
ENDBRANCH  18  19
BRANCH  18  24
ATOM     24  C   UNL     1       6.776   0.245   4.985  0.00  0.00    +0.014 C 
ATOM     25  C   UNL     1       6.884   0.596   6.484  0.00  0.00    +0.006 C 
ATOM     26  C   UNL     1       8.385   0.917   6.691  0.00  0.00    +0.000 C 
ATOM     27  C   UNL     1       8.758   1.663   5.387  0.00  0.00    +0.000 C 
ATOM     28  C   UNL     1       7.968   0.924   4.288  0.00  0.00    +0.006 C 
ENDBRANCH  18  24
ENDBRANCH   4  18
TORSDOF 6
