REMARK  Name = ZINC39922967
REMARK  8 active torsions:
REMARK  status: ('A' for Active; 'I' for Inactive)
REMARK    1  A    between atoms: C_1  and  C_2
REMARK    2  A    between atoms: C_2  and  C_18
REMARK    3  A    between atoms: N_3  and  N_4
REMARK    4  A    between atoms: C_5  and  C_7
REMARK    5  A    between atoms: C_10  and  C_12
REMARK    6  A    between atoms: C_21  and  O_26
REMARK    7  A    between atoms: C_22  and  O_24
REMARK    8  A    between atoms: O_24  and  C_25
REMARK                            x       y       z     vdW  Elec       q    Type
REMARK                         _______ _______ _______ _____ _____    ______ ____
ROOT
ATOM      1  N   UNL     1       0.024   0.035   2.340  0.00  0.00    -0.202 N 
ATOM      2  C   UNL     1       0.044  -0.645   3.503  0.00  0.00    +0.280 C 
ATOM      3  O   UNL     1       0.060  -1.863   3.497  0.00  0.00    -0.267 OA
ATOM      4  H   UNL     1       0.011   1.004   2.345  0.00  0.00    +0.178 HD
ENDROOT
BRANCH   2   5
ATOM      5  C   UNL     1       0.046   0.057   4.735  0.00  0.00    +0.132 C 
ATOM      6  N   UNL     1       0.024   1.355   4.912  0.00  0.00    -0.148 NA
ATOM      7  N   UNL     1       0.033   1.720   6.134  0.00  0.00    -0.152 NA
ATOM      8  C   UNL     1       0.061   0.720   6.995  0.00  0.00    +0.083 C 
ATOM      9  C   UNL     1       0.067  -0.533   6.135  0.00  0.00    +0.121 C 
BRANCH   8  10
ATOM     10  C   UNL     1       0.078   0.797   8.399  0.00  0.00    +0.037 A 
ATOM     11  C   UNL     1       0.062   1.927   9.219  0.00  0.00    +0.019 A 
ATOM     12  C   UNL     1       0.084   1.682  10.566  0.00  0.00    +0.028 A 
ATOM     13  C   UNL     1       0.120   0.393  11.004  0.00  0.00    +0.079 A 
ATOM     14  S   UNL     1       0.117  -0.524   9.597  0.00  0.00    -0.076 S 
ATOM     15 CL   UNL     1       0.155  -0.174  12.645  0.00  0.00    -0.076 Cl
ENDBRANCH   8  10
ENDBRANCH   2   5
BRANCH   1  18
ATOM     16  C   UNL     1      -0.018   1.503   0.010  0.00  0.00    +0.068 C 
ATOM     17  C   UNL     1       0.002  -0.004   0.002  0.00  0.00    +0.063 C 
ATOM     18  N   UNL     1       0.022  -0.659   1.123  0.00  0.00    -0.184 NA
BRANCH  17  19
ATOM     19  C   UNL     1      -0.000  -0.734  -1.278  0.00  0.00    +0.001 A 
ATOM     20  C   UNL     1      -0.015  -0.031  -2.486  0.00  0.00    +0.013 A 
ATOM     21  C   UNL     1      -0.017  -0.716  -3.683  0.00  0.00    +0.050 A 
ATOM     22  C   UNL     1      -0.005  -2.103  -3.692  0.00  0.00    +0.158 A 
ATOM     23  C   UNL     1       0.010  -2.811  -2.492  0.00  0.00    +0.162 A 
ATOM     24  C   UNL     1       0.019  -2.131  -1.288  0.00  0.00    +0.059 A 
BRANCH  23  25
ATOM     25  O   UNL     1       0.023  -4.171  -2.505  0.00  0.00    -0.491 OA
ATOM     26  C   UNL     1       0.038  -4.832  -1.238  0.00  0.00    +0.277 C 
ENDBRANCH  23  25
BRANCH  22  27
ATOM     27  O   UNL     1      -0.008  -2.773  -4.874  0.00  0.00    -0.503 OA
ATOM     28  H   UNL     1       0.875  -2.959  -5.223  0.00  0.00    +0.292 HD
ENDBRANCH  22  27
ENDBRANCH  17  19
ENDBRANCH   1  18
TORSDOF 6
