REMARK  Name = ZINC06193435
REMARK  14 active torsions:
REMARK  status: ('A' for Active; 'I' for Inactive)
REMARK    1  A    between atoms: C_1  and  C_2
REMARK    2  A    between atoms: C_2  and  N_63
REMARK    3  A    between atoms: C_3  and  C_4
REMARK    4  A    between atoms: C_3  and  N_63
REMARK    5  A    between atoms: C_5  and  C_6
REMARK    6  A    between atoms: C_5  and  N_63
REMARK    7  A    between atoms: C_6  and  N_7
REMARK    8  A    between atoms: N_7  and  C_8
REMARK    9  A    between atoms: N_7  and  C_23
REMARK   10  A    between atoms: C_8  and  C_9
REMARK   11  A    between atoms: C_14  and  C_22
REMARK   12  A    between atoms: C_15  and  C_21
REMARK   13  A    between atoms: C_23  and  N_25
REMARK   14  A    between atoms: N_25  and  C_26
REMARK                            x       y       z     vdW  Elec       q    Type
REMARK                         _______ _______ _______ _____ _____    ______ ____
ROOT
ATOM      1  N   UNL     1       3.251   3.956   1.288  0.00  0.00    -0.310 N 
ENDROOT
BRANCH   1   2
ATOM      2  C   UNL     1       2.946   5.031   2.042  0.00  0.00    +0.137 C 
ATOM      3  S   UNL     1       2.145   6.370   1.338  0.00  0.00    -0.018 S 
BRANCH   2   4
ATOM      4  N   UNL     1       3.271   5.052   3.349  0.00  0.00    -0.297 N 
ATOM      5  H   UNL     1       3.780   4.321   3.734  0.00  0.00    +0.154 HD
BRANCH   4   6
ATOM      6  C   UNL     1       2.876   6.128   4.152  0.00  0.00    +0.033 A 
ATOM      7  C   UNL     1       3.038   7.430   3.699  0.00  0.00    +0.026 A 
ATOM      8  C   UNL     1       2.642   8.491   4.490  0.00  0.00    +0.040 A 
ATOM      9  C   UNL     1       2.095   8.256   5.740  0.00  0.00    +0.124 A 
ATOM     10  C   UNL     1       1.937   6.959   6.197  0.00  0.00    +0.040 A 
ATOM     11  C   UNL     1       2.326   5.895   5.406  0.00  0.00    +0.026 A 
ATOM     12  F   UNL     1       1.713   9.295   6.515  0.00  0.00    -0.205 F 
ENDBRANCH   4   6
ENDBRANCH   2   4
ENDBRANCH   1   2
BRANCH   1  13
ATOM     13  C   UNL     1       3.936   2.810   1.891  0.00  0.00    +0.088 C 
BRANCH  13  14
ATOM     14  C   UNL     1       5.449   3.001   1.774  0.00  0.00    -0.060 C 
BRANCH  14  15
ATOM     15  N   UNL     1       6.123   1.911   2.511  0.00  0.00    +0.380 N 
ATOM     16  H   UNL     1       5.627   1.751   3.395  0.00  0.00    -0.082 HD
BRANCH  15  18
ATOM     17  C   UNL     1       6.592  -0.488   2.580  0.00  0.00    -0.017 C 
ATOM     18  C   UNL     1       6.094   0.668   1.712  0.00  0.00    -0.082 C 
ENDBRANCH  15  18
BRANCH  15  19
ATOM     19  C   UNL     1       7.521   2.290   2.806  0.00  0.00    -0.082 C 
ATOM     20  C   UNL     1       7.526   3.266   3.985  0.00  0.00    -0.017 C 
ENDBRANCH  15  19
ENDBRANCH  14  15
ENDBRANCH  13  14
ENDBRANCH   1  13
BRANCH   1  21
ATOM     21  C   UNL     1       2.897   3.933  -0.133  0.00  0.00    +0.147 C 
BRANCH  21  22
ATOM     22  C   UNL     1       1.520   3.344  -0.299  0.00  0.00    +0.035 A 
ATOM     23  C   UNL     1       0.440   4.161  -0.375  0.00  0.00    +0.020 A 
ATOM     24  C   UNL     1      -0.884   3.557  -0.536  0.00  0.00    -0.001 A 
ATOM     25  C   UNL     1      -2.035   4.348  -0.621  0.00  0.00    +0.010 A 
ATOM     26  C   UNL     1      -3.255   3.753  -0.772  0.00  0.00    +0.004 A 
ATOM     27  C   UNL     1      -3.364   2.371  -0.841  0.00  0.00    -0.046 A 
ATOM     28  C   UNL     1      -2.244   1.572  -0.759  0.00  0.00    -0.024 A 
ATOM     29  C   UNL     1      -0.990   2.156  -0.612  0.00  0.00    +0.052 A 
ATOM     30  N   UNL     1       0.147   1.380  -0.523  0.00  0.00    -0.322 N 
ATOM     31  H   UNL     1       0.072   0.415  -0.572  0.00  0.00    +0.169 HD
ATOM     32  C   UNL     1       1.358   1.944  -0.374  0.00  0.00    +0.254 A 
ATOM     33  O   UNL     1       2.342   1.228  -0.304  0.00  0.00    -0.268 OA
ATOM     34  C   UNL     1      -2.377   0.073  -0.835  0.00  0.00    +0.046 C 
ATOM     35  C   UNL     1      -4.721   1.737  -1.007  0.00  0.00    +0.044 C 
ENDBRANCH  21  22
ENDBRANCH   1  21
TORSDOF 10
