REMARK  Name = ZINC12602724
REMARK  7 active torsions:
REMARK  status: ('A' for Active; 'I' for Inactive)
REMARK    1  A    between atoms: C_1  and  C_2
REMARK    2  A    between atoms: C_2  and  C_4
REMARK    3  A    between atoms: C_2  and  N_56
REMARK    4  A    between atoms: C_7  and  S_16
REMARK    5  A    between atoms: N_8  and  C_9
REMARK    6  A    between atoms: S_16  and  C_17
REMARK    7  A    between atoms: C_17  and  C_18
REMARK                            x       y       z     vdW  Elec       q    Type
REMARK                         _______ _______ _______ _____ _____    ______ ____
ROOT
ATOM      1  C   UNL     1      -0.438  -0.843   0.991  0.00  0.00    +0.125 A 
ATOM      2  N   UNL     1      -0.238  -2.064   0.581  0.00  0.00    -0.135 NA
ATOM      3  N   UNL     1       0.294  -2.056  -0.589  0.00  0.00    -0.122 NA
ATOM      4  C   UNL     1       0.459  -0.819  -0.997  0.00  0.00    +0.196 A 
ATOM      5  N   UNL     1       0.002  -0.004   0.002  0.00  0.00    -0.275 N 
ENDROOT
BRANCH   5   6
ATOM      6  C   UNL     1      -0.017   1.399   0.010  0.00  0.00    +0.050 A 
ATOM      7  C   UNL     1      -1.228   2.078   0.019  0.00  0.00    +0.029 A 
ATOM      8  C   UNL     1      -1.245   3.458   0.032  0.00  0.00    +0.040 A 
ATOM      9  C   UNL     1      -0.054   4.166   0.024  0.00  0.00    +0.124 A 
ATOM     10  C   UNL     1       1.154   3.491   0.009  0.00  0.00    +0.040 A 
ATOM     11  C   UNL     1       1.175   2.110   0.002  0.00  0.00    +0.029 A 
ATOM     12  F   UNL     1      -0.073   5.517   0.030  0.00  0.00    -0.205 F 
ENDBRANCH   5   6
BRANCH   1  14
ATOM     13  C   UNL     1      -0.018  -0.637   3.426  0.00  0.00    -0.005 C 
ATOM     14  C   UNL     1      -1.042  -0.431   2.309  0.00  0.00    -0.002 C 
BRANCH  14  20
ATOM     15  C   UNL     1      -3.198  -1.155   1.476  0.00  0.00    -0.078 C 
ATOM     16  C   UNL     1      -4.353  -2.127   1.723  0.00  0.00    -0.019 C 
ATOM     17  C   UNL     1      -5.031  -1.781   3.051  0.00  0.00    -0.004 C 
ATOM     18  C   UNL     1      -3.993  -1.840   4.176  0.00  0.00    -0.019 C 
ATOM     19  C   UNL     1      -2.849  -0.875   3.858  0.00  0.00    -0.078 C 
ATOM     20  N   UNL     1      -2.222  -1.278   2.581  0.00  0.00    +0.386 N 
ATOM     21  H   UNL     1      -1.921  -2.257   2.652  0.00  0.00    -0.081 HD
ENDBRANCH  14  20
ENDBRANCH   1  14
BRANCH   4  22
ATOM     22  S   UNL     1       1.143  -0.306  -2.538  0.00  0.00    -0.078 S 
BRANCH  22  23
ATOM     23  C   UNL     1       1.494  -1.919  -3.279  0.00  0.00    +0.151 C 
BRANCH  23  24
ATOM     24  C   UNL     1       2.103  -1.724  -4.643  0.00  0.00    +0.119 A 
ATOM     25  N   UNL     1       3.435  -1.611  -4.893  0.00  0.00    -0.341 N 
ATOM     26  H   UNL     1       4.170  -1.642  -4.216  0.00  0.00    +0.167 HD
ATOM     27  C   UNL     1       3.585  -1.445  -6.257  0.00  0.00    +0.069 A 
ATOM     28  C   UNL     1       4.680  -1.281  -7.094  0.00  0.00    +0.069 A 
ATOM     29  C   UNL     1       4.490  -1.137  -8.453  0.00  0.00    +0.160 A 
ATOM     30  C   UNL     1       3.206  -1.156  -8.990  0.00  0.00    +0.161 A 
ATOM     31  C   UNL     1       2.110  -1.319  -8.173  0.00  0.00    +0.071 A 
ATOM     32  C   UNL     1       2.287  -1.466  -6.794  0.00  0.00    +0.092 A 
ATOM     33  N   UNL     1       1.431  -1.644  -5.755  0.00  0.00    -0.232 NA
ATOM     34  F   UNL     1       3.035  -1.014 -10.323  0.00  0.00    -0.202 F 
ATOM     35  F   UNL     1       5.556  -0.977  -9.267  0.00  0.00    -0.202 F 
ENDBRANCH  23  24
ENDBRANCH  22  23
ENDBRANCH   4  22
TORSDOF 6
