REMARK  Name = ZINC07660628
REMARK  10 active torsions:
REMARK  status: ('A' for Active; 'I' for Inactive)
REMARK    1  A    between atoms: C_1  and  C_2
REMARK    2  A    between atoms: C_15  and  C_17
REMARK    3  A    between atoms: C_17  and  N_54
REMARK    4  A    between atoms: C_18  and  N_54
REMARK    5  A    between atoms: C_19  and  C_20
REMARK    6  A    between atoms: C_19  and  N_54
REMARK    7  A    between atoms: N_22  and  C_23
REMARK    8  A    between atoms: C_23  and  C_24
REMARK    9  A    between atoms: C_23  and  C_25
REMARK   10  A    between atoms: C_23  and  C_26
REMARK                            x       y       z     vdW  Elec       q    Type
REMARK                         _______ _______ _______ _____ _____    ______ ____
ROOT
ATOM      1  C   UNL     1       0.172  -2.819   3.676  0.00  0.00    +0.029 C 
ATOM      2  C   UNL     1       1.295  -2.334   2.756  0.00  0.00    +0.087 C 
ATOM      3  C   UNL     1       2.244  -3.496   2.458  0.00  0.00    +0.118 C 
ATOM      4  C   UNL     1       3.108  -3.167   1.270  0.00  0.00    +0.219 C 
ATOM      5  O   UNL     1       4.271  -2.863   1.437  0.00  0.00    -0.275 OA
ATOM      6  N   UNL     1       2.599  -3.207   0.018  0.00  0.00    -0.284 N 
ATOM      7  C   UNL     1       1.240  -3.468  -0.189  0.00  0.00    +0.055 A 
ATOM      8  C   UNL     1       0.829  -4.416  -1.111  0.00  0.00    +0.025 A 
ATOM      9  C   UNL     1      -0.521  -4.632  -1.319  0.00  0.00    +0.002 A 
ATOM     10  C   UNL     1      -1.460  -3.905  -0.611  0.00  0.00    +0.002 A 
ATOM     11  C   UNL     1      -1.057  -2.967   0.321  0.00  0.00    +0.025 A 
ATOM     12  C   UNL     1       0.288  -2.754   0.547  0.00  0.00    +0.058 A 
ATOM     13  N   UNL     1       0.718  -1.830   1.509  0.00  0.00    -0.268 N 
ATOM     14  C   UNL     1       0.598  -0.505   1.292  0.00  0.00    +0.204 C 
ATOM     15  O   UNL     1       0.970   0.283   2.135  0.00  0.00    -0.277 OA
ATOM     16  H   UNL     1       3.181  -3.053  -0.743  0.00  0.00    +0.155 HD
ENDROOT
BRANCH  14  17
ATOM     17  C   UNL     1       0.002  -0.004   0.002  0.00  0.00    +0.019 C 
BRANCH  17  19
ATOM     18  C   UNL     1       1.346   2.010   0.000  0.00  0.00    -0.095 C 
ATOM     19  N   UNL     1      -0.030   1.473   0.034  0.00  0.00    +0.389 N 
ATOM     20  H   UNL     1      -0.486   1.778   0.903  0.00  0.00    -0.081 HD
BRANCH  19  21
ATOM     21  C   UNL     1      -0.802   1.987  -1.117  0.00  0.00    +0.019 C 
BRANCH  21  22
ATOM     22  C   UNL     1      -1.007   3.470  -0.943  0.00  0.00    +0.197 C 
ATOM     23  O   UNL     1      -0.545   4.036   0.026  0.00  0.00    -0.278 OA
ATOM     24  N   UNL     1      -1.703   4.167  -1.862  0.00  0.00    -0.312 N 
ATOM     25  H   UNL     1      -2.072   3.714  -2.637  0.00  0.00    +0.149 HD
BRANCH  24  26
ATOM     26  C   UNL     1      -1.902   5.608  -1.693  0.00  0.00    +0.026 C 
ATOM     27  C   UNL     1      -0.543   6.309  -1.648  0.00  0.00    +0.031 C 
ATOM     28  C   UNL     1      -2.719   6.152  -2.867  0.00  0.00    +0.031 C 
ATOM     29  C   UNL     1      -2.653   5.868  -0.385  0.00  0.00    +0.031 C 
ENDBRANCH  24  26
ENDBRANCH  21  22
ENDBRANCH  19  21
ENDBRANCH  17  19
ENDBRANCH  14  17
TORSDOF 5
