REMARK  Name = ZINC57289373
REMARK  3 active torsions:
REMARK  status: ('A' for Active; 'I' for Inactive)
REMARK    1  A    between atoms: C_3  and  O_22
REMARK    2  A    between atoms: C_4  and  N_8
REMARK    3  A    between atoms: C_9  and  C_11
REMARK                            x       y       z     vdW  Elec       q    Type
REMARK                         _______ _______ _______ _____ _____    ______ ____
ROOT
ATOM      1  N   UNL     1       3.622  -0.659  -0.037  0.00  0.00    -0.278 N 
ATOM      2  C   UNL     1       3.643  -2.003   0.057  0.00  0.00    +0.255 C 
ATOM      3  O   UNL     1       2.599  -2.630   0.065  0.00  0.00    -0.269 OA
ATOM      4  H   UNL     1       4.454  -0.165  -0.109  0.00  0.00    +0.155 HD
ENDROOT
BRANCH   2   5
ATOM      5  C   UNL     1       4.881  -2.688   0.147  0.00  0.00    +0.078 A 
ATOM      6  C   UNL     1       5.114  -4.048   0.244  0.00  0.00    +0.049 A 
ATOM      7  C   UNL     1       6.418  -4.508   0.323  0.00  0.00    +0.082 A 
ATOM      8  C   UNL     1       7.429  -3.542   0.297  0.00  0.00    +0.128 A 
ATOM      9  S   UNL     1       6.534  -2.014   0.157  0.00  0.00    -0.063 S 
ATOM     10  N   UNL     1       8.609  -4.140   0.380  0.00  0.00    -0.214 NA
ATOM     11  C   UNL     1       8.432  -5.432   0.458  0.00  0.00    +0.179 A 
ATOM     12  N   UNL     1       7.102  -5.750   0.429  0.00  0.00    -0.293 N 
ATOM     13  C   UNL     1       6.774  -7.085   0.504  0.00  0.00    +0.101 A 
ATOM     14  C   UNL     1       7.723  -8.015   0.600  0.00  0.00    +0.067 A 
ATOM     15  S   UNL     1       9.211  -7.027   0.591  0.00  0.00    -0.058 S 
ENDBRANCH   2   5
BRANCH   1  19
ATOM     16  C   UNL     1      -0.018   1.377  -0.023  0.00  0.00    +0.023 A 
ATOM     17  C   UNL     1       1.091   1.949   0.573  0.00  0.00    +0.049 A 
ATOM     18  C   UNL     1       2.302   1.277   0.571  0.00  0.00    +0.138 A 
ATOM     19  C   UNL     1       2.400   0.024  -0.032  0.00  0.00    +0.077 A 
ATOM     20  C   UNL     1       1.284  -0.543  -0.628  0.00  0.00    +0.047 A 
ATOM     21  C   UNL     1       0.078   0.134  -0.623  0.00  0.00    +0.043 A 
ATOM     22 CL   UNL     1      -1.319  -0.577  -1.369  0.00  0.00    -0.083 Cl
BRANCH  18  23
ATOM     23  O   UNL     1       3.394   1.838   1.157  0.00  0.00    -0.505 OA
ATOM     24  H   UNL     1       3.497   1.615   2.092  0.00  0.00    +0.292 HD
ENDBRANCH  18  23
ENDBRANCH   1  19
TORSDOF 3
