REMARK  Name = ZINC59170508
REMARK  12 active torsions:
REMARK  status: ('A' for Active; 'I' for Inactive)
REMARK    1  A    between atoms: C_1  and  C_2
REMARK    2  A    between atoms: C_2  and  C_3
REMARK    3  A    between atoms: C_2  and  C_4
REMARK    4  A    between atoms: C_2  and  C_5
REMARK    5  A    between atoms: C_9  and  C_27
REMARK    6  A    between atoms: N_11  and  C_12
REMARK    7  A    between atoms: C_15  and  S_18
REMARK    8  A    between atoms: S_18  and  N_21
REMARK    9  A    between atoms: C_24  and  O_26
REMARK   10  A    between atoms: N_29  and  C_30
REMARK   11  A    between atoms: C_34  and  O_36
REMARK   12  A    between atoms: O_36  and  C_37
REMARK                            x       y       z     vdW  Elec       q    Type
REMARK                         _______ _______ _______ _____ _____    ______ ____
ROOT
ATOM      1  C   UNL     1       0.167  -0.454  -1.662  0.00  0.00    -0.038 A 
ATOM      2  C   UNL     1       0.091  -1.651  -2.338  0.00  0.00    +0.016 A 
ATOM      3  C   UNL     1       1.130  -2.031  -3.196  0.00  0.00    +0.022 A 
ATOM      4  C   UNL     1       1.077  -3.304  -3.919  0.00  0.00    +0.030 A 
ATOM      5  C   UNL     1       2.246  -3.740  -4.530  0.00  0.00    +0.098 A 
ATOM      6  C   UNL     1       3.438  -2.879  -4.394  0.00  0.00    +0.212 A 
ATOM      7  N   UNL     1       4.650  -3.385  -4.455  0.00  0.00    -0.325 N 
ATOM      8  O   UNL     1       3.244  -1.549  -4.205  0.00  0.00    -0.435 OA
ATOM      9  C   UNL     1       2.242  -1.186  -3.367  0.00  0.00    +0.179 A 
ATOM     10  C   UNL     1       2.300   0.019  -2.674  0.00  0.00    +0.160 A 
ATOM     11  C   UNL     1       1.262   0.380  -1.831  0.00  0.00    +0.053 A 
ATOM     12  H   UNL     1       4.778  -4.346  -4.411  0.00  0.00    +0.169 HD
ENDROOT
BRANCH   7  13
ATOM     13  C   UNL     1       5.731  -2.557  -4.580  0.00  0.00    +0.042 A 
ATOM     14  C   UNL     1       5.703  -1.497  -5.489  0.00  0.00    +0.027 A 
ATOM     15  C   UNL     1       6.797  -0.666  -5.610  0.00  0.00    +0.030 A 
ATOM     16  C   UNL     1       7.921  -0.880  -4.832  0.00  0.00    +0.105 A 
ATOM     17  C   UNL     1       7.957  -1.928  -3.929  0.00  0.00    +0.030 A 
ATOM     18  C   UNL     1       6.868  -2.764  -3.794  0.00  0.00    +0.027 A 
BRANCH  16  19
ATOM     19  S   UNL     1       9.314   0.187  -4.993  0.00  0.00    +0.056 S 
ATOM     20  O   UNL     1      10.444  -0.551  -4.548  0.00  0.00    -0.153 OA
ATOM     21  O   UNL     1       9.241   0.758  -6.292  0.00  0.00    -0.153 OA
BRANCH  19  22
ATOM     22  N   UNL     1       9.106   1.429  -3.917  0.00  0.00    -0.204 NA
ATOM     23  H   UNL     1       9.879   1.864  -3.524  0.00  0.00    +0.144 HD
ATOM     24  H   UNL     1       8.212   1.721  -3.681  0.00  0.00    +0.144 HD
ENDBRANCH  19  22
ENDBRANCH  16  19
ENDBRANCH   7  13
BRANCH   1  26
ATOM     25  C   UNL     1      -0.628   1.318  -0.120  0.00  0.00    +0.015 C 
ATOM     26  C   UNL     1      -0.950  -0.044  -0.738  0.00  0.00    -0.013 C 
ATOM     27  C   UNL     1      -1.100  -1.085   0.374  0.00  0.00    +0.015 C 
ATOM     28  C   UNL     1      -2.257   0.050  -1.527  0.00  0.00    +0.015 C 
ENDBRANCH   1  26
BRANCH   5  29
ATOM     29  C   UNL     1       2.295  -5.007  -5.279  0.00  0.00    +0.253 C 
ATOM     30  O   UNL     1       1.334  -5.753  -5.276  0.00  0.00    -0.270 OA
ATOM     31  N   UNL     1       3.404  -5.340  -5.969  0.00  0.00    -0.281 N 
ATOM     32  H   UNL     1       4.182  -4.761  -5.944  0.00  0.00    +0.155 HD
BRANCH  31  33
ATOM     33  C   UNL     1       3.433  -6.519  -6.719  0.00  0.00    +0.037 A 
ATOM     34  C   UNL     1       2.689  -7.621  -6.313  0.00  0.00    +0.023 A 
ATOM     35  C   UNL     1       2.718  -8.786  -7.055  0.00  0.00    +0.005 A 
ATOM     36  C   UNL     1       3.486  -8.859  -8.202  0.00  0.00    +0.046 A 
ATOM     37  C   UNL     1       4.231  -7.763  -8.612  0.00  0.00    +0.122 A 
ATOM     38  C   UNL     1       4.200  -6.590  -7.873  0.00  0.00    +0.069 A 
BRANCH  37  39
ATOM     39  O   UNL     1       4.985  -7.837  -9.739  0.00  0.00    -0.495 OA
ATOM     40  C   UNL     1       4.965  -9.074 -10.454  0.00  0.00    +0.277 C 
ENDBRANCH  37  39
ENDBRANCH  31  33
ENDBRANCH   5  29
BRANCH  10  41
ATOM     41  O   UNL     1       3.371   0.843  -2.828  0.00  0.00    -0.503 OA
ATOM     42  H   UNL     1       3.272   1.486  -3.542  0.00  0.00    +0.292 HD
ENDBRANCH  10  41
TORSDOF 8
