REMARK  Name = ZINC36898683
REMARK  4 active torsions:
REMARK  status: ('A' for Active; 'I' for Inactive)
REMARK    1  A    between atoms: C_1  and  C_2
REMARK    2  A    between atoms: C_2  and  C_4
REMARK    3  A    between atoms: C_2  and  N_9
REMARK    4  A    between atoms: C_17  and  C_18
REMARK                            x       y       z     vdW  Elec       q    Type
REMARK                         _______ _______ _______ _____ _____    ______ ____
ROOT
ATOM      1  N   UNL     1      -1.357  -0.404  -0.005  0.00  0.00    -0.319 N 
ATOM      2  C   UNL     1      -1.927  -1.202  -0.978  0.00  0.00    +0.069 A 
ATOM      3  C   UNL     1      -1.454  -1.790  -2.143  0.00  0.00    +0.029 A 
ATOM      4  C   UNL     1      -2.301  -2.551  -2.919  0.00  0.00    +0.017 A 
ATOM      5  C   UNL     1      -3.626  -2.734  -2.545  0.00  0.00    +0.020 A 
ATOM      6  C   UNL     1      -4.112  -2.158  -1.393  0.00  0.00    +0.045 A 
ATOM      7  C   UNL     1      -3.266  -1.383  -0.594  0.00  0.00    +0.090 A 
ATOM      8  N   UNL     1      -3.441  -0.702   0.567  0.00  0.00    -0.231 NA
ATOM      9  C   UNL     1      -2.323  -0.134   0.914  0.00  0.00    +0.126 A 
ATOM     10 BR   UNL     1      -4.770  -3.781  -3.626  0.00  0.00    -0.050 Br
ENDROOT
BRANCH   1  12
ATOM     11  C   UNL     1       0.974  -1.138  -0.090  0.00  0.00    +0.036 C 
ATOM     12  C   UNL     1       0.032   0.061   0.033  0.00  0.00    +0.122 C 
BRANCH  12  13
ATOM     13  C   UNL     1       0.275   1.011  -1.111  0.00  0.00    +0.012 A 
ATOM     14  C   UNL     1       0.545   2.338  -1.076  0.00  0.00    +0.013 A 
ATOM     15  C   UNL     1       0.736   3.016  -2.266  0.00  0.00    +0.008 A 
ATOM     16  C   UNL     1       0.647   2.332  -3.433  0.00  0.00    +0.045 A 
ATOM     17  S   UNL     1       0.291   0.677  -2.865  0.00  0.00    -0.100 S 
ENDBRANCH  12  13
ENDBRANCH   1  12
BRANCH   9  18
ATOM     18  C   UNL     1      -2.128   0.705   2.151  0.00  0.00    +0.183 C 
ATOM     19 CL   UNL     1      -2.616   2.406   1.807  0.00  0.00    -0.117 Cl
ENDBRANCH   9  18
TORSDOF 3
