REMARK  Name = ZINC63948132
REMARK  7 active torsions:
REMARK  status: ('A' for Active; 'I' for Inactive)
REMARK    1  A    between atoms: C_1  and  C_2
REMARK    2  A    between atoms: C_8  and  C_11
REMARK    3  A    between atoms: C_11  and  C_12
REMARK    4  A    between atoms: C_12  and  N_13
REMARK    5  A    between atoms: C_15  and  C_20
REMARK    6  A    between atoms: N_22  and  C_23
REMARK    7  A    between atoms: C_26  and  C_29
REMARK                            x       y       z     vdW  Elec       q    Type
REMARK                         _______ _______ _______ _____ _____    ______ ____
ROOT
ATOM      1  N   UNL     1      -1.377  -2.600   5.613  0.00  0.00    -0.300 N 
ATOM      2  C   UNL     1      -1.248  -3.644   6.637  0.00  0.00    +0.121 C 
ATOM      3  C   UNL     1      -0.861  -2.901   7.936  0.00  0.00    +0.101 C 
ATOM      4  C   UNL     1      -1.441  -1.492   7.677  0.00  0.00    +0.110 C 
ATOM      5  C   UNL     1      -1.487  -1.381   6.169  0.00  0.00    +0.216 C 
ATOM      6  O   UNL     1      -1.608  -0.345   5.552  0.00  0.00    -0.276 OA
ENDROOT
BRANCH   3   7
ATOM      7  C   UNL     1      -1.510  -3.541   9.136  0.00  0.00    +0.220 C 
ATOM      8  O   UNL     1      -2.226  -4.509   8.994  0.00  0.00    -0.275 OA
ATOM      9  N   UNL     1      -1.294  -3.036  10.367  0.00  0.00    -0.294 N 
ATOM     10  H   UNL     1      -0.722  -2.262  10.480  0.00  0.00    +0.151 HD
BRANCH   9  11
ATOM     11  C   UNL     1      -1.925  -3.658  11.534  0.00  0.00    +0.204 C 
ATOM     12  C   UNL     1      -2.461  -2.602  12.482  0.00  0.00    +0.057 C 
ATOM     13  C   UNL     1      -1.618  -2.496  13.488  0.00  0.00    +0.121 C 
ATOM     14  O   UNL     1      -0.560  -3.332  13.362  0.00  0.00    -0.409 OA
ATOM     15  N   UNL     1      -0.916  -4.365  12.365  0.00  0.00    -0.131 NA
ATOM     16  C   UNL     1      -1.808  -1.551  14.646  0.00  0.00    +0.088 C 
ATOM     17  H   UNL     1      -1.319  -5.176  12.811  0.00  0.00    +0.170 HD
ENDBRANCH   9  11
ENDBRANCH   3   7
BRANCH   1  18
ATOM     18  C   UNL     1      -1.379  -2.854   4.170  0.00  0.00    +0.112 C 
BRANCH  18  19
ATOM     19  C   UNL     1       0.055  -2.799   3.641  0.00  0.00    +0.052 C 
BRANCH  19  27
ATOM     20  C   UNL     1      -0.018   1.503   0.010  0.00  0.00    +0.044 C 
ATOM     21  C   UNL     1       0.002  -0.004   0.002  0.00  0.00    -0.050 A 
ATOM     22  C   UNL     1       0.005  -0.680  -1.226  0.00  0.00    +0.005 A 
ATOM     23  C   UNL     1       0.023  -2.026  -1.317  0.00  0.00    +0.026 A 
ATOM     24  C   UNL     1       0.039  -2.826  -0.141  0.00  0.00    +0.043 A 
ATOM     25  N   UNL     1       0.057  -4.126   0.030  0.00  0.00    -0.380 N 
ATOM     26  C   UNL     1       0.067  -4.408   1.470  0.00  0.00    +0.144 C 
ATOM     27  C   UNL     1       0.052  -3.060   2.156  0.00  0.00    -0.040 C 
ATOM     28  C   UNL     1       0.036  -2.137   1.168  0.00  0.00    -0.001 A 
ATOM     29  C   UNL     1       0.022  -0.669   1.180  0.00  0.00    +0.013 A 
ATOM     30  H   UNL     1       0.062  -4.790  -0.677  0.00  0.00    +0.160 HD
ENDBRANCH  19  27
ENDBRANCH  18  19
ENDBRANCH   1  18
TORSDOF 5
