REMARK  Name = ZINC29151046
REMARK  5 active torsions:
REMARK  status: ('A' for Active; 'I' for Inactive)
REMARK    1  A    between atoms: C_1  and  C_2
REMARK    2  A    between atoms: C_6  and  N_8
REMARK    3  A    between atoms: N_11  and  C_14
REMARK    4  A    between atoms: C_14  and  C_15
REMARK    5  A    between atoms: C_19  and  C_28
REMARK                            x       y       z     vdW  Elec       q    Type
REMARK                         _______ _______ _______ _____ _____    ______ ____
ROOT
ATOM      1  C   UNL     1      -0.475   9.799  -2.106  0.00  0.00    +0.203 C 
ATOM      2  O   UNL     1      -0.674   9.113  -3.086  0.00  0.00    -0.277 OA
ATOM      3  N   UNL     1      -1.053  11.013  -2.005  0.00  0.00    -0.266 N 
ATOM      4  C   UNL     1      -0.731  11.920  -0.890  0.00  0.00    +0.168 C 
ATOM      5  C   UNL     1      -0.590  13.335  -1.469  0.00  0.00    +0.276 C 
ATOM      6  O   UNL     1      -1.812  13.691  -2.119  0.00  0.00    -0.476 OA
ATOM      7  C   UNL     1      -2.344  12.802  -2.998  0.00  0.00    +0.143 A 
ATOM      8  C   UNL     1      -1.979  11.460  -2.963  0.00  0.00    +0.078 A 
ATOM      9  C   UNL     1      -2.529  10.566  -3.867  0.00  0.00    +0.027 A 
ATOM     10  C   UNL     1      -3.438  11.011  -4.810  0.00  0.00    +0.002 A 
ATOM     11  C   UNL     1      -3.796  12.346  -4.850  0.00  0.00    +0.004 A 
ATOM     12  C   UNL     1      -3.259  13.237  -3.945  0.00  0.00    +0.047 A 
ENDROOT
BRANCH   5  13
ATOM     13  C   UNL     1      -0.303  14.309  -0.356  0.00  0.00    +0.253 C 
ATOM     14  O   UNL     1      -1.109  15.175  -0.086  0.00  0.00    -0.272 OA
ATOM     15  N   UNL     1       0.848  14.220   0.338  0.00  0.00    -0.326 N 
ATOM     16  H   UNL     1       1.057  14.932   1.151  0.00  0.00    +0.145 HD
ATOM     17  H   UNL     1       1.579  13.435   0.093  0.00  0.00    +0.145 HD
ENDBRANCH   5  13
BRANCH   1  18
ATOM     18  C   UNL     1       0.417   9.295  -1.002  0.00  0.00    +0.019 C 
BRANCH  18  22
ATOM     19  N   UNL     1       0.836   5.101  -0.709  0.00  0.00    -0.333 N 
ATOM     20  C   UNL     1      -0.016   5.635  -1.781  0.00  0.00    +0.086 C 
ATOM     21  C   UNL     1      -0.429   7.067  -1.434  0.00  0.00    -0.059 C 
ATOM     22  N   UNL     1       0.774   7.894  -1.261  0.00  0.00    +0.387 N 
ATOM     23  C   UNL     1       1.626   7.360  -0.189  0.00  0.00    -0.059 C 
ATOM     24  C   UNL     1       2.039   5.927  -0.536  0.00  0.00    +0.086 C 
ATOM     25  H   UNL     1       1.347   7.860  -2.199  0.00  0.00    -0.081 HD
BRANCH  19  31
ATOM     26  C   UNL     1      -0.565   0.478  -1.613  0.00  0.00    +0.044 C 
ATOM     27  C   UNL     1       0.516   1.506  -1.398  0.00  0.00    -0.049 A 
ATOM     28  C   UNL     1       1.847   1.129  -1.444  0.00  0.00    +0.003 A 
ATOM     29  C   UNL     1       2.841   2.070  -1.252  0.00  0.00    +0.002 A 
ATOM     30  C   UNL     1       2.510   3.389  -1.009  0.00  0.00    +0.023 A 
ATOM     31  C   UNL     1       1.175   3.769  -0.956  0.00  0.00    +0.030 A 
ATOM     32  C   UNL     1       0.178   2.821  -1.149  0.00  0.00    +0.026 A 
ENDBRANCH  19  31
ENDBRANCH  18  22
ENDBRANCH   1  18
TORSDOF 4
