REMARK  Name = ZINC21263509
REMARK  11 active torsions:
REMARK  status: ('A' for Active; 'I' for Inactive)
REMARK    1  A    between atoms: C_1  and  C_2
REMARK    2  A    between atoms: C_2  and  C_29
REMARK    3  A    between atoms: C_4  and  N_10
REMARK    4  A    between atoms: C_6  and  C_8
REMARK    5  A    between atoms: C_6  and  C_9
REMARK    6  A    between atoms: N_10  and  C_11
REMARK    7  A    between atoms: C_11  and  N_13
REMARK    8  A    between atoms: N_13  and  C_14
REMARK    9  A    between atoms: N_13  and  C_22
REMARK   10  A    between atoms: C_14  and  C_15
REMARK   11  A    between atoms: C_22  and  C_23
REMARK                            x       y       z     vdW  Elec       q    Type
REMARK                         _______ _______ _______ _____ _____    ______ ____
ROOT
ATOM      1  C   UNL     1       3.257   4.701   0.360  0.00  0.00    +0.133 C 
ATOM      2  S   UNL     1       4.623   5.616   0.835  0.00  0.00    -0.019 S 
ENDROOT
BRANCH   1   3
ATOM      3  N   UNL     1       2.356   5.229  -0.492  0.00  0.00    -0.324 N 
ATOM      4  H   UNL     1       1.477   4.641  -0.797  0.00  0.00    +0.148 HD
BRANCH   3   8
ATOM      5  C   UNL     1       3.375   8.304  -3.477  0.00  0.00    -0.010 C 
ATOM      6  C   UNL     1       1.965   8.140  -2.896  0.00  0.00    -0.072 C 
ATOM      7  C   UNL     1       1.803   6.727  -2.341  0.00  0.00    +0.009 C 
ATOM      8  C   UNL     1       2.546   6.588  -1.013  0.00  0.00    +0.069 C 
ATOM      9  C   UNL     1       1.961   7.594  -0.022  0.00  0.00    +0.009 C 
ATOM     10  C   UNL     1       2.127   9.017  -0.549  0.00  0.00    -0.072 C 
ATOM     11  N   UNL     1       1.679   9.168  -1.918  0.00  0.00    +0.386 N 
ATOM     12  C   UNL     1       3.587   9.455  -0.391  0.00  0.00    -0.010 C 
ATOM     13  C   UNL     1       1.272   9.946   0.343  0.00  0.00    -0.010 C 
ATOM     14  C   UNL     1       0.968   8.297  -4.066  0.00  0.00    -0.010 C 
ATOM     15  H   UNL     1       2.134  10.117  -2.240  0.00  0.00    -0.084 HD
ATOM     16  H   UNL     1       0.591   9.296  -1.827  0.00  0.00    -0.084 HD
ENDBRANCH   3   8
ENDBRANCH   1   3
BRANCH   1  17
ATOM     17  N   UNL     1       3.082   3.454   0.839  0.00  0.00    -0.306 N 
BRANCH  17  18
ATOM     18  C   UNL     1       4.061   2.880   1.765  0.00  0.00    +0.144 C 
BRANCH  18  19
ATOM     19  C   UNL     1       3.574   3.053   3.181  0.00  0.00    +0.005 A 
ATOM     20  C   UNL     1       2.904   2.021   3.812  0.00  0.00    +0.008 A 
ATOM     21  C   UNL     1       2.458   2.179   5.111  0.00  0.00    +0.000 A 
ATOM     22  C   UNL     1       2.682   3.368   5.780  0.00  0.00    +0.003 A 
ATOM     23  C   UNL     1       3.351   4.400   5.151  0.00  0.00    +0.038 A 
ATOM     24  C   UNL     1       3.803   4.242   3.852  0.00  0.00    +0.128 A 
ATOM     25  F   UNL     1       4.463   5.248   3.238  0.00  0.00    -0.205 F 
ENDBRANCH  18  19
ENDBRANCH  17  18
BRANCH  17  26
ATOM     26  C   UNL     1       1.912   2.671   0.432  0.00  0.00    +0.138 C 
BRANCH  26  27
ATOM     27  C   UNL     1       2.206   1.966  -0.894  0.00  0.00    +0.136 C 
ATOM     28  C   UNL     1       0.942   1.243  -1.410  0.00  0.00    +0.035 C 
ATOM     29  C   UNL     1       1.485  -0.060  -2.040  0.00  0.00    +0.031 C 
ATOM     30  C   UNL     1       3.013   0.031  -1.829  0.00  0.00    +0.160 C 
ATOM     31  O   UNL     1       3.179   0.916  -0.700  0.00  0.00    -0.375 OA
ENDBRANCH  26  27
ENDBRANCH  17  26
ENDBRANCH   1  17
TORSDOF 7
