REMARK  Name = ZINC63815467
REMARK  10 active torsions:
REMARK  status: ('A' for Active; 'I' for Inactive)
REMARK    1  A    between atoms: C_1  and  C_2
REMARK    2  A    between atoms: C_2  and  S_3
REMARK    3  A    between atoms: S_3  and  C_4
REMARK    4  A    between atoms: C_7  and  N_10
REMARK    5  A    between atoms: C_11  and  C_13
REMARK    6  A    between atoms: N_15  and  C_16
REMARK    7  A    between atoms: C_16  and  C_17
REMARK    8  A    between atoms: C_17  and  N_23
REMARK    9  A    between atoms: N_23  and  C_24
REMARK   10  A    between atoms: N_23  and  C_25
REMARK                            x       y       z     vdW  Elec       q    Type
REMARK                         _______ _______ _______ _____ _____    ______ ____
ROOT
ATOM      1  C   UNL     1       0.503  -8.428  -0.262  0.00  0.00    +0.299 C 
ATOM      2  O   UNL     1      -0.448  -9.181  -0.255  0.00  0.00    -0.265 OA
ATOM      3  N   UNL     1       1.752  -8.921  -0.373  0.00  0.00    -0.309 N 
ATOM      4  H   UNL     1       2.513  -8.319  -0.378  0.00  0.00    +0.149 HD
ENDROOT
BRANCH   1   6
ATOM      5  N   UNL     1      -0.960  -6.461  -0.035  0.00  0.00    -0.276 N 
ATOM      6  C   UNL     1       0.289  -6.955  -0.146  0.00  0.00    +0.303 C 
ATOM      7  O   UNL     1       1.241  -6.201  -0.153  0.00  0.00    -0.265 OA
ATOM      8  H   UNL     1      -1.714  -7.065   0.054  0.00  0.00    +0.155 HD
BRANCH   5  12
ATOM      9  C   UNL     1      -1.647  -2.395  -0.033  0.00  0.00    +0.097 A 
ATOM     10  C   UNL     1      -0.509  -2.873  -0.675  0.00  0.00    +0.036 A 
ATOM     11  C   UNL     1      -0.262  -4.232  -0.686  0.00  0.00    +0.027 A 
ATOM     12  C   UNL     1      -1.170  -5.078  -0.049  0.00  0.00    +0.052 A 
ATOM     13  C   UNL     1      -2.283  -4.531   0.571  0.00  0.00    +0.135 A 
ATOM     14  N   UNL     1      -2.486  -3.227   0.567  0.00  0.00    -0.247 NA
BRANCH   9  15
ATOM     15  S   UNL     1      -1.974  -0.664  -0.011  0.00  0.00    -0.106 S 
BRANCH  15  17
ATOM     16  C   UNL     1      -3.926   0.952   1.020  0.00  0.00    +0.015 C 
ATOM     17  C   UNL     1      -3.522  -0.521   0.924  0.00  0.00    +0.072 C 
ENDBRANCH  15  17
ENDBRANCH   9  15
ENDBRANCH   5  12
ENDBRANCH   1   6
BRANCH   3  18
ATOM     18  C   UNL     1       1.962 -10.367  -0.486  0.00  0.00    +0.093 C 
BRANCH  18  19
ATOM     19  C   UNL     1       3.462 -10.667  -0.473  0.00  0.00    -0.050 C 
ATOM     20  C   UNL     1       3.681 -12.176  -0.599  0.00  0.00    -0.010 C 
ATOM     21  C   UNL     1       3.008 -12.889   0.576  0.00  0.00    -0.001 C 
ATOM     22  C   UNL     1       3.616 -12.393   1.889  0.00  0.00    -0.000 C 
ATOM     23  C   UNL     1       3.397 -10.884   2.015  0.00  0.00    -0.001 C 
ATOM     24  C   UNL     1       4.070 -10.171   0.840  0.00  0.00    -0.010 C 
BRANCH  19  25
ATOM     25  N   UNL     1       4.108  -9.983  -1.601  0.00  0.00    +0.381 N 
ATOM     26  C   UNL     1       5.526 -10.364  -1.658  0.00  0.00    -0.096 C 
ATOM     27  C   UNL     1       3.446 -10.371  -2.853  0.00  0.00    -0.096 C 
ATOM     28  H   UNL     1       4.033  -8.984  -1.476  0.00  0.00    -0.082 HD
ENDBRANCH  19  25
ENDBRANCH  18  19
ENDBRANCH   3  18
TORSDOF 7
