REMARK  Name = ZINC61367199
REMARK  3 active torsions:
REMARK  status: ('A' for Active; 'I' for Inactive)
REMARK    1  A    between atoms: C_1  and  C_2
REMARK    2  A    between atoms: C_6  and  N_21
REMARK    3  A    between atoms: N_10  and  C_11
REMARK                            x       y       z     vdW  Elec       q    Type
REMARK                         _______ _______ _______ _____ _____    ______ ____
ROOT
ATOM      1  C   UNL     1      -1.658   0.875   0.372  0.00  0.00    +0.086 C 
ATOM      2  C   UNL     1      -0.710  -0.277   0.159  0.00  0.00    +0.108 A 
ATOM      3  N   UNL     1      -0.562  -0.923  -0.961  0.00  0.00    -0.232 NA
ATOM      4  C   UNL     1       0.370  -1.899  -0.805  0.00  0.00    +0.091 A 
ATOM      5  C   UNL     1       0.904  -2.864  -1.663  0.00  0.00    +0.052 A 
ATOM      6  C   UNL     1       1.867  -3.738  -1.196  0.00  0.00    +0.027 A 
ATOM      7  C   UNL     1       2.307  -3.662   0.125  0.00  0.00    +0.025 A 
ATOM      8  C   UNL     1       1.787  -2.714   0.979  0.00  0.00    +0.030 A 
ATOM      9  C   UNL     1       0.820  -1.828   0.524  0.00  0.00    +0.069 A 
ATOM     10  N   UNL     1       0.120  -0.788   1.107  0.00  0.00    -0.320 N 
ENDROOT
BRANCH  10  11
ATOM     11  C   UNL     1       0.248  -0.324   2.491  0.00  0.00    +0.120 C 
ATOM     12  C   UNL     1       1.510   0.528   2.632  0.00  0.00    +0.030 C 
ATOM     13  C   UNL     1       2.754  -0.341   2.433  0.00  0.00    +0.007 C 
ATOM     14  C   UNL     1       2.900  -1.278   3.642  0.00  0.00    +0.043 C 
ATOM     15  C   UNL     1       1.571  -1.907   3.911  0.00  0.00    -0.005 A 
ATOM     16  C   UNL     1       0.355  -1.525   3.425  0.00  0.00    -0.014 A 
ATOM     17  C   UNL     1      -0.746  -2.282   3.826  0.00  0.00    +0.013 A 
ATOM     18  C   UNL     1      -0.578  -3.335   4.658  0.00  0.00    +0.046 A 
ATOM     19  S   UNL     1       1.197  -3.311   4.926  0.00  0.00    -0.101 S 
ENDBRANCH  10  11
BRANCH   6  20
ATOM     20  N   UNL     1       2.403  -4.706  -2.053  0.00  0.00    -0.358 N 
ATOM     21  H   UNL     1       2.099  -4.762  -2.972  0.00  0.00    +0.142 HD
ATOM     22  H   UNL     1       3.079  -5.321  -1.727  0.00  0.00    +0.142 HD
ENDBRANCH   6  20
TORSDOF 2
