REMARK  Name = ZINC65450608
REMARK  9 active torsions:
REMARK  status: ('A' for Active; 'I' for Inactive)
REMARK    1  A    between atoms: C_1  and  C_2
REMARK    2  A    between atoms: C_5  and  C_7
REMARK    3  A    between atoms: C_7  and  C_8
REMARK    4  A    between atoms: C_7  and  N_9
REMARK    5  A    between atoms: N_12  and  C_13
REMARK    6  A    between atoms: C_16  and  N_19
REMARK    7  A    between atoms: N_19  and  C_20
REMARK    8  A    between atoms: N_19  and  C_21
REMARK    9  A    between atoms: N_24  and  C_27
REMARK                            x       y       z     vdW  Elec       q    Type
REMARK                         _______ _______ _______ _____ _____    ______ ____
ROOT
ATOM      1  C   UNL     1       3.989  -6.674   2.695  0.00  0.00    +0.035 A 
ATOM      2  C   UNL     1       3.264  -7.795   2.314  0.00  0.00    +0.025 A 
ATOM      3  C   UNL     1       3.625  -9.043   2.780  0.00  0.00    +0.025 A 
ATOM      4  C   UNL     1       4.715  -9.178   3.631  0.00  0.00    +0.030 A 
ATOM      5  C   UNL     1       5.440  -8.057   4.012  0.00  0.00    +0.025 A 
ATOM      6  C   UNL     1       5.082  -6.809   3.542  0.00  0.00    +0.025 A 
ENDROOT
BRANCH   1  10
ATOM      7  N   UNL     1       4.226  -3.305   1.405  0.00  0.00    -0.292 N 
ATOM      8  C   UNL     1       4.571  -4.489   1.948  0.00  0.00    +0.304 C 
ATOM      9  O   UNL     1       5.738  -4.730   2.191  0.00  0.00    -0.252 OA
ATOM     10  N   UNL     1       3.623  -5.407   2.221  0.00  0.00    -0.269 N 
ATOM     11  H   UNL     1       3.295  -3.113   1.211  0.00  0.00    +0.151 HD
ATOM     12  H   UNL     1       2.686  -5.190   2.090  0.00  0.00    +0.156 HD
BRANCH   7  13
ATOM     13  C   UNL     1       5.257  -2.307   1.108  0.00  0.00    +0.108 C 
ATOM     14  C   UNL     1       5.545  -1.482   2.363  0.00  0.00    +0.033 C 
BRANCH  13  19
ATOM     15  C   UNL     1       2.565   1.067  -2.562  0.00  0.00    +0.051 C 
ATOM     16  C   UNL     1       3.491   0.209  -1.739  0.00  0.00    -0.013 A 
ATOM     17  C   UNL     1       4.804  -0.064  -1.938  0.00  0.00    +0.011 A 
ATOM     18  C   UNL     1       5.461  -0.887  -1.042  0.00  0.00    +0.013 A 
ATOM     19  C   UNL     1       4.773  -1.397   0.008  0.00  0.00    +0.010 A 
ATOM     20  S   UNL     1       3.146  -0.706  -0.245  0.00  0.00    -0.097 S 
ENDBRANCH  13  19
ENDBRANCH   7  13
ENDBRANCH   1  10
BRANCH   4  21
ATOM     21  N   UNL     1       5.081 -10.443   4.104  0.00  0.00    -0.330 N 
ATOM     22  C   UNL     1       4.386 -11.636   3.616  0.00  0.00    +0.129 C 
BRANCH  21  23
ATOM     23  C   UNL     1       6.160 -10.573   5.087  0.00  0.00    +0.070 C 
ATOM     24  C   UNL     1       7.216 -11.549   4.561  0.00  0.00    +0.004 C 
ATOM     25  C   UNL     1       8.299 -11.742   5.625  0.00  0.00    -0.077 C 
ATOM     26  N   UNL     1       7.696 -12.283   6.849  0.00  0.00    +0.378 N 
ATOM     27  C   UNL     1       6.734 -11.321   7.398  0.00  0.00    -0.077 C 
ATOM     28  C   UNL     1       5.591 -11.112   6.403  0.00  0.00    +0.004 C 
ATOM     29  C   UNL     1       8.750 -12.539   7.840  0.00  0.00    -0.096 C 
ATOM     30  H   UNL     1       7.221 -13.147   6.635  0.00  0.00    -0.082 HD
ENDBRANCH  21  23
ENDBRANCH   4  21
TORSDOF 5
