REMARK  Name = ZINC15674175
REMARK  6 active torsions:
REMARK  status: ('A' for Active; 'I' for Inactive)
REMARK    1  A    between atoms: C_3  and  C_27
REMARK    2  A    between atoms: C_6  and  C_7
REMARK    3  A    between atoms: C_9  and  C_12
REMARK    4  A    between atoms: C_15  and  O_26
REMARK    5  A    between atoms: N_18  and  C_19
REMARK    6  A    between atoms: C_19  and  C_20
REMARK                            x       y       z     vdW  Elec       q    Type
REMARK                         _______ _______ _______ _____ _____    ______ ____
ROOT
ATOM      1  C   UNL     1      -4.626   3.223  -2.732  0.00  0.00    +0.202 A 
ATOM      2  N   UNL     1      -4.209   2.085  -2.131  0.00  0.00    -0.190 NA
ATOM      3  C   UNL     1      -3.070   2.386  -1.560  0.00  0.00    +0.245 A 
ATOM      4  O   UNL     1      -2.821   3.671  -1.830  0.00  0.00    -0.336 OA
ATOM      5  N   UNL     1      -3.719   4.136  -2.500  0.00  0.00    -0.056 NA
ENDROOT
BRANCH   1  11
ATOM      6  C   UNL     1      -6.751   2.330  -3.683  0.00  0.00    +0.012 A 
ATOM      7  C   UNL     1      -7.915   2.503  -4.406  0.00  0.00    +0.013 A 
ATOM      8  C   UNL     1      -8.206   3.732  -4.970  0.00  0.00    +0.055 A 
ATOM      9  C   UNL     1      -7.337   4.796  -4.808  0.00  0.00    +0.013 A 
ATOM     10  C   UNL     1      -6.174   4.636  -4.083  0.00  0.00    +0.012 A 
ATOM     11  C   UNL     1      -5.875   3.400  -3.513  0.00  0.00    +0.022 A 
BRANCH   8  12
ATOM     12  C   UNL     1      -9.475   3.912  -5.762  0.00  0.00    +0.417 C 
ATOM     13  F   UNL     1      -9.231   3.615  -7.107  0.00  0.00    -0.166 F 
ATOM     14  F   UNL     1     -10.461   3.053  -5.266  0.00  0.00    -0.166 F 
ATOM     15  F   UNL     1      -9.911   5.237  -5.649  0.00  0.00    -0.166 F 
ENDBRANCH   8  12
ENDBRANCH   1  11
BRANCH   3  16
ATOM     16  C   UNL     1      -2.199   1.455  -0.756  0.00  0.00    +0.149 C 
ATOM     17  C   UNL     1      -2.223   1.850   0.736  0.00  0.00    +0.061 C 
ATOM     18  C   UNL     1      -0.782   1.607   1.240  0.00  0.00    +0.130 C 
ATOM     19  C   UNL     1      -0.013   1.086   0.008  0.00  0.00    +0.117 C 
ATOM     20  N   UNL     1      -0.776   1.600  -1.158  0.00  0.00    -0.282 NA
BRANCH  18  21
ATOM     21  O   UNL     1      -0.777   0.627   2.280  0.00  0.00    -0.390 OA
ATOM     22  H   UNL     1       0.172   0.333   2.754  0.00  0.00    +0.210 HD
ENDBRANCH  18  21
BRANCH  20  23
ATOM     23  C   UNL     1      -0.487   0.813  -2.365  0.00  0.00    +0.157 C 
BRANCH  23  24
ATOM     24  C   UNL     1       0.925   1.086  -2.816  0.00  0.00    +0.099 A 
ATOM     25  N   UNL     1       2.009   0.347  -2.498  0.00  0.00    -0.349 N 
ATOM     26  H   UNL     1       1.902  -0.538  -1.854  0.00  0.00    +0.166 HD
ATOM     27  C   UNL     1       3.088   0.928  -3.109  0.00  0.00    +0.101 A 
ATOM     28  C   UNL     1       2.627   2.006  -3.771  0.00  0.00    +0.101 A 
ATOM     29  N   UNL     1       1.302   2.078  -3.575  0.00  0.00    -0.349 N 
ATOM     30  H   UNL     1       0.561   2.804  -3.941  0.00  0.00    +0.166 HD
ENDBRANCH  23  24
ENDBRANCH  20  23
ENDBRANCH   3  16
TORSDOF 6
