REMARK  Name = ZINC35851659
REMARK  5 active torsions:
REMARK  status: ('A' for Active; 'I' for Inactive)
REMARK    1  A    between atoms: C_1  and  C_2
REMARK    2  A    between atoms: C_2  and  C_3
REMARK    3  A    between atoms: N_22  and  C_25
REMARK    4  A    between atoms: C_28  and  N_32
REMARK    5  A    between atoms: C_30  and  C_31
REMARK                            x       y       z     vdW  Elec       q    Type
REMARK                         _______ _______ _______ _____ _____    ______ ____
ROOT
ATOM      1  C   UNL     1      -1.379  -0.454  -0.035  0.00  0.00    -0.047 A 
ATOM      2  C   UNL     1      -1.977  -0.765   1.173  0.00  0.00    +0.005 A 
ATOM      3  C   UNL     1      -3.273  -1.235   1.207  0.00  0.00    +0.024 A 
ATOM      4  C   UNL     1      -3.990  -1.402   0.025  0.00  0.00    +0.039 A 
ATOM      5  C   UNL     1      -3.377  -1.088  -1.185  0.00  0.00    +0.004 A 
ATOM      6  C   UNL     1      -2.086  -0.612  -1.214  0.00  0.00    +0.011 A 
ATOM      7  C   UNL     1      -4.397  -1.379  -2.250  0.00  0.00    +0.138 C 
ATOM      8  C   UNL     1      -3.886  -2.435  -3.238  0.00  0.00    +0.123 C 
ATOM      9  C   UNL     1      -3.383  -1.619  -4.460  0.00  0.00    +0.107 C 
ATOM     10  C   UNL     1      -3.653  -0.147  -4.101  0.00  0.00    +0.071 C 
ATOM     11  N   UNL     1      -4.705  -0.181  -3.048  0.00  0.00    -0.281 NA
ATOM     12  C   UNL     1      -5.964  -0.390  -3.802  0.00  0.00    +0.086 C 
ATOM     13  C   UNL     1      -5.802   0.431  -5.097  0.00  0.00    +0.017 C 
ATOM     14  C   UNL     1      -4.270   0.569  -5.316  0.00  0.00    +0.021 C 
ATOM     15  C   UNL     1      -1.894  -1.883  -4.468  0.00  0.00    +0.232 C 
ATOM     16  O   UNL     1      -1.106  -1.429  -5.270  0.00  0.00    -0.274 OA
ATOM     17  N   UNL     1      -1.582  -2.696  -3.453  0.00  0.00    -0.210 N 
ATOM     18  C   UNL     1      -2.632  -3.080  -2.691  0.00  0.00    +0.233 C 
ATOM     19  O   UNL     1      -2.585  -3.815  -1.728  0.00  0.00    -0.274 OA
ATOM     20  C   UNL     1      -5.609  -1.870  -1.506  0.00  0.00    +0.243 C 
ATOM     21  O   UNL     1      -6.666  -2.214  -1.990  0.00  0.00    -0.273 OA
ATOM     22  N   UNL     1      -5.293  -1.853  -0.197  0.00  0.00    -0.283 N 
ATOM     23  H   UNL     1      -5.899  -2.123   0.510  0.00  0.00    +0.155 HD
ENDROOT
BRANCH  17  24
ATOM     24  C   UNL     1      -0.271  -3.123  -3.199  0.00  0.00    +0.047 A 
ATOM     25  C   UNL     1       0.509  -2.456  -2.263  0.00  0.00    +0.026 A 
ATOM     26  C   UNL     1       1.800  -2.879  -2.015  0.00  0.00    +0.034 A 
ATOM     27  C   UNL     1       2.316  -3.966  -2.698  0.00  0.00    +0.127 A 
ATOM     28  C   UNL     1       1.542  -4.632  -3.630  0.00  0.00    +0.038 A 
ATOM     29  C   UNL     1       0.248  -4.217  -3.878  0.00  0.00    -0.026 A 
ATOM     30  C   UNL     1      -0.598  -4.947  -4.889  0.00  0.00    +0.046 C 
BRANCH  27  31
ATOM     31  N   UNL     1       3.700  -4.416  -2.430  0.00  0.00    +0.056 N 
ATOM     32  O   UNL     1       4.379  -3.834  -1.616  0.00  0.00    -0.126 OA
ATOM     33  O   UNL     1       4.153  -5.366  -3.026  0.00  0.00    -0.126 OA
ENDBRANCH  27  31
ENDBRANCH  17  24
BRANCH   1  35
ATOM     34  C   UNL     1       0.037   1.569   0.194  0.00  0.00    +0.009 C 
ATOM     35  C   UNL     1       0.037   0.062  -0.067  0.00  0.00    +0.032 C 
ENDBRANCH   1  35
TORSDOF 3
