REMARK  Name = ZINC02885062
REMARK  8 active torsions:
REMARK  status: ('A' for Active; 'I' for Inactive)
REMARK    1  A    between atoms: C_1  and  C_2
REMARK    2  A    between atoms: C_5  and  N_8
REMARK    3  A    between atoms: N_8  and  S_9
REMARK    4  A    between atoms: S_9  and  C_12
REMARK    5  A    between atoms: C_14  and  C_19
REMARK    6  A    between atoms: N_24  and  C_27
REMARK    7  A    between atoms: C_30  and  O_33
REMARK    8  A    between atoms: O_33  and  C_34
REMARK                            x       y       z     vdW  Elec       q    Type
REMARK                         _______ _______ _______ _____ _____    ______ ____
ROOT
ATOM      1  C   UNL     1       0.718   8.812  -4.644  0.00  0.00    +0.127 A 
ATOM      2  C   UNL     1       1.616   8.324  -3.718  0.00  0.00    +0.043 A 
ATOM      3  C   UNL     1       1.272   7.225  -2.929  0.00  0.00    +0.039 A 
ATOM      4  C   UNL     1       0.021   6.623  -3.086  0.00  0.00    +0.014 A 
ATOM      5  C   UNL     1      -0.870   7.124  -4.012  0.00  0.00    +0.023 A 
ATOM      6  C   UNL     1      -0.522   8.215  -4.792  0.00  0.00    +0.068 A 
ATOM      7 CL   UNL     1      -1.647   8.836  -5.959  0.00  0.00    -0.082 Cl
ENDROOT
BRANCH   3   8
ATOM      8  C   UNL     1       2.229   6.696  -1.935  0.00  0.00    +0.247 C 
ATOM      9  O   UNL     1       3.424   6.744  -2.156  0.00  0.00    -0.270 OA
ATOM     10  N   UNL     1       1.778   6.160  -0.783  0.00  0.00    -0.295 N 
ATOM     11  C   UNL     1       0.346   6.188  -0.448  0.00  0.00    +0.127 C 
ATOM     12  C   UNL     1       0.189   6.762   0.965  0.00  0.00    +0.124 C 
ATOM     13  N   UNL     1       1.030   5.999   1.896  0.00  0.00    -0.327 N 
ATOM     14  C   UNL     1       2.454   6.132   1.559  0.00  0.00    +0.124 C 
ATOM     15  C   UNL     1       2.705   5.533   0.171  0.00  0.00    +0.127 C 
BRANCH  13  16
ATOM     16  C   UNL     1       0.790   6.385   3.220  0.00  0.00    +0.030 A 
ATOM     17  C   UNL     1       1.489   5.781   4.257  0.00  0.00    +0.027 A 
ATOM     18  C   UNL     1       1.252   6.163   5.563  0.00  0.00    +0.047 A 
ATOM     19  C   UNL     1       0.317   7.150   5.838  0.00  0.00    +0.120 A 
ATOM     20  C   UNL     1      -0.381   7.754   4.803  0.00  0.00    +0.047 A 
ATOM     21  C   UNL     1      -0.146   7.373   3.497  0.00  0.00    +0.027 A 
BRANCH  19  22
ATOM     22  O   UNL     1       0.084   7.526   7.125  0.00  0.00    -0.495 OA
ATOM     23  C   UNL     1      -0.892   8.549   7.335  0.00  0.00    +0.277 C 
ENDBRANCH  19  22
ENDBRANCH  13  16
ENDBRANCH   3   8
BRANCH   1  24
ATOM     24  S   UNL     1       1.151  10.200  -5.640  0.00  0.00    +0.074 S 
ATOM     25  O   UNL     1       0.057  11.105  -5.573  0.00  0.00    -0.150 OA
ATOM     26  O   UNL     1       2.471  10.571  -5.268  0.00  0.00    -0.150 OA
BRANCH  24  27
ATOM     27  N   UNL     1       1.232   9.671  -7.207  0.00  0.00    -0.216 N 
ATOM     28  H   UNL     1       0.640  10.048  -7.878  0.00  0.00    +0.174 HD
BRANCH  27  33
ATOM     29  C   UNL     1       4.965   5.656  -8.657  0.00  0.00    +0.044 C 
ATOM     30  C   UNL     1       3.973   6.723  -8.272  0.00  0.00    -0.050 A 
ATOM     31  C   UNL     1       2.661   6.632  -8.700  0.00  0.00    +0.005 A 
ATOM     32  C   UNL     1       1.749   7.608  -8.348  0.00  0.00    +0.025 A 
ATOM     33  C   UNL     1       2.151   8.682  -7.564  0.00  0.00    +0.048 A 
ATOM     34  C   UNL     1       3.471   8.773  -7.140  0.00  0.00    +0.025 A 
ATOM     35  C   UNL     1       4.376   7.791  -7.491  0.00  0.00    +0.005 A 
ENDBRANCH  27  33
ENDBRANCH  24  27
ENDBRANCH   1  24
TORSDOF 6
