REMARK  Name = ZINC02575255
REMARK  2 active torsions:
REMARK  status: ('A' for Active; 'I' for Inactive)
REMARK    1  A    between atoms: C_3  and  C_9
REMARK    2  A    between atoms: C_5  and  O_7
REMARK                            x       y       z     vdW  Elec       q    Type
REMARK                         _______ _______ _______ _____ _____    ______ ____
ROOT
ATOM      1  C   UNL     1       0.002  -0.004   0.002  0.00  0.00    +0.004 A 
ATOM      2  C   UNL     1      -0.017   1.375   0.010  0.00  0.00    +0.012 A 
ATOM      3  C   UNL     1       1.186   2.089   0.002  0.00  0.00    +0.032 A 
ATOM      4  C   UNL     1       2.402   1.399  -0.013  0.00  0.00    +0.069 A 
ATOM      5  C   UNL     1       2.406   0.013  -0.021  0.00  0.00    +0.131 A 
ATOM      6  C   UNL     1       1.206  -0.685  -0.013  0.00  0.00    +0.046 A 
ATOM      7 BR   UNL     1       4.035   2.352  -0.025  0.00  0.00    -0.046 Br
ENDROOT
BRANCH   5   8
ATOM      8  O   UNL     1       3.585  -0.663  -0.037  0.00  0.00    -0.506 OA
ATOM      9  H   UNL     1       3.918  -0.854  -0.924  0.00  0.00    +0.292 HD
ENDBRANCH   5   8
BRANCH   3  10
ATOM     10  C   UNL     1       1.171   3.560   0.009  0.00  0.00    +0.260 C 
ATOM     11  O   UNL     1       0.115   4.156   0.022  0.00  0.00    -0.296 OA
ENDBRANCH   3  10
TORSDOF 2
