REMARK  Name = ZINC49660917
REMARK  3 active torsions:
REMARK  status: ('A' for Active; 'I' for Inactive)
REMARK    1  A    between atoms: C_4  and  N_8
REMARK    2  A    between atoms: C_9  and  C_11
REMARK    3  A    between atoms: C_14  and  C_19
REMARK                            x       y       z     vdW  Elec       q    Type
REMARK                         _______ _______ _______ _____ _____    ______ ____
ROOT
ATOM      1  N   UNL     1       3.626  -0.652  -0.037  0.00  0.00    -0.275 N 
ATOM      2  C   UNL     1       3.685  -1.940   0.354  0.00  0.00    +0.275 C 
ATOM      3  O   UNL     1       2.663  -2.537   0.635  0.00  0.00    -0.268 OA
ATOM      4  H   UNL     1       4.431  -0.197  -0.332  0.00  0.00    +0.155 HD
ENDROOT
BRANCH   1   8
ATOM      5  C   UNL     1      -0.015   1.382   0.018  0.00  0.00    +0.006 A 
ATOM      6  C   UNL     1       0.781   1.362   1.149  0.00  0.00    +0.040 A 
ATOM      7  C   UNL     1       1.989   0.688   1.134  0.00  0.00    +0.147 A 
ATOM      8  C   UNL     1       2.403   0.031  -0.019  0.00  0.00    +0.105 A 
ATOM      9  C   UNL     1       1.600   0.053  -1.153  0.00  0.00    +0.147 A 
ATOM     10  C   UNL     1       0.393   0.729  -1.131  0.00  0.00    +0.040 A 
ATOM     11  F   UNL     1       1.998  -0.584  -2.276  0.00  0.00    -0.203 F 
ATOM     12  F   UNL     1       2.767   0.670   2.239  0.00  0.00    -0.203 F 
ENDBRANCH   1   8
BRANCH   2  13
ATOM     13  C   UNL     1       4.989  -2.626   0.443  0.00  0.00    +0.187 A 
ATOM     14  N   UNL     1       6.184  -2.155   0.190  0.00  0.00    -0.151 NA
ATOM     15  N   UNL     1       7.314  -2.950   0.328  0.00  0.00    -0.182 N 
ATOM     16  C   UNL     1       8.685  -2.873   0.178  0.00  0.00    +0.259 A 
ATOM     17  N   UNL     1       9.190  -4.034   0.484  0.00  0.00    -0.122 NA
ATOM     18  N   UNL     1       8.252  -4.851   0.818  0.00  0.00    -0.120 NA
ATOM     19  C   UNL     1       7.105  -4.247   0.740  0.00  0.00    +0.219 A 
ATOM     20  S   UNL     1       5.341  -4.308   0.929  0.00  0.00    -0.022 S 
BRANCH  16  21
ATOM     21  C   UNL     1       9.461  -1.658  -0.262  0.00  0.00    +0.454 C 
ATOM     22  F   UNL     1      10.758  -2.039  -0.623  0.00  0.00    -0.163 F 
ATOM     23  F   UNL     1       8.825  -1.071  -1.360  0.00  0.00    -0.163 F 
ATOM     24  F   UNL     1       9.522  -0.737   0.789  0.00  0.00    -0.163 F 
ENDBRANCH  16  21
ENDBRANCH   2  13
TORSDOF 3
