REMARK  Name = ZINC67012849
REMARK  10 active torsions:
REMARK  status: ('A' for Active; 'I' for Inactive)
REMARK    1  A    between atoms: C_1  and  C_2
REMARK    2  A    between atoms: C_2  and  C_3
REMARK    3  A    between atoms: C_2  and  C_4
REMARK    4  A    between atoms: C_2  and  N_5
REMARK    5  A    between atoms: C_7  and  C_27
REMARK    6  A    between atoms: C_9  and  N_10
REMARK    7  A    between atoms: N_13  and  C_14
REMARK    8  A    between atoms: N_13  and  C_15
REMARK    9  A    between atoms: C_15  and  C_16
REMARK   10  A    between atoms: N_18  and  C_19
REMARK                            x       y       z     vdW  Elec       q    Type
REMARK                         _______ _______ _______ _____ _____    ______ ____
ROOT
ATOM      1  N   UNL     1       0.462  -2.888  -0.778  0.00  0.00    -0.255 N 
ATOM      2  C   UNL     1       0.716  -4.141  -1.204  0.00  0.00    +0.308 C 
ATOM      3  O   UNL     1       1.303  -4.319  -2.254  0.00  0.00    -0.252 OA
ATOM      4  N   UNL     1       0.320  -5.197  -0.466  0.00  0.00    -0.280 N 
ATOM      5  C   UNL     1      -0.386  -4.983   0.799  0.00  0.00    +0.134 C 
ATOM      6  H   UNL     1      -0.005  -2.746   0.060  0.00  0.00    +0.158 HD
ENDROOT
BRANCH   1  11
ATOM      7  N   UNL     1       0.677  -0.480  -1.222  0.00  0.00    -0.329 N 
ATOM      8  C   UNL     1       1.207   0.320  -2.183  0.00  0.00    +0.107 A 
ATOM      9  C   UNL     1       1.754  -0.474  -3.151  0.00  0.00    +0.071 A 
ATOM     10  C   UNL     1       1.527  -1.859  -2.724  0.00  0.00    +0.062 A 
ATOM     11  C   UNL     1       0.873  -1.793  -1.542  0.00  0.00    +0.108 A 
BRANCH   7  13
ATOM     12  C   UNL     1      -0.024   1.526  -0.011  0.00  0.00    +0.034 C 
ATOM     13  C   UNL     1      -0.002  -0.004  -0.014  0.00  0.00    +0.038 C 
ATOM     14  C   UNL     1       0.747  -0.505   1.223  0.00  0.00    +0.034 C 
ATOM     15  C   UNL     1      -1.436  -0.535   0.009  0.00  0.00    +0.034 C 
ENDBRANCH   7  13
BRANCH   9  16
ATOM     16  C   UNL     1       2.417  -0.041  -4.344  0.00  0.00    +0.101 C 
ATOM     17  N   UNL     1       2.943   0.303  -5.291  0.00  0.00    -0.191 NA
ENDBRANCH   9  16
ENDBRANCH   1  11
BRANCH   4  18
ATOM     18  C   UNL     1       0.596  -6.559  -0.929  0.00  0.00    +0.205 C 
BRANCH  18  19
ATOM     19  C   UNL     1       1.933  -7.010  -0.398  0.00  0.00    +0.235 C 
ATOM     20  O   UNL     1       2.590  -6.266   0.300  0.00  0.00    -0.274 OA
ATOM     21  N   UNL     1       2.398  -8.239  -0.697  0.00  0.00    -0.284 N 
ATOM     22  H   UNL     1       1.844  -8.858  -1.198  0.00  0.00    +0.155 HD
BRANCH  21  23
ATOM     23  C   UNL     1       3.679  -8.621  -0.285  0.00  0.00    +0.039 A 
ATOM     24  C   UNL     1       4.452  -9.444  -1.093  0.00  0.00    +0.061 A 
ATOM     25  C   UNL     1       5.719  -9.821  -0.684  0.00  0.00    +0.128 A 
ATOM     26  C   UNL     1       6.215  -9.380   0.531  0.00  0.00    +0.076 A 
ATOM     27  C   UNL     1       5.445  -8.559   1.339  0.00  0.00    +0.128 A 
ATOM     28  C   UNL     1       4.181  -8.175   0.930  0.00  0.00    +0.061 A 
ATOM     29  F   UNL     1       5.932  -8.130   2.524  0.00  0.00    -0.205 F 
ATOM     30  F   UNL     1       6.472 -10.622  -1.470  0.00  0.00    -0.205 F 
ENDBRANCH  21  23
ENDBRANCH  18  19
ENDBRANCH   4  18
TORSDOF 6
