REMARK  Name = ZINC37639357
REMARK  10 active torsions:
REMARK  status: ('A' for Active; 'I' for Inactive)
REMARK    1  A    between atoms: C_1  and  C_2
REMARK    2  A    between atoms: C_7  and  N_8
REMARK    3  A    between atoms: C_9  and  C_11
REMARK    4  A    between atoms: C_11  and  N_12
REMARK    5  A    between atoms: C_16  and  C_28
REMARK    6  A    between atoms: N_20  and  C_23
REMARK    7  A    between atoms: C_23  and  C_24
REMARK    8  A    between atoms: C_24  and  C_25
REMARK    9  A    between atoms: C_25  and  C_26
REMARK   10  A    between atoms: C_25  and  C_27
REMARK                            x       y       z     vdW  Elec       q    Type
REMARK                         _______ _______ _______ _____ _____    ______ ____
ROOT
ATOM      1  N   UNL     1      -0.241  -0.905   5.988  0.00  0.00    -0.251 N 
ATOM      2  C   UNL     1      -1.446  -1.351   6.387  0.00  0.00    +0.266 A 
ATOM      3  O   UNL     1      -2.459  -0.964   5.834  0.00  0.00    -0.267 OA
ATOM      4  C   UNL     1      -1.526  -2.318   7.502  0.00  0.00    +0.078 A 
ATOM      5  C   UNL     1      -2.701  -2.939   8.105  0.00  0.00    +0.004 A 
ATOM      6  C   UNL     1      -2.524  -3.806   9.130  0.00  0.00    +0.056 A 
ATOM      7  S   UNL     1      -0.754  -3.835   9.341  0.00  0.00    -0.078 S 
ATOM      8  C   UNL     1      -0.303  -2.694   8.061  0.00  0.00    +0.097 A 
ATOM      9  N   UNL     1       0.880  -2.191   7.597  0.00  0.00    -0.287 N 
ATOM     10  C   UNL     1       0.896  -1.316   6.572  0.00  0.00    +0.333 A 
ATOM     11  O   UNL     1       1.961  -0.886   6.172  0.00  0.00    -0.246 OA
ENDROOT
BRANCH   5  12
ATOM     12  C   UNL     1      -4.061  -2.627   7.606  0.00  0.00    -0.017 A 
ATOM     13  C   UNL     1      -4.458  -1.300   7.440  0.00  0.00    +0.008 A 
ATOM     14  C   UNL     1      -5.725  -1.015   6.975  0.00  0.00    +0.001 A 
ATOM     15  C   UNL     1      -6.602  -2.042   6.674  0.00  0.00    +0.000 A 
ATOM     16  C   UNL     1      -6.214  -3.360   6.838  0.00  0.00    +0.001 A 
ATOM     17  C   UNL     1      -4.947  -3.658   7.296  0.00  0.00    +0.008 A 
ENDBRANCH   5  12
BRANCH   1  18
ATOM     18  C   UNL     1      -0.168   0.052   4.882  0.00  0.00    +0.226 C 
BRANCH  18  20
ATOM     19  N   UNL     1       0.025  -0.015   2.417  0.00  0.00    -0.284 N 
ATOM     20  C   UNL     1      -0.056  -0.694   3.578  0.00  0.00    +0.237 C 
ATOM     21  O   UNL     1      -0.040  -1.907   3.573  0.00  0.00    -0.274 OA
ATOM     22  H   UNL     1       0.078   0.954   2.425  0.00  0.00    +0.155 HD
BRANCH  19  29
ATOM     23  C   UNL     1      -1.264   1.184   0.181  0.00  0.00    +0.045 C 
ATOM     24  C   UNL     1      -0.584  -0.158   0.084  0.00  0.00    -0.029 A 
ATOM     25  C   UNL     1      -0.568  -0.840  -1.117  0.00  0.00    +0.005 A 
ATOM     26  C   UNL     1       0.055  -2.071  -1.206  0.00  0.00    +0.000 A 
ATOM     27  C   UNL     1       0.666  -2.622  -0.095  0.00  0.00    +0.002 A 
ATOM     28  C   UNL     1       0.655  -1.945   1.108  0.00  0.00    +0.023 A 
ATOM     29  C   UNL     1       0.034  -0.706   1.201  0.00  0.00    +0.036 A 
ENDBRANCH  19  29
ENDBRANCH  18  20
ENDBRANCH   1  18
BRANCH   9  30
ATOM     30  C   UNL     1       2.140  -2.612   8.213  0.00  0.00    +0.127 C 
BRANCH  30  31
ATOM     31  C   UNL     1       2.674  -3.850   7.489  0.00  0.00    +0.025 C 
BRANCH  31  32
ATOM     32  C   UNL     1       3.990  -4.289   8.132  0.00  0.00    -0.016 C 
ATOM     33  C   UNL     1       4.460  -5.596   7.491  0.00  0.00    +0.007 C 
ATOM     34  C   UNL     1       5.050  -3.207   7.918  0.00  0.00    +0.007 C 
ENDBRANCH  31  32
ENDBRANCH  30  31
ENDBRANCH   9  30
TORSDOF 7
