REMARK  Name = ZINC09667274
REMARK  6 active torsions:
REMARK  status: ('A' for Active; 'I' for Inactive)
REMARK    1  A    between atoms: C_1  and  C_2
REMARK    2  A    between atoms: C_6  and  C_10
REMARK    3  A    between atoms: C_13  and  S_16
REMARK    4  A    between atoms: N_14  and  C_15
REMARK    5  A    between atoms: S_16  and  C_17
REMARK    6  A    between atoms: C_17  and  C_18
REMARK                            x       y       z     vdW  Elec       q    Type
REMARK                         _______ _______ _______ _____ _____    ______ ____
ROOT
ATOM      1  C   UNL     1       7.528   4.506  -1.721  0.00  0.00    +0.190 A 
ATOM      2  N   UNL     1       7.285   4.347  -0.440  0.00  0.00    -0.126 NA
ATOM      3  N   UNL     1       6.188   3.696  -0.280  0.00  0.00    -0.122 NA
ATOM      4  C   UNL     1       5.668   3.393  -1.450  0.00  0.00    +0.192 A 
ATOM      5  N   UNL     1       6.500   3.900  -2.406  0.00  0.00    -0.304 N 
ATOM      6  C   UNL     1       6.333   3.815  -3.859  0.00  0.00    +0.153 C 
ENDROOT
BRANCH   1  12
ATOM      7  C   UNL     1      11.067   6.612   1.878  0.00  0.00    +0.109 C 
ATOM      8  C   UNL     1      10.942   6.544   0.377  0.00  0.00    +0.215 C 
ATOM      9  O   UNL     1      11.789   7.054  -0.325  0.00  0.00    -0.276 OA
ATOM     10  N   UNL     1       9.890   5.916  -0.183  0.00  0.00    -0.266 N 
ATOM     11  C   UNL     1       9.774   5.853  -1.570  0.00  0.00    +0.200 A 
ATOM     12  C   UNL     1       8.687   5.204  -2.314  0.00  0.00    +0.193 A 
ATOM     13  N   UNL     1       8.919   5.357  -3.594  0.00  0.00    -0.044 NA
ATOM     14  O   UNL     1      10.129   6.080  -3.731  0.00  0.00    -0.240 OA
ATOM     15  N   UNL     1      10.615   6.356  -2.430  0.00  0.00    -0.033 NA
ATOM     16  H   UNL     1       9.213   5.508   0.379  0.00  0.00    +0.156 HD
ENDBRANCH   1  12
BRANCH   4  17
ATOM     17  S   UNL     1       4.173   2.503  -1.731  0.00  0.00    -0.081 S 
BRANCH  17  18
ATOM     18  C   UNL     1       3.672   2.185  -0.021  0.00  0.00    +0.112 C 
BRANCH  18  19
ATOM     19  C   UNL     1       2.378   1.412  -0.013  0.00  0.00    -0.036 A 
ATOM     20  C   UNL     1       1.171   2.087   0.002  0.00  0.00    +0.006 A 
ATOM     21  C   UNL     1      -0.017   1.379   0.010  0.00  0.00    +0.022 A 
ATOM     22  C   UNL     1       0.002  -0.004   0.002  0.00  0.00    +0.059 A 
ATOM     23  C   UNL     1       1.211  -0.679  -0.013  0.00  0.00    +0.060 A 
ATOM     24  C   UNL     1       2.398   0.030  -0.021  0.00  0.00    +0.026 A 
ATOM     25 CL   UNL     1       1.236  -2.415  -0.022  0.00  0.00    -0.082 Cl
ATOM     26 CL   UNL     1      -1.489  -0.893   0.011  0.00  0.00    -0.082 Cl
ENDBRANCH  18  19
ENDBRANCH  17  18
ENDBRANCH   4  17
TORSDOF 4
