REMARK  Name = ZINC63273318
REMARK  5 active torsions:
REMARK  status: ('A' for Active; 'I' for Inactive)
REMARK    1  A    between atoms: C_4  and  C_6
REMARK    2  A    between atoms: C_6  and  N_7
REMARK    3  A    between atoms: C_10  and  N_13
REMARK    4  A    between atoms: C_14  and  C_16
REMARK    5  A    between atoms: C_16  and  N_17
REMARK                            x       y       z     vdW  Elec       q    Type
REMARK                         _______ _______ _______ _____ _____    ______ ____
ROOT
ATOM      1  N   UNL     1      -1.617  -6.136  -1.295  0.00  0.00    -0.311 N 
ATOM      2  C   UNL     1      -2.159  -7.002  -2.174  0.00  0.00    +0.231 C 
ATOM      3  O   UNL     1      -2.317  -6.673  -3.330  0.00  0.00    -0.274 OA
ATOM      4  H   UNL     1      -1.490  -6.399  -0.370  0.00  0.00    +0.149 HD
ENDROOT
BRANCH   1   8
ATOM      5  N   UNL     1       0.629  -2.576  -1.516  0.00  0.00    +0.380 N 
ATOM      6  C   UNL     1      -0.739  -2.462  -0.994  0.00  0.00    -0.077 C 
ATOM      7  C   UNL     1      -1.232  -3.839  -0.542  0.00  0.00    +0.003 C 
ATOM      8  C   UNL     1      -1.218  -4.797  -1.736  0.00  0.00    +0.069 C 
ATOM      9  C   UNL     1       0.198  -4.851  -2.318  0.00  0.00    +0.003 C 
ATOM     10  C   UNL     1       0.638  -3.437  -2.704  0.00  0.00    -0.077 C 
ATOM     11  H   UNL     1       1.225  -2.977  -0.807  0.00  0.00    -0.082 HD
BRANCH   5  12
ATOM     12  C   UNL     1       1.127  -1.242  -1.876  0.00  0.00    -0.075 C 
BRANCH  12  16
ATOM     13  C   UNL     1       3.093   1.230  -0.256  0.00  0.00    +0.000 C 
ATOM     14  C   UNL     1       3.041   0.239   0.934  0.00  0.00    +0.000 C 
ATOM     15  C   UNL     1       2.332  -0.994   0.321  0.00  0.00    +0.002 C 
ATOM     16  C   UNL     1       1.262  -0.390  -0.612  0.00  0.00    -0.028 C 
ATOM     17  C   UNL     1       1.745   1.024  -0.978  0.00  0.00    +0.002 C 
ENDBRANCH  12  16
ENDBRANCH   5  12
ENDBRANCH   1   8
BRANCH   2  18
ATOM     18  C   UNL     1      -2.570  -8.379  -1.719  0.00  0.00    +0.213 C 
BRANCH  18  19
ATOM     19  N   UNL     1      -3.127  -9.121  -2.853  0.00  0.00    -0.215 N 
ATOM     20  C   UNL     1      -4.434  -9.116  -3.195  0.00  0.00    +0.247 C 
ATOM     21  O   UNL     1      -5.336  -8.520  -2.645  0.00  0.00    -0.273 OA
ATOM     22  C   UNL     1      -4.532 -10.008  -4.405  0.00  0.00    +0.113 C 
ATOM     23  C   UNL     1      -5.075  -9.238  -5.616  0.00  0.00    +0.035 C 
ATOM     24  C   UNL     1      -5.930 -10.286  -6.374  0.00  0.00    +0.003 C 
ATOM     25  C   UNL     1      -6.580 -11.097  -5.225  0.00  0.00    +0.003 C 
ATOM     26  C   UNL     1      -5.473 -11.188  -4.152  0.00  0.00    +0.035 C 
ATOM     27  N   UNL     1      -3.159 -10.460  -4.639  0.00  0.00    -0.285 N 
ATOM     28  C   UNL     1      -2.404  -9.884  -3.682  0.00  0.00    +0.310 C 
ATOM     29  O   UNL     1      -1.203 -10.043  -3.581  0.00  0.00    -0.252 OA
ATOM     30  H   UNL     1      -2.853 -11.053  -5.344  0.00  0.00    +0.151 HD
ENDBRANCH  18  19
ENDBRANCH   2  18
TORSDOF 5
