REMARK  Name = ZINC12316220
REMARK  9 active torsions:
REMARK  status: ('A' for Active; 'I' for Inactive)
REMARK    1  A    between atoms: C_1  and  N_2
REMARK    2  A    between atoms: N_2  and  C_3
REMARK    3  A    between atoms: C_3  and  C_4
REMARK    4  A    between atoms: C_4  and  C_5
REMARK    5  A    between atoms: C_11  and  C_13
REMARK    6  A    between atoms: C_14  and  C_21
REMARK    7  A    between atoms: C_21  and  N_49
REMARK    8  A    between atoms: C_22  and  C_23
REMARK    9  A    between atoms: C_22  and  N_49
REMARK                            x       y       z     vdW  Elec       q    Type
REMARK                         _______ _______ _______ _____ _____    ______ ____
ROOT
ATOM      1  C   UNL     1       0.127   0.043   2.442  0.00  0.00    +0.146 A 
ATOM      2  C   UNL     1       0.337  -0.502   3.671  0.00  0.00    +0.039 A 
ATOM      3  N   UNL     1       0.257   0.516   4.602  0.00  0.00    -0.299 N 
ATOM      4  C   UNL     1       0.365   0.664   5.969  0.00  0.00    +0.100 A 
ATOM      5  C   UNL     1       0.220   1.858   6.540  0.00  0.00    +0.067 A 
ATOM      6  S   UNL     1      -0.091   2.909   5.130  0.00  0.00    -0.058 S 
ATOM      7  C   UNL     1      -0.003   1.652   3.875  0.00  0.00    +0.178 A 
ATOM      8  N   UNL     1      -0.075   1.376   2.608  0.00  0.00    -0.216 NA
ENDROOT
BRANCH   1  11
ATOM      9  C   UNL     1      -0.051   1.460   0.013  0.00  0.00    +0.132 C 
ATOM     10  N   UNL     1      -0.004  -0.005   0.002  0.00  0.00    -0.299 N 
ATOM     11  C   UNL     1       0.124  -0.683   1.160  0.00  0.00    +0.266 C 
ATOM     12  O   UNL     1       0.237  -1.894   1.146  0.00  0.00    -0.268 OA
BRANCH  10  13
ATOM     13  C   UNL     1      -0.095  -0.732  -1.266  0.00  0.00    +0.112 C 
BRANCH  13  14
ATOM     14  C   UNL     1       1.310  -0.937  -1.838  0.00  0.00    +0.054 C 
BRANCH  14  15
ATOM     15  C   UNL     1       1.216  -1.685  -3.143  0.00  0.00    -0.046 A 
ATOM     16  C   UNL     1       1.266  -3.067  -3.153  0.00  0.00    +0.004 A 
ATOM     17  C   UNL     1       1.176  -3.753  -4.350  0.00  0.00    +0.000 A 
ATOM     18  C   UNL     1       1.044  -3.057  -5.537  0.00  0.00    +0.000 A 
ATOM     19  C   UNL     1       1.000  -1.676  -5.528  0.00  0.00    +0.000 A 
ATOM     20  C   UNL     1       1.085  -0.990  -4.331  0.00  0.00    +0.004 A 
ENDBRANCH  14  15
ENDBRANCH  13  14
ENDBRANCH  10  13
ENDBRANCH   1  11
BRANCH   2  21
ATOM     21  C   UNL     1       0.607  -1.956   3.964  0.00  0.00    -0.025 C 
BRANCH  21  22
ATOM     22  N   UNL     1      -0.675  -2.650   4.191  0.00  0.00    +0.386 N 
ATOM     23  H   UNL     1      -1.258  -2.566   3.350  0.00  0.00    -0.085 HD
ATOM     24  H   UNL     1      -1.158  -2.217   4.987  0.00  0.00    -0.085 HD
BRANCH  22  25
ATOM     25  C   UNL     1      -0.440  -4.077   4.481  0.00  0.00    -0.039 C 
BRANCH  25  26
ATOM     26  C   UNL     1      -1.765  -4.759   4.707  0.00  0.00    -0.026 A 
ATOM     27  C   UNL     1      -2.577  -5.364   3.808  0.00  0.00    +0.011 A 
ATOM     28  C   UNL     1      -3.760  -5.931   4.247  0.00  0.00    +0.028 A 
ATOM     29  C   UNL     1      -4.070  -5.864   5.566  0.00  0.00    +0.078 A 
ATOM     30  S   UNL     1      -2.666  -4.986   6.231  0.00  0.00    -0.084 S 
ATOM     31 CL   UNL     1      -5.468  -6.479   6.392  0.00  0.00    -0.076 Cl
ENDBRANCH  25  26
ENDBRANCH  22  25
ENDBRANCH  21  22
ENDBRANCH   2  21
TORSDOF 8
