REMARK  Name = ZINC64828138
REMARK  6 active torsions:
REMARK  status: ('A' for Active; 'I' for Inactive)
REMARK    1  A    between atoms: C_1  and  C_2
REMARK    2  A    between atoms: N_4  and  C_5
REMARK    3  A    between atoms: C_8  and  C_22
REMARK    4  A    between atoms: C_10  and  N_11
REMARK    5  A    between atoms: C_12  and  C_14
REMARK    6  A    between atoms: C_17  and  N_19
REMARK                            x       y       z     vdW  Elec       q    Type
REMARK                         _______ _______ _______ _____ _____    ______ ____
ROOT
ATOM      1  C   UNL     1       0.099  -2.077  -1.126  0.00  0.00    +0.055 A 
ATOM      2  C   UNL     1       0.097  -2.742   0.091  0.00  0.00    +0.026 A 
ATOM      3  C   UNL     1       0.201  -4.119   0.126  0.00  0.00    +0.014 A 
ATOM      4  C   UNL     1       0.308  -4.839  -1.050  0.00  0.00    +0.057 A 
ATOM      5  C   UNL     1       0.311  -4.185  -2.268  0.00  0.00    +0.037 A 
ATOM      6  C   UNL     1       0.201  -2.803  -2.313  0.00  0.00    +0.056 A 
ENDROOT
BRANCH   1  10
ATOM      7  C   UNL     1      -0.595   1.486  -0.126  0.00  0.00    +0.109 C 
ATOM      8  C   UNL     1      -0.592  -0.021  -0.145  0.00  0.00    +0.214 C 
ATOM      9  O   UNL     1      -1.118  -0.640   0.755  0.00  0.00    -0.276 OA
ATOM     10  N   UNL     1      -0.006  -0.680  -1.164  0.00  0.00    -0.284 N 
ATOM     11  H   UNL     1       0.344  -0.188  -1.923  0.00  0.00    +0.155 HD
ENDBRANCH   1  10
BRANCH   6  12
ATOM     12  N   UNL     1       0.198  -2.138  -3.545  0.00  0.00    -0.280 N 
ATOM     13  C   UNL     1       0.781  -2.707  -4.619  0.00  0.00    +0.255 C 
ATOM     14  O   UNL     1       1.397  -3.750  -4.496  0.00  0.00    -0.269 OA
ATOM     15  H   UNL     1      -0.223  -1.268  -3.626  0.00  0.00    +0.155 HD
BRANCH  13  16
ATOM     16  C   UNL     1       0.674  -2.070  -5.934  0.00  0.00    +0.076 A 
ATOM     17  C   UNL     1       1.188  -2.488  -7.152  0.00  0.00    +0.023 A 
ATOM     18  C   UNL     1       0.920  -1.672  -8.225  0.00  0.00    +0.041 A 
ATOM     19  C   UNL     1       0.192  -0.545  -8.030  0.00  0.00    +0.164 A 
ATOM     20  S   UNL     1      -0.158  -0.560  -6.387  0.00  0.00    -0.060 S 
BRANCH  19  21
ATOM     21  N   UNL     1      -0.207   0.465  -9.036  0.00  0.00    +0.063 N 
ATOM     22  O   UNL     1       0.121   0.331 -10.191  0.00  0.00    -0.126 OA
ATOM     23  O   UNL     1      -0.863   1.425  -8.701  0.00  0.00    -0.126 OA
ENDBRANCH  19  21
ENDBRANCH  13  16
ENDBRANCH   6  12
BRANCH   4  24
ATOM     24  C   UNL     1       0.422  -6.341  -1.005  0.00  0.00    +0.417 C 
ATOM     25  F   UNL     1       0.397  -6.770   0.327  0.00  0.00    -0.166 F 
ATOM     26  F   UNL     1      -0.650  -6.912  -1.699  0.00  0.00    -0.166 F 
ATOM     27  F   UNL     1       1.626  -6.736  -1.599  0.00  0.00    -0.166 F 
ENDBRANCH   4  24
TORSDOF 5
