REMARK  Name = ZINC22454560
REMARK  3 active torsions:
REMARK  status: ('A' for Active; 'I' for Inactive)
REMARK    1  A    between atoms: C_1  and  C_2
REMARK    2  A    between atoms: C_5  and  N_8
REMARK    3  A    between atoms: C_21  and  C_26
REMARK                            x       y       z     vdW  Elec       q    Type
REMARK                         _______ _______ _______ _____ _____    ______ ____
ROOT
ATOM      1  N   UNL     1       5.446  -3.655  -0.071  0.00  0.00    -0.297 N 
ATOM      2  C   UNL     1       4.906  -2.376  -0.192  0.00  0.00    +0.156 A 
ATOM      3  C   UNL     1       5.637  -1.145  -0.425  0.00  0.00    +0.080 A 
ATOM      4  C   UNL     1       4.699  -0.117  -0.473  0.00  0.00    +0.061 A 
ATOM      5  N   UNL     1       3.498  -0.666  -0.290  0.00  0.00    -0.200 N 
ATOM      6  N   UNL     1       3.634  -2.049  -0.112  0.00  0.00    -0.148 NA
ATOM      7  C   UNL     1       2.291   0.031  -0.272  0.00  0.00    +0.252 A 
ATOM      8  N   UNL     1       1.163  -0.636  -0.080  0.00  0.00    -0.219 NA
ATOM      9  C   UNL     1       0.001  -0.006  -0.057  0.00  0.00    +0.116 A 
ATOM     10  C   UNL     1      -0.027   1.369  -0.238  0.00  0.00    +0.039 A 
ATOM     11  C   UNL     1       1.172   2.034  -0.437  0.00  0.00    +0.116 A 
ATOM     12  N   UNL     1       2.300   1.343  -0.449  0.00  0.00    -0.219 NA
ATOM     13  C   UNL     1       5.077   1.325  -0.694  0.00  0.00    +0.060 C 
ATOM     14  C   UNL     1       6.556   1.518  -0.345  0.00  0.00    -0.001 C 
ATOM     15  C   UNL     1       7.426   0.502  -1.092  0.00  0.00    +0.083 C 
ATOM     16  C   UNL     1       7.072  -0.892  -0.596  0.00  0.00    +0.169 C 
ATOM     17  O   UNL     1       7.914  -1.733  -0.360  0.00  0.00    -0.292 OA
ATOM     18  C   UNL     1       6.985   2.933  -0.736  0.00  0.00    +0.008 C 
ATOM     19  H   UNL     1       6.537  -3.792  -0.061  0.00  0.00    +0.154 HD
ENDROOT
BRANCH   1  24
ATOM     20  C   UNL     1       2.018  -8.151   0.371  0.00  0.00    +0.044 C 
ATOM     21  C   UNL     1       2.929  -6.956   0.254  0.00  0.00    -0.050 A 
ATOM     22  C   UNL     1       2.506  -5.831  -0.430  0.00  0.00    +0.005 A 
ATOM     23  C   UNL     1       3.338  -4.734  -0.540  0.00  0.00    +0.023 A 
ATOM     24  C   UNL     1       4.601  -4.762   0.038  0.00  0.00    +0.032 A 
ATOM     25  C   UNL     1       5.025  -5.896   0.721  0.00  0.00    +0.023 A 
ATOM     26  C   UNL     1       4.186  -6.987   0.831  0.00  0.00    +0.005 A 
ENDBRANCH   1  24
TORSDOF 1
