REMARK  Name = ZINC39758666
REMARK  10 active torsions:
REMARK  status: ('A' for Active; 'I' for Inactive)
REMARK    1  A    between atoms: C_1  and  C_2
REMARK    2  A    between atoms: C_2  and  C_3
REMARK    3  A    between atoms: C_3  and  C_5
REMARK    4  A    between atoms: C_3  and  S_13
REMARK    5  A    between atoms: S_13  and  C_14
REMARK    6  A    between atoms: C_17  and  C_22
REMARK    7  A    between atoms: N_18  and  C_19
REMARK    8  A    between atoms: C_19  and  C_20
REMARK    9  A    between atoms: C_22  and  O_23
REMARK   10  A    between atoms: O_23  and  C_24
REMARK                            x       y       z     vdW  Elec       q    Type
REMARK                         _______ _______ _______ _____ _____    ______ ____
ROOT
ATOM      1  C   UNL     1      -0.182   1.579  -3.045  0.00  0.00    +0.193 A 
ATOM      2  N   UNL     1       0.480   2.408  -2.271  0.00  0.00    -0.122 NA
ATOM      3  N   UNL     1       0.395   3.603  -2.737  0.00  0.00    -0.130 NA
ATOM      4  C   UNL     1      -0.320   3.608  -3.827  0.00  0.00    +0.172 A 
ATOM      5  N   UNL     1      -0.708   2.318  -4.065  0.00  0.00    -0.299 N 
ENDROOT
BRANCH   1   6
ATOM      6  S   UNL     1      -0.353  -0.159  -2.814  0.00  0.00    -0.073 S 
BRANCH   6   7
ATOM      7  C   UNL     1       0.700  -0.518  -1.382  0.00  0.00    +0.140 C 
BRANCH   7   8
ATOM      8  C   UNL     1       2.144  -0.291  -1.750  0.00  0.00    +0.232 C 
ATOM      9  O   UNL     1       2.478  -0.282  -2.916  0.00  0.00    -0.274 OA
ATOM     10  N   UNL     1       3.063  -0.097  -0.784  0.00  0.00    -0.264 N 
ATOM     11  C   UNL     1       4.395   0.112  -1.124  0.00  0.00    +0.164 A 
ATOM     12  N   UNL     1       4.935   0.160  -2.323  0.00  0.00    -0.233 NA
ATOM     13  C   UNL     1       6.229   0.369  -2.481  0.00  0.00    +0.120 A 
ATOM     14  C   UNL     1       6.968   0.532  -1.356  0.00  0.00    +0.068 A 
ATOM     15  S   UNL     1       5.707   0.374  -0.103  0.00  0.00    -0.061 S 
ATOM     16  H   UNL     1       2.796  -0.104   0.148  0.00  0.00    +0.157 HD
ENDBRANCH   7   8
BRANCH   7  18
ATOM     17  C   UNL     1      -0.925  -2.171  -0.451  0.00  0.00    +0.005 C 
ATOM     18  C   UNL     1       0.505  -1.975  -0.957  0.00  0.00    +0.020 C 
ENDBRANCH   7  18
ENDBRANCH   6   7
ENDBRANCH   1   6
BRANCH   5  19
ATOM     19  C   UNL     1      -1.522   1.832  -5.182  0.00  0.00    +0.152 C 
BRANCH  19  20
ATOM     20  C   UNL     1      -2.979   1.883  -4.800  0.00  0.00    -0.013 C 
ATOM     21  C   UNL     1      -3.831   2.533  -5.554  0.00  0.00    +0.005 C 
ENDBRANCH  19  20
ENDBRANCH   5  19
BRANCH   4  22
ATOM     22  C   UNL     1      -0.651   4.811  -4.672  0.00  0.00    +0.305 C 
BRANCH  22  23
ATOM     23  O   UNL     1       0.356   4.985  -5.670  0.00  0.00    -0.484 OA
BRANCH  23  24
ATOM     24  C   UNL     1       0.207   6.033  -6.522  0.00  0.00    +0.121 A 
ATOM     25  C   UNL     1      -0.883   6.882  -6.398  0.00  0.00    +0.046 A 
ATOM     26  C   UNL     1      -1.027   7.941  -7.268  0.00  0.00    +0.007 A 
ATOM     27  C   UNL     1      -0.089   8.167  -8.268  0.00  0.00    -0.044 A 
ATOM     28  C   UNL     1       0.997   7.329  -8.390  0.00  0.00    -0.041 A 
ATOM     29  C   UNL     1       1.145   6.262  -7.514  0.00  0.00    +0.049 A 
ATOM     30  C   UNL     1       2.059   7.525  -9.440  0.00  0.00    +0.035 C 
ATOM     31  C   UNL     1       1.551   8.438 -10.554  0.00  0.00    +0.005 C 
ATOM     32  C   UNL     1       0.977   9.708  -9.915  0.00  0.00    +0.005 C 
ATOM     33  C   UNL     1      -0.315   9.339  -9.188  0.00  0.00    +0.035 C 
ENDBRANCH  23  24
ENDBRANCH  22  23
ENDBRANCH   4  22
TORSDOF 9
