REMARK  Name = ZINC13003362
REMARK  8 active torsions:
REMARK  status: ('A' for Active; 'I' for Inactive)
REMARK    1  A    between atoms: C_1  and  C_2
REMARK    2  A    between atoms: C_5  and  S_8
REMARK    3  A    between atoms: S_8  and  C_9
REMARK    4  A    between atoms: C_9  and  C_10
REMARK    5  A    between atoms: C_15  and  N_18
REMARK    6  A    between atoms: N_21  and  C_22
REMARK    7  A    between atoms: C_25  and  C_29
REMARK    8  A    between atoms: C_26  and  C_28
REMARK                            x       y       z     vdW  Elec       q    Type
REMARK                         _______ _______ _______ _____ _____    ______ ____
ROOT
ATOM      1  C   UNL     1      -0.682  -6.698   3.663  0.00  0.00    +0.034 A 
ATOM      2  C   UNL     1       0.443  -7.327   4.064  0.00  0.00    +0.094 A 
ATOM      3  C   UNL     1       0.625  -8.695   3.731  0.00  0.00    +0.275 A 
ATOM      4  O   UNL     1       1.636  -9.283   4.084  0.00  0.00    -0.266 OA
ATOM      5  N   UNL     1      -0.317  -9.336   3.030  0.00  0.00    -0.173 NA
ATOM      6  C   UNL     1      -1.416  -8.707   2.643  0.00  0.00    +0.234 A 
ATOM      7  N   UNL     1      -1.620  -7.392   2.954  0.00  0.00    -0.327 N 
ATOM      8  H   UNL     1      -2.433  -6.949   2.666  0.00  0.00    +0.169 HD
ENDROOT
BRANCH   6   9
ATOM      9  N   UNL     1      -2.347  -9.373   1.940  0.00  0.00    -0.179 NA
ATOM     10  C   UNL     1      -2.109 -10.607   1.531  0.00  0.00    +0.203 C 
ATOM     11  N   UNL     1      -0.875 -11.163   1.719  0.00  0.00    -0.369 N 
ATOM     12  N   UNL     1      -3.097 -11.328   0.920  0.00  0.00    -0.326 N 
ATOM     13  H   UNL     1      -0.797 -12.100   1.959  0.00  0.00    +0.159 HD
ATOM     14  H   UNL     1      -0.078 -10.621   1.613  0.00  0.00    +0.159 HD
ATOM     15  H   UNL     1      -2.950 -12.259   0.695  0.00  0.00    +0.169 HD
BRANCH  12  16
ATOM     16  C   UNL     1      -4.321 -10.721   0.620  0.00  0.00    +0.042 A 
ATOM     17  C   UNL     1      -4.360  -9.389   0.226  0.00  0.00    +0.026 A 
ATOM     18  C   UNL     1      -5.569  -8.793  -0.070  0.00  0.00    +0.005 A 
ATOM     19  C   UNL     1      -6.742  -9.520   0.025  0.00  0.00    -0.047 A 
ATOM     20  C   UNL     1      -6.707 -10.846   0.417  0.00  0.00    -0.046 A 
ATOM     21  C   UNL     1      -5.500 -11.450   0.709  0.00  0.00    +0.029 A 
ATOM     22  C   UNL     1      -7.987 -11.634   0.520  0.00  0.00    +0.044 C 
ATOM     23  C   UNL     1      -8.061  -8.867  -0.299  0.00  0.00    +0.044 C 
ENDBRANCH  12  16
ENDBRANCH   6   9
BRANCH   1  24
ATOM     24  C   UNL     1      -0.903  -5.246   4.001  0.00  0.00    +0.127 C 
BRANCH  24  25
ATOM     25  S   UNL     1      -0.643  -4.234   2.518  0.00  0.00    -0.119 S 
BRANCH  25  30
ATOM     26  C   UNL     1      -1.646   1.410   4.408  0.00  0.00    +0.044 C 
ATOM     27  C   UNL     1      -1.395   0.001   3.936  0.00  0.00    -0.050 A 
ATOM     28  C   UNL     1      -1.053  -0.234   2.617  0.00  0.00    +0.004 A 
ATOM     29  C   UNL     1      -0.822  -1.524   2.181  0.00  0.00    +0.015 A 
ATOM     30  C   UNL     1      -0.935  -2.587   3.070  0.00  0.00    +0.008 A 
ATOM     31  C   UNL     1      -1.279  -2.346   4.395  0.00  0.00    +0.015 A 
ATOM     32  C   UNL     1      -1.502  -1.053   4.825  0.00  0.00    +0.004 A 
ENDBRANCH  25  30
ENDBRANCH  24  25
ENDBRANCH   1  24
TORSDOF 5
