REMARK  Name = ZINC13283510
REMARK  7 active torsions:
REMARK  status: ('A' for Active; 'I' for Inactive)
REMARK    1  A    between atoms: C_1  and  C_2
REMARK    2  A    between atoms: C_2  and  N_3
REMARK    3  A    between atoms: N_3  and  C_4
REMARK    4  A    between atoms: N_3  and  C_13
REMARK    5  A    between atoms: C_4  and  C_5
REMARK    6  A    between atoms: C_18  and  C_19
REMARK    7  A    between atoms: C_20  and  N_25
REMARK                            x       y       z     vdW  Elec       q    Type
REMARK                         _______ _______ _______ _____ _____    ______ ____
ROOT
ATOM      1  C   UNL     1       5.053   3.551  -2.376  0.00  0.00    +0.034 A 
ATOM      2  C   UNL     1       5.361   4.739  -1.707  0.00  0.00    +0.025 A 
ATOM      3  C   UNL     1       6.654   5.141  -1.554  0.00  0.00    +0.030 A 
ATOM      4  C   UNL     1       7.694   4.358  -2.072  0.00  0.00    +0.078 A 
ATOM      5  C   UNL     1       7.389   3.154  -2.751  0.00  0.00    +0.045 A 
ATOM      6  C   UNL     1       6.056   2.756  -2.893  0.00  0.00    -0.017 A 
ATOM      7  C   UNL     1       5.717   1.473  -3.608  0.00  0.00    +0.046 C 
ATOM      8  C   UNL     1       8.461   2.382  -3.265  0.00  0.00    +0.129 A 
ATOM      9  N   UNL     1       9.697   2.824  -3.086  0.00  0.00    -0.199 NA
ATOM     10  C   UNL     1       9.939   3.962  -2.441  0.00  0.00    +0.215 A 
ATOM     11  N   UNL     1       8.981   4.718  -1.943  0.00  0.00    -0.215 NA
ATOM     12  N   UNL     1      11.253   4.370  -2.288  0.00  0.00    -0.327 N 
ATOM     13  H   UNL     1      11.974   3.829  -2.647  0.00  0.00    +0.145 HD
ATOM     14  H   UNL     1      11.453   5.196  -1.821  0.00  0.00    +0.145 HD
ENDROOT
BRANCH   8  15
ATOM     15  N   UNL     1       8.223   1.201  -3.936  0.00  0.00    -0.343 N 
ATOM     16  H   UNL     1       7.496   1.144  -4.576  0.00  0.00    +0.144 HD
ATOM     17  H   UNL     1       8.783   0.426  -3.768  0.00  0.00    +0.144 HD
ENDBRANCH   8  15
BRANCH   1  18
ATOM     18  N   UNL     1       3.717   3.162  -2.519  0.00  0.00    -0.326 N 
BRANCH  18  20
ATOM     19  C   UNL     1       3.513   4.102  -4.771  0.00  0.00    +0.024 C 
ATOM     20  C   UNL     1       2.973   4.126  -3.339  0.00  0.00    +0.102 C 
ENDBRANCH  18  20
BRANCH  18  21
ATOM     21  C   UNL     1       3.079   2.982  -1.208  0.00  0.00    +0.140 C 
BRANCH  21  22
ATOM     22  C   UNL     1       1.731   2.333  -1.390  0.00  0.00    -0.029 A 
ATOM     23  C   UNL     1       0.606   3.116  -1.573  0.00  0.00    +0.007 A 
ATOM     24  C   UNL     1      -0.630   2.521  -1.740  0.00  0.00    +0.022 A 
ATOM     25  C   UNL     1      -0.743   1.143  -1.725  0.00  0.00    +0.059 A 
ATOM     26  C   UNL     1       0.384   0.359  -1.542  0.00  0.00    +0.060 A 
ATOM     27  C   UNL     1       1.620   0.956  -1.375  0.00  0.00    +0.026 A 
ATOM     28 CL   UNL     1       0.244  -1.371  -1.522  0.00  0.00    -0.082 Cl
ATOM     29 CL   UNL     1      -2.296   0.396  -1.936  0.00  0.00    -0.082 Cl
ENDBRANCH  21  22
ENDBRANCH  18  21
ENDBRANCH   1  18
TORSDOF 5
