REMARK  Name = ZINC63874509
REMARK  9 active torsions:
REMARK  status: ('A' for Active; 'I' for Inactive)
REMARK    1  A    between atoms: C_1  and  C_2
REMARK    2  A    between atoms: C_5  and  N_11
REMARK    3  A    between atoms: C_7  and  N_8
REMARK    4  A    between atoms: C_12  and  C_14
REMARK    5  A    between atoms: C_14  and  S_15
REMARK    6  A    between atoms: S_15  and  C_16
REMARK    7  A    between atoms: C_19  and  C_28
REMARK    8  A    between atoms: N_20  and  C_21
REMARK    9  A    between atoms: C_21  and  C_22
REMARK                            x       y       z     vdW  Elec       q    Type
REMARK                         _______ _______ _______ _____ _____    ______ ____
ROOT
ATOM      1  C   UNL     1       1.150  -8.259  -3.688  0.00  0.00    +0.192 A 
ATOM      2  N   UNL     1       1.454  -9.058  -2.676  0.00  0.00    -0.122 NA
ATOM      3  N   UNL     1       1.720 -10.238  -3.110  0.00  0.00    -0.129 NA
ATOM      4  C   UNL     1       1.603 -10.268  -4.429  0.00  0.00    +0.163 A 
ATOM      5  N   UNL     1       1.229  -8.997  -4.829  0.00  0.00    -0.300 N 
ENDROOT
BRANCH   4   6
ATOM      6  C   UNL     1       1.814 -11.378  -5.263  0.00  0.00    +0.025 C 
ATOM      7  C   UNL     1       2.181 -12.666  -4.874  0.00  0.00    +0.006 A 
ATOM      8  C   UNL     1       2.443 -13.243  -3.613  0.00  0.00    +0.010 A 
ATOM      9  C   UNL     1       2.787 -14.554  -3.531  0.00  0.00    +0.001 A 
ATOM     10  C   UNL     1       2.892 -15.356  -4.670  0.00  0.00    +0.002 A 
ATOM     11  C   UNL     1       2.656 -14.868  -5.912  0.00  0.00    +0.026 A 
ATOM     12  C   UNL     1       2.290 -13.507  -6.078  0.00  0.00    +0.043 A 
ATOM     13  N   UNL     1       2.012 -12.804  -7.158  0.00  0.00    -0.380 N 
ATOM     14  C   UNL     1       1.685 -11.428  -6.769  0.00  0.00    +0.152 C 
ATOM     15  H   UNL     1       2.018 -13.144  -8.066  0.00  0.00    +0.160 HD
ENDBRANCH   4   6
BRANCH   1  16
ATOM     16  S   UNL     1       0.716  -6.555  -3.577  0.00  0.00    -0.077 S 
BRANCH  16  17
ATOM     17  C   UNL     1       0.800  -6.196  -1.801  0.00  0.00    +0.173 C 
BRANCH  17  19
ATOM     18  N   UNL     1       0.442  -4.255  -0.310  0.00  0.00    -0.285 N 
ATOM     19  C   UNL     1       0.446  -4.750  -1.564  0.00  0.00    +0.227 C 
ATOM     20  O   UNL     1       0.165  -4.033  -2.501  0.00  0.00    -0.275 OA
ATOM     21  H   UNL     1       0.601  -4.843   0.444  0.00  0.00    +0.155 HD
BRANCH  18  26
ATOM     22  C   UNL     1      -0.508   1.272   0.552  0.00  0.00    +0.046 C 
ATOM     23  C   UNL     1      -0.256  -0.196   0.323  0.00  0.00    -0.020 A 
ATOM     24  C   UNL     1      -0.900  -0.854  -0.710  0.00  0.00    +0.007 A 
ATOM     25  C   UNL     1      -0.670  -2.199  -0.922  0.00  0.00    +0.024 A 
ATOM     26  C   UNL     1       0.207  -2.892  -0.098  0.00  0.00    +0.036 A 
ATOM     27  C   UNL     1       0.852  -2.228   0.938  0.00  0.00    +0.056 A 
ATOM     28  C   UNL     1       0.622  -0.881   1.142  0.00  0.00    +0.131 A 
BRANCH  28  29
ATOM     29  N   UNL     1       1.313  -0.172   2.242  0.00  0.00    +0.057 N 
ATOM     30  O   UNL     1       1.692   0.965   2.084  0.00  0.00    -0.126 OA
ATOM     31  O   UNL     1       1.499  -0.730   3.298  0.00  0.00    -0.126 OA
ENDBRANCH  28  29
ENDBRANCH  18  26
ENDBRANCH  17  19
ENDBRANCH  16  17
ENDBRANCH   1  16
BRANCH   5  32
ATOM     32  C   UNL     1       0.973  -8.540  -6.198  0.00  0.00    +0.157 C 
BRANCH  32  33
ATOM     33  C   UNL     1       2.274  -8.019  -6.813  0.00  0.00    +0.138 C 
ATOM     34  C   UNL     1       2.046  -7.615  -8.291  0.00  0.00    +0.035 C 
ATOM     35  C   UNL     1       3.185  -6.579  -8.492  0.00  0.00    +0.031 C 
ATOM     36  C   UNL     1       3.270  -5.911  -7.103  0.00  0.00    +0.160 C 
ATOM     37  O   UNL     1       2.690  -6.814  -6.152  0.00  0.00    -0.375 OA
ENDBRANCH  32  33
ENDBRANCH   5  32
TORSDOF 8
