REMARK  Name = ZINC38705815
REMARK  14 active torsions:
REMARK  status: ('A' for Active; 'I' for Inactive)
REMARK    1  A    between atoms: C_1  and  C_2
REMARK    2  A    between atoms: C_2  and  C_3
REMARK    3  A    between atoms: C_3  and  O_4
REMARK    4  A    between atoms: O_4  and  C_5
REMARK    5  A    between atoms: C_8  and  C_14
REMARK    6  A    between atoms: C_10  and  O_11
REMARK    7  A    between atoms: O_11  and  C_12
REMARK    8  A    between atoms: C_12  and  C_13
REMARK    9  A    between atoms: C_17  and  C_33
REMARK   10  A    between atoms: N_24  and  C_25
REMARK   11  A    between atoms: C_25  and  C_26
REMARK   12  A    between atoms: C_34  and  C_41
REMARK   13  A    between atoms: C_36  and  C_40
REMARK   14  A    between atoms: C_38  and  O_39
REMARK                            x       y       z     vdW  Elec       q    Type
REMARK                         _______ _______ _______ _____ _____    ______ ____
ROOT
ATOM      1  C   UNL     1       3.246  -4.449  -5.668  0.00  0.00    +0.142 C 
ATOM      2  C   UNL     1       4.738  -4.308  -5.542  0.00  0.00    +0.035 A 
ATOM      3  C   UNL     1       5.890  -4.581  -4.796  0.00  0.00    +0.102 A 
ATOM      4  N   UNL     1       6.912  -4.054  -5.442  0.00  0.00    -0.173 NA
ATOM      5  N   UNL     1       6.520  -3.476  -6.521  0.00  0.00    -0.272 N 
ATOM      6  H   UNL     1       7.100  -3.022  -7.152  0.00  0.00    +0.189 HD
ATOM      7  C   UNL     1       5.165  -3.597  -6.647  0.00  0.00    +0.126 A 
ATOM      8  C   UNL     1       3.997  -3.278  -7.476  0.00  0.00    +0.266 C 
ATOM      9  O   UNL     1       4.037  -2.658  -8.522  0.00  0.00    -0.268 OA
ATOM     10  N   UNL     1       2.876  -3.770  -6.916  0.00  0.00    -0.281 N 
ENDROOT
BRANCH   3  11
ATOM     11  C   UNL     1       5.950  -5.325  -3.514  0.00  0.00    +0.047 A 
ATOM     12  C   UNL     1       6.639  -4.792  -2.427  0.00  0.00    -0.037 A 
ATOM     13  C   UNL     1       6.693  -5.488  -1.237  0.00  0.00    +0.007 A 
ATOM     14  C   UNL     1       6.064  -6.715  -1.118  0.00  0.00    -0.047 A 
ATOM     15  C   UNL     1       5.377  -7.253  -2.190  0.00  0.00    +0.049 A 
ATOM     16  C   UNL     1       5.311  -6.561  -3.389  0.00  0.00    +0.127 A 
ATOM     17  C   UNL     1       6.127  -7.467   0.186  0.00  0.00    +0.044 C 
ATOM     18  C   UNL     1       7.327  -3.457  -2.552  0.00  0.00    +0.044 C 
BRANCH  16  19
ATOM     19  O   UNL     1       4.631  -7.086  -4.442  0.00  0.00    -0.506 OA
ATOM     20  H   UNL     1       5.148  -7.706  -4.974  0.00  0.00    +0.292 HD
ENDBRANCH  16  19
ENDBRANCH   3  11
BRANCH   1  24
ATOM     21  C   UNL     1       1.307  -2.577  -2.347  0.00  0.00    +0.162 A 
ATOM     22  C   UNL     1       2.007  -1.812  -3.267  0.00  0.00    +0.050 A 
ATOM     23  C   UNL     1       2.633  -2.420  -4.339  0.00  0.00    +0.009 A 
ATOM     24  C   UNL     1       2.562  -3.792  -4.497  0.00  0.00    -0.019 A 
ATOM     25  C   UNL     1       1.866  -4.561  -3.584  0.00  0.00    +0.055 A 
ATOM     26  C   UNL     1       1.241  -3.958  -2.504  0.00  0.00    +0.162 A 
BRANCH  21  27
ATOM     27  O   UNL     1       0.691  -1.981  -1.292  0.00  0.00    -0.488 OA
BRANCH  27  28
ATOM     28  C   UNL     1       0.801  -0.559  -1.195  0.00  0.00    +0.229 C 
BRANCH  28  30
ATOM     29  C   UNL     1       0.168   1.449   0.149  0.00  0.00    +0.007 C 
ATOM     30  C   UNL     1       0.051  -0.073   0.046  0.00  0.00    +0.038 C 
ENDBRANCH  28  30
ENDBRANCH  27  28
ENDBRANCH  21  27
BRANCH  26  31
ATOM     31  O   UNL     1       0.561  -4.715  -1.601  0.00  0.00    -0.489 OA
BRANCH  31  32
ATOM     32  C   UNL     1       0.535  -6.126  -1.825  0.00  0.00    +0.226 C 
ATOM     33  C   UNL     1      -0.271  -6.804  -0.715  0.00  0.00    +0.048 C 
ENDBRANCH  31  32
ENDBRANCH  26  31
ENDBRANCH   1  24
BRANCH  10  34
ATOM     34  C   UNL     1       1.520  -3.648  -7.458  0.00  0.00    +0.144 C 
BRANCH  34  35
ATOM     35  C   UNL     1       0.879  -2.391  -6.929  0.00  0.00    -0.030 A 
ATOM     36  C   UNL     1       0.161  -2.425  -5.748  0.00  0.00    +0.008 A 
ATOM     37  C   UNL     1      -0.426  -1.272  -5.263  0.00  0.00    +0.038 A 
ATOM     38  C   UNL     1      -0.296  -0.083  -5.960  0.00  0.00    +0.123 A 
ATOM     39  C   UNL     1       0.422  -0.050  -7.143  0.00  0.00    +0.038 A 
ATOM     40  C   UNL     1       1.014  -1.203  -7.624  0.00  0.00    +0.008 A 
ATOM     41  F   UNL     1      -0.871   1.044  -5.486  0.00  0.00    -0.205 F 
ENDBRANCH  34  35
ENDBRANCH  10  34
TORSDOF 10
