REMARK  Name = ZINC15957569
REMARK  5 active torsions:
REMARK  status: ('A' for Active; 'I' for Inactive)
REMARK    1  A    between atoms: C_1  and  C_2
REMARK    2  A    between atoms: C_2  and  C_3
REMARK    3  A    between atoms: C_17  and  C_20
REMARK    4  A    between atoms: C_20  and  C_21
REMARK    5  A    between atoms: N_29  and  C_32
REMARK                            x       y       z     vdW  Elec       q    Type
REMARK                         _______ _______ _______ _____ _____    ______ ____
ROOT
ATOM      1  C   UNL     1      -3.085   2.220   0.265  0.00  0.00    -0.026 A 
ATOM      2  C   UNL     1      -3.787   1.913   1.413  0.00  0.00    +0.005 A 
ATOM      3  C   UNL     1      -4.745   0.916   1.399  0.00  0.00    +0.001 A 
ATOM      4  C   UNL     1      -5.001   0.223   0.229  0.00  0.00    +0.008 A 
ATOM      5  C   UNL     1      -4.304   0.526  -0.918  0.00  0.00    +0.004 A 
ATOM      6  C   UNL     1      -3.341   1.531  -0.918  0.00  0.00    +0.042 A 
ATOM      7  N   UNL     1      -2.775   1.659  -2.188  0.00  0.00    -0.283 N 
ATOM      8  C   UNL     1      -3.308   0.792  -3.071  0.00  0.00    +0.243 C 
ATOM      9  O   UNL     1      -3.012   0.677  -4.241  0.00  0.00    -0.273 OA
ATOM     10  C   UNL     1      -4.333  -0.013  -2.320  0.00  0.00    +0.136 C 
ATOM     11  C   UNL     1      -4.020  -1.514  -2.354  0.00  0.00    +0.122 C 
ATOM     12  C   UNL     1      -4.908  -2.072  -3.501  0.00  0.00    +0.107 C 
ATOM     13  C   UNL     1      -5.652  -0.841  -4.061  0.00  0.00    +0.072 C 
ATOM     14  N   UNL     1      -5.667   0.135  -2.931  0.00  0.00    -0.295 NA
ATOM     15  C   UNL     1      -5.881  -2.977  -2.781  0.00  0.00    +0.227 C 
ATOM     16  O   UNL     1      -6.767  -3.615  -3.308  0.00  0.00    -0.275 OA
ATOM     17  N   UNL     1      -5.612  -2.965  -1.470  0.00  0.00    -0.238 N 
ATOM     18  C   UNL     1      -4.572  -2.177  -1.113  0.00  0.00    +0.228 C 
ATOM     19  O   UNL     1      -4.148  -2.021   0.012  0.00  0.00    -0.275 OA
ATOM     20  H   UNL     1      -2.080   2.298  -2.409  0.00  0.00    +0.155 HD
ATOM     21  H   UNL     1      -6.395  -0.078  -2.266  0.00  0.00    +0.124 HD
ENDROOT
BRANCH  17  22
ATOM     22  C   UNL     1      -6.379  -3.747  -0.497  0.00  0.00    +0.084 C 
ATOM     23  C   UNL     1      -6.205  -5.247  -0.814  0.00  0.00    +0.023 C 
ATOM     24  C   UNL     1      -6.536  -6.038   0.423  0.00  0.00    +0.002 C 
ATOM     25  C   UNL     1      -8.004  -6.506   0.447  0.00  0.00    +0.000 C 
ATOM     26  C   UNL     1      -8.985  -5.421  -0.036  0.00  0.00    +0.000 C 
ATOM     27  C   UNL     1      -8.643  -4.056   0.497  0.00  0.00    +0.002 C 
ATOM     28  C   UNL     1      -7.771  -3.328  -0.547  0.00  0.00    +0.023 C 
ENDBRANCH  17  22
BRANCH   1  30
ATOM     29  C   UNL     1      -2.671   4.626  -0.170  0.00  0.00    +0.009 C 
ATOM     30  C   UNL     1      -2.043   3.309   0.290  0.00  0.00    +0.033 C 
ENDBRANCH   1  30
BRANCH  13  31
ATOM     31  C   UNL     1      -4.911  -0.278  -5.275  0.00  0.00    +0.054 C 
BRANCH  31  32
ATOM     32  C   UNL     1      -5.463  -0.897  -6.533  0.00  0.00    -0.046 A 
ATOM     33  C   UNL     1      -4.915  -2.067  -7.026  0.00  0.00    +0.004 A 
ATOM     34  C   UNL     1      -5.422  -2.635  -8.180  0.00  0.00    +0.000 A 
ATOM     35  C   UNL     1      -6.476  -2.033  -8.841  0.00  0.00    +0.000 A 
ATOM     36  C   UNL     1      -7.024  -0.863  -8.348  0.00  0.00    +0.000 A 
ATOM     37  C   UNL     1      -6.520  -0.298  -7.192  0.00  0.00    +0.004 A 
ENDBRANCH  31  32
ENDBRANCH  13  31
TORSDOF 4
