REMARK  Name = ZINC22574675
REMARK  11 active torsions:
REMARK  status: ('A' for Active; 'I' for Inactive)
REMARK    1  A    between atoms: C_1  and  C_2
REMARK    2  A    between atoms: C_2  and  C_3
REMARK    3  A    between atoms: C_2  and  C_4
REMARK    4  A    between atoms: C_4  and  C_6
REMARK    5  A    between atoms: C_4  and  S_12
REMARK    6  A    between atoms: S_12  and  C_13
REMARK    7  A    between atoms: C_16  and  C_21
REMARK    8  A    between atoms: N_17  and  C_18
REMARK    9  A    between atoms: C_18  and  C_19
REMARK   10  A    between atoms: C_21  and  O_22
REMARK   11  A    between atoms: O_22  and  C_23
REMARK                            x       y       z     vdW  Elec       q    Type
REMARK                         _______ _______ _______ _____ _____    ______ ____
ROOT
ATOM      1  C   UNL     1       2.584  -4.415  -0.505  0.00  0.00    +0.193 A 
ATOM      2  N   UNL     1       1.487  -5.045  -0.151  0.00  0.00    -0.122 NA
ATOM      3  N   UNL     1       1.685  -6.314  -0.181  0.00  0.00    -0.130 NA
ATOM      4  C   UNL     1       2.910  -6.568  -0.544  0.00  0.00    +0.172 A 
ATOM      5  N   UNL     1       3.527  -5.368  -0.764  0.00  0.00    -0.299 N 
ENDROOT
BRANCH   1   6
ATOM      6  S   UNL     1       2.799  -2.670  -0.618  0.00  0.00    -0.073 S 
BRANCH   6   7
ATOM      7  C   UNL     1       1.192  -2.114   0.003  0.00  0.00    +0.143 C 
BRANCH   7   8
ATOM      8  C   UNL     1       0.117  -2.479  -0.988  0.00  0.00    +0.234 C 
ATOM      9  O   UNL     1       0.410  -2.717  -2.140  0.00  0.00    -0.274 OA
ATOM     10  N   UNL     1      -1.170  -2.542  -0.593  0.00  0.00    -0.239 N 
ATOM     11  C   UNL     1      -2.131  -2.869  -1.479  0.00  0.00    +0.303 C 
ATOM     12  O   UNL     1      -1.837  -3.108  -2.634  0.00  0.00    -0.253 OA
ATOM     13  N   UNL     1      -3.418  -2.938  -1.083  0.00  0.00    -0.313 N 
ATOM     14  H   UNL     1      -1.436  -2.326   0.452  0.00  0.00    +0.159 HD
ATOM     15  H   UNL     1      -4.202  -3.205  -1.807  0.00  0.00    +0.146 HD
ATOM     16  H   UNL     1      -3.683  -2.726  -0.037  0.00  0.00    +0.146 HD
ENDBRANCH   7   8
BRANCH   7  18
ATOM     17  C   UNL     1      -0.146  -0.124   0.705  0.00  0.00    +0.009 C 
ATOM     18  C   UNL     1       1.216  -0.596   0.192  0.00  0.00    +0.005 C 
ATOM     19  C   UNL     1       2.299  -0.225   1.208  0.00  0.00    +0.009 C 
ENDBRANCH   7  18
ENDBRANCH   6   7
ENDBRANCH   1   6
BRANCH   5  20
ATOM     20  C   UNL     1       4.912  -5.149  -1.188  0.00  0.00    +0.152 C 
BRANCH  20  21
ATOM     21  C   UNL     1       5.797  -5.036   0.026  0.00  0.00    -0.013 C 
ATOM     22  C   UNL     1       6.839  -5.820   0.152  0.00  0.00    +0.005 C 
ENDBRANCH  20  21
ENDBRANCH   5  20
BRANCH   4  23
ATOM     23  C   UNL     1       3.532  -7.933  -0.694  0.00  0.00    +0.305 C 
BRANCH  23  24
ATOM     24  O   UNL     1       4.118  -8.328   0.548  0.00  0.00    -0.481 OA
BRANCH  24  25
ATOM     25  C   UNL     1       4.726  -9.543   0.584  0.00  0.00    +0.156 A 
ATOM     26  C   UNL     1       4.753 -10.341  -0.550  0.00  0.00    +0.048 A 
ATOM     27  C   UNL     1       5.375 -11.574  -0.512  0.00  0.00    +0.004 A 
ATOM     28  C   UNL     1       5.963 -12.019   0.657  0.00  0.00    +0.003 A 
ATOM     29  C   UNL     1       5.935 -11.229   1.792  0.00  0.00    +0.042 A 
ATOM     30  C   UNL     1       5.317  -9.991   1.759  0.00  0.00    +0.165 A 
ATOM     31  F   UNL     1       5.288  -9.220   2.867  0.00  0.00    -0.202 F 
ENDBRANCH  24  25
ENDBRANCH  23  24
ENDBRANCH   4  23
TORSDOF 9
