REMARK  Name = ZINC07713238
REMARK  5 active torsions:
REMARK  status: ('A' for Active; 'I' for Inactive)
REMARK    1  A    between atoms: C_1  and  C_2
REMARK    2  A    between atoms: C_2  and  C_3
REMARK    3  A    between atoms: C_3  and  N_4
REMARK    4  A    between atoms: N_9  and  C_12
REMARK    5  A    between atoms: C_16  and  C_17
REMARK                            x       y       z     vdW  Elec       q    Type
REMARK                         _______ _______ _______ _____ _____    ______ ____
ROOT
ATOM      1  N   UNL     1      -2.847   4.910  -1.043  0.00  0.00    -0.281 N 
ATOM      2  C   UNL     1      -2.360   3.670  -0.714  0.00  0.00    +0.123 A 
ATOM      3  C   UNL     1      -3.276   2.641  -0.473  0.00  0.00    +0.126 A 
ATOM      4  C   UNL     1      -4.705   2.929  -0.581  0.00  0.00    +0.269 A 
ATOM      5  O   UNL     1      -5.534   2.060  -0.378  0.00  0.00    -0.267 OA
ATOM      6  N   UNL     1      -5.084   4.183  -0.911  0.00  0.00    -0.263 N 
ATOM      7  C   UNL     1      -4.166   5.138  -1.132  0.00  0.00    +0.333 A 
ATOM      8  O   UNL     1      -4.546   6.255  -1.426  0.00  0.00    -0.246 OA
ATOM      9  C   UNL     1      -6.509   4.504  -1.027  0.00  0.00    +0.157 C 
ATOM     10  C   UNL     1      -2.511   1.438  -0.146  0.00  0.00    +0.216 C 
ATOM     11  O   UNL     1      -2.946   0.332   0.127  0.00  0.00    -0.285 OA
ATOM     12  C   UNL     1      -1.099   1.856  -0.219  0.00  0.00    +0.081 C 
ATOM     13  C   UNL     1      -0.013   1.076   0.008  0.00  0.00    +0.035 C 
ATOM     14  N   UNL     1      -1.093   3.207  -0.559  0.00  0.00    -0.297 N 
ATOM     15  H   UNL     1      -0.293   3.743  -0.672  0.00  0.00    +0.154 HD
ENDROOT
BRANCH  13  16
ATOM     16  C   UNL     1       1.335   1.591  -0.276  0.00  0.00    -0.022 A 
ATOM     17  C   UNL     1       1.514   2.608  -1.220  0.00  0.00    +0.008 A 
ATOM     18  C   UNL     1       2.780   3.089  -1.477  0.00  0.00    +0.002 A 
ATOM     19  C   UNL     1       3.874   2.562  -0.812  0.00  0.00    +0.020 A 
ATOM     20  C   UNL     1       3.706   1.551   0.120  0.00  0.00    +0.042 A 
ATOM     21  C   UNL     1       2.445   1.062   0.393  0.00  0.00    +0.028 A 
ATOM     22 CL   UNL     1       5.085   0.897   0.947  0.00  0.00    -0.084 Cl
ENDBRANCH  13  16
BRANCH   1  23
ATOM     23  C   UNL     1      -1.909   6.006  -1.300  0.00  0.00    +0.128 C 
BRANCH  23  25
ATOM     24  C   UNL     1      -0.636   7.888  -0.261  0.00  0.00    +0.005 C 
ATOM     25  C   UNL     1      -1.616   6.744   0.008  0.00  0.00    +0.018 C 
ENDBRANCH  23  25
ENDBRANCH   1  23
TORSDOF 3
