REMARK  Name = ZINC09599031
REMARK  5 active torsions:
REMARK  status: ('A' for Active; 'I' for Inactive)
REMARK    1  A    between atoms: C_1  and  C_2
REMARK    2  A    between atoms: C_3  and  C_31
REMARK    3  A    between atoms: N_9  and  C_25
REMARK    4  A    between atoms: N_12  and  C_13
REMARK    5  A    between atoms: C_13  and  C_14
REMARK                            x       y       z     vdW  Elec       q    Type
REMARK                         _______ _______ _______ _____ _____    ______ ____
ROOT
ATOM      1  C   UNL     1      -1.050  -0.540   1.570  0.00  0.00    +0.045 C 
ATOM      2  C   UNL     1       0.143   0.157   0.968  0.00  0.00    -0.026 A 
ATOM      3  C   UNL     1       1.322  -0.473   0.843  0.00  0.00    -0.008 A 
ATOM      4  S   UNL     1       2.368   0.760   0.094  0.00  0.00    -0.075 S 
ATOM      5  C   UNL     1       1.235   2.052  -0.031  0.00  0.00    +0.097 A 
ATOM      6  C   UNL     1       0.054   1.532   0.504  0.00  0.00    +0.074 A 
ATOM      7  C   UNL     1      -1.101   2.454   0.523  0.00  0.00    +0.270 A 
ATOM      8  O   UNL     1      -2.171   2.091   0.976  0.00  0.00    -0.266 OA
ATOM      9  N   UNL     1      -0.957   3.698   0.033  0.00  0.00    -0.228 N 
ATOM     10  C   UNL     1       0.211   4.131  -0.468  0.00  0.00    +0.338 A 
ATOM     11  O   UNL     1       0.292   5.267  -0.896  0.00  0.00    -0.246 OA
ATOM     12  N   UNL     1       1.296   3.334  -0.506  0.00  0.00    -0.281 N 
ATOM     13  C   UNL     1       1.676  -1.883   1.240  0.00  0.00    +0.052 C 
ENDROOT
BRANCH   9  14
ATOM     14  C   UNL     1      -2.056   4.568   0.049  0.00  0.00    +0.054 A 
ATOM     15  C   UNL     1      -2.924   4.612  -1.034  0.00  0.00    +0.026 A 
ATOM     16  C   UNL     1      -4.009   5.467  -1.012  0.00  0.00    +0.002 A 
ATOM     17  C   UNL     1      -4.225   6.286   0.081  0.00  0.00    +0.000 A 
ATOM     18  C   UNL     1      -3.358   6.248   1.158  0.00  0.00    +0.002 A 
ATOM     19  C   UNL     1      -2.275   5.392   1.145  0.00  0.00    +0.026 A 
ENDBRANCH   9  14
BRANCH  12  20
ATOM     20  C   UNL     1       2.553   3.844  -1.060  0.00  0.00    +0.183 C 
BRANCH  20  21
ATOM     21  C   UNL     1       2.602   3.560  -2.539  0.00  0.00    +0.069 A 
ATOM     22  C   UNL     1       2.604   4.604  -3.443  0.00  0.00    +0.095 A 
ATOM     23  C   UNL     1       2.650   4.315  -4.811  0.00  0.00    +0.259 A 
ATOM     24  O   UNL     1       2.653   5.216  -5.636  0.00  0.00    -0.267 OA
ATOM     25  N   UNL     1       2.692   3.025  -5.206  0.00  0.00    -0.268 N 
ATOM     26  C   UNL     1       2.738   2.727  -6.534  0.00  0.00    +0.096 A 
ATOM     27  C   UNL     1       2.780   1.442  -6.953  0.00  0.00    +0.018 A 
ATOM     28  C   UNL     1       2.777   0.396  -6.020  0.00  0.00    +0.005 A 
ATOM     29  C   UNL     1       2.732   0.683  -4.688  0.00  0.00    +0.047 A 
ATOM     30  C   UNL     1       2.689   2.027  -4.272  0.00  0.00    +0.141 A 
ATOM     31  N   UNL     1       2.649   2.309  -2.971  0.00  0.00    -0.232 NA
ENDBRANCH  20  21
ENDBRANCH  12  20
TORSDOF 3
