REMARK  Name = ZINC60666678
REMARK  6 active torsions:
REMARK  status: ('A' for Active; 'I' for Inactive)
REMARK    1  A    between atoms: C_1  and  C_2
REMARK    2  A    between atoms: C_3  and  C_7
REMARK    3  A    between atoms: N_9  and  C_10
REMARK    4  A    between atoms: C_12  and  N_17
REMARK    5  A    between atoms: C_18  and  C_20
REMARK    6  A    between atoms: C_20  and  C_21
REMARK                            x       y       z     vdW  Elec       q    Type
REMARK                         _______ _______ _______ _____ _____    ______ ____
ROOT
ATOM      1  C   UNL     1      -4.852  -1.012   0.124  0.00  0.00    +0.071 A 
ATOM      2  C   UNL     1      -5.232   0.322   0.106  0.00  0.00    +0.049 A 
ATOM      3  C   UNL     1      -6.572   0.661   0.227  0.00  0.00    +0.035 A 
ATOM      4  C   UNL     1      -7.530  -0.336   0.365  0.00  0.00    +0.026 A 
ATOM      5  C   UNL     1      -7.150  -1.664   0.383  0.00  0.00    +0.042 A 
ATOM      6  C   UNL     1      -5.816  -2.006   0.257  0.00  0.00    +0.145 A 
ATOM      7  F   UNL     1      -5.447  -3.306   0.268  0.00  0.00    -0.204 F 
ENDROOT
BRANCH   1  10
ATOM      8  C   UNL     1      -2.552  -0.568   0.543  0.00  0.00    +0.252 C 
ATOM      9  O   UNL     1      -2.863   0.487   1.063  0.00  0.00    -0.270 OA
ATOM     10  N   UNL     1      -3.501  -1.357   0.002  0.00  0.00    -0.279 N 
ATOM     11  H   UNL     1      -3.247  -2.165  -0.472  0.00  0.00    +0.155 HD
BRANCH   8  14
ATOM     12  C   UNL     1      -0.115   1.031   1.703  0.00  0.00    +0.087 C 
ATOM     13  C   UNL     1      -0.066  -0.302   1.003  0.00  0.00    +0.114 A 
ATOM     14  C   UNL     1      -1.139  -0.982   0.505  0.00  0.00    +0.078 A 
ATOM     15  C   UNL     1      -0.589  -2.215  -0.079  0.00  0.00    +0.054 A 
ATOM     16  C   UNL     1       0.736  -2.159   0.122  0.00  0.00    +0.196 A 
ATOM     17  O   UNL     1       1.037  -1.017   0.760  0.00  0.00    -0.467 OA
ENDBRANCH   8  14
ENDBRANCH   1  10
BRANCH   3  18
ATOM     18  N   UNL     1      -6.959   2.006   0.210  0.00  0.00    -0.285 N 
ATOM     19  C   UNL     1      -8.199   2.346  -0.194  0.00  0.00    +0.223 C 
ATOM     20  O   UNL     1      -8.944   1.500  -0.642  0.00  0.00    -0.275 OA
ATOM     21  H   UNL     1      -6.334   2.694   0.490  0.00  0.00    +0.155 HD
BRANCH  19  22
ATOM     22  C   UNL     1      -8.660   3.777  -0.088  0.00  0.00    +0.150 C 
BRANCH  22  23
ATOM     23  C   UNL     1     -10.072   3.889  -0.602  0.00  0.00    +0.043 A 
ATOM     24  C   UNL     1     -10.430   4.045  -1.896  0.00  0.00    +0.114 A 
ATOM     25  N   UNL     1     -11.797   4.101  -1.933  0.00  0.00    -0.308 N 
ATOM     26  C   UNL     1     -12.687   4.248  -2.957  0.00  0.00    +0.092 A 
ATOM     27  C   UNL     1     -14.015   4.272  -2.715  0.00  0.00    +0.018 A 
ATOM     28  C   UNL     1     -14.498   4.147  -1.403  0.00  0.00    +0.005 A 
ATOM     29  C   UNL     1     -13.622   4.000  -0.373  0.00  0.00    +0.045 A 
ATOM     30  C   UNL     1     -12.239   3.976  -0.641  0.00  0.00    +0.115 A 
ATOM     31  N   UNL     1     -11.179   3.844   0.144  0.00  0.00    -0.343 N 
ATOM     32  H   UNL     1     -11.203   3.735   1.107  0.00  0.00    +0.167 HD
ENDBRANCH  22  23
ENDBRANCH  19  22
ENDBRANCH   3  18
TORSDOF 5
