REMARK  Name = ZINC52773717
REMARK  5 active torsions:
REMARK  status: ('A' for Active; 'I' for Inactive)
REMARK    1  A    between atoms: C_8  and  C_12
REMARK    2  A    between atoms: C_12  and  N_13
REMARK    3  A    between atoms: C_14  and  C_16
REMARK    4  A    between atoms: C_16  and  C_17
REMARK    5  A    between atoms: C_17  and  N_18
REMARK                            x       y       z     vdW  Elec       q    Type
REMARK                         _______ _______ _______ _____ _____    ______ ____
ROOT
ATOM      1  N   UNL     1       3.886  -4.760  -0.720  0.00  0.00    -0.315 N 
ATOM      2  C   UNL     1       4.179  -6.069  -0.586  0.00  0.00    +0.215 C 
ATOM      3  O   UNL     1       3.404  -6.808  -0.016  0.00  0.00    -0.276 OA
ATOM      4  H   UNL     1       4.506  -4.168  -1.175  0.00  0.00    +0.149 HD
ENDROOT
BRANCH   1   5
ATOM      5  C   UNL     1       2.633  -4.230  -0.177  0.00  0.00    +0.111 C 
BRANCH   5  13
ATOM      6  C   UNL     1      -0.017   1.377   0.010  0.00  0.00    +0.000 A 
ATOM      7  C   UNL     1       1.172   2.084   0.002  0.00  0.00    +0.004 A 
ATOM      8  C   UNL     1       2.375   1.409  -0.015  0.00  0.00    +0.046 A 
ATOM      9  C   UNL     1       2.398   0.018  -0.024  0.00  0.00    +0.124 A 
ATOM     10  C   UNL     1       1.207  -0.687  -0.012  0.00  0.00    -0.005 A 
ATOM     11  C   UNL     1       0.002  -0.004   0.002  0.00  0.00    +0.007 A 
ATOM     12  C   UNL     1       1.187  -2.194  -0.010  0.00  0.00    +0.047 C 
ATOM     13  C   UNL     1       2.548  -2.729  -0.463  0.00  0.00    +0.048 C 
ATOM     14  C   UNL     1       3.641  -1.990   0.320  0.00  0.00    +0.234 C 
ATOM     15  O   UNL     1       3.602  -0.610  -0.046  0.00  0.00    -0.491 OA
ENDBRANCH   5  13
ENDBRANCH   1   5
BRANCH   2  16
ATOM     16  C   UNL     1       5.468  -6.613  -1.143  0.00  0.00    +0.115 C 
BRANCH  16  17
ATOM     17  C   UNL     1       5.554  -8.114  -0.858  0.00  0.00    +0.127 C 
BRANCH  17  18
ATOM     18  N   UNL     1       6.807  -8.644  -1.400  0.00  0.00    -0.224 N 
ATOM     19  C   UNL     1       6.948  -9.127  -2.652  0.00  0.00    +0.247 C 
ATOM     20  O   UNL     1       6.094  -9.202  -3.510  0.00  0.00    -0.273 OA
ATOM     21  C   UNL     1       8.394  -9.553  -2.761  0.00  0.00    +0.113 C 
ATOM     22  C   UNL     1       8.487 -11.050  -3.037  0.00  0.00    +0.035 C 
ATOM     23  C   UNL     1       9.959 -11.466  -3.112  0.00  0.00    +0.003 C 
ATOM     24  C   UNL     1      10.653 -10.680  -4.226  0.00  0.00    +0.000 C 
ATOM     25  C   UNL     1      10.572  -9.183  -3.923  0.00  0.00    +0.003 C 
ATOM     26  C   UNL     1       9.103  -8.757  -3.851  0.00  0.00    +0.035 C 
ATOM     27  N   UNL     1       8.959  -9.236  -1.443  0.00  0.00    -0.285 N 
ATOM     28  C   UNL     1       7.957  -8.704  -0.717  0.00  0.00    +0.309 C 
ATOM     29  O   UNL     1       8.082  -8.324   0.431  0.00  0.00    -0.252 OA
ATOM     30  H   UNL     1       9.873  -9.380  -1.153  0.00  0.00    +0.151 HD
ENDBRANCH  17  18
ENDBRANCH  16  17
ENDBRANCH   2  16
TORSDOF 5
