REMARK  Name = ZINC58513859
REMARK  8 active torsions:
REMARK  status: ('A' for Active; 'I' for Inactive)
REMARK    1  A    between atoms: C_1  and  C_2
REMARK    2  A    between atoms: N_4  and  C_5
REMARK    3  A    between atoms: C_5  and  C_6
REMARK    4  A    between atoms: C_5  and  C_15
REMARK    5  A    between atoms: C_6  and  C_7
REMARK    6  A    between atoms: C_11  and  O_13
REMARK    7  A    between atoms: O_13  and  C_14
REMARK    8  A    between atoms: C_15  and  N_17
REMARK                            x       y       z     vdW  Elec       q    Type
REMARK                         _______ _______ _______ _____ _____    ______ ____
ROOT
ATOM      1  C   UNL     1      -1.136  -2.159   0.001  0.00  0.00    +0.165 C 
ENDROOT
BRANCH   1   5
ATOM      2  C   UNL     1      -0.018   1.503   0.010  0.00  0.00    +0.109 C 
ATOM      3  C   UNL     1       0.002  -0.004   0.002  0.00  0.00    +0.211 C 
ATOM      4  O   UNL     1       1.060  -0.596  -0.011  0.00  0.00    -0.276 OA
ATOM      5  N   UNL     1      -1.156  -0.694   0.009  0.00  0.00    -0.304 N 
ATOM      6  H   UNL     1      -2.002  -0.220   0.020  0.00  0.00    +0.149 HD
ENDBRANCH   1   5
BRANCH   1   7
ATOM      7  C   UNL     1      -0.431  -2.645  -1.239  0.00  0.00    +0.260 C 
ATOM      8  O   UNL     1       0.318  -1.900  -1.844  0.00  0.00    -0.272 OA
BRANCH   7   9
ATOM      9  N   UNL     1      -0.625  -3.883  -1.669  0.00  0.00    -0.144 NA
ATOM     10  C   UNL     1       0.001  -4.314  -2.769  0.00  0.00    +0.222 A 
ATOM     11  N   UNL     1       0.855  -3.602  -3.528  0.00  0.00    -0.246 N 
ATOM     12  N   UNL     1       1.280  -4.426  -4.579  0.00  0.00    -0.153 NA
ATOM     13  C   UNL     1       0.693  -5.594  -4.446  0.00  0.00    +0.160 A 
ATOM     14  N   UNL     1      -0.107  -5.556  -3.321  0.00  0.00    -0.271 N 
ATOM     15  C   UNL     1      -0.831  -6.663  -2.954  0.00  0.00    +0.096 A 
ATOM     16  C   UNL     1      -0.768  -7.795  -3.678  0.00  0.00    +0.018 A 
ATOM     17  C   UNL     1       0.043  -7.866  -4.828  0.00  0.00    +0.005 A 
ATOM     18  C   UNL     1       0.760  -6.782  -5.216  0.00  0.00    +0.048 A 
ATOM     19  H   UNL     1       1.127  -2.683  -3.375  0.00  0.00    +0.192 HD
ENDBRANCH   7   9
ENDBRANCH   1   7
BRANCH   1  20
ATOM     20  C   UNL     1      -0.396  -2.665   1.241  0.00  0.00    +0.067 C 
BRANCH  20  21
ATOM     21  C   UNL     1      -1.168  -2.284   2.478  0.00  0.00    -0.042 A 
ATOM     22  C   UNL     1      -0.920  -1.075   3.102  0.00  0.00    +0.004 A 
ATOM     23  C   UNL     1      -1.626  -0.722   4.236  0.00  0.00    +0.004 A 
ATOM     24  C   UNL     1      -2.582  -1.577   4.750  0.00  0.00    +0.045 A 
ATOM     25  C   UNL     1      -2.833  -2.791   4.126  0.00  0.00    +0.120 A 
ATOM     26  C   UNL     1      -2.127  -3.140   2.984  0.00  0.00    +0.049 A 
BRANCH  25  27
ATOM     27  O   UNL     1      -3.772  -3.634   4.630  0.00  0.00    -0.495 OA
ATOM     28  C   UNL     1      -4.464  -3.206   5.805  0.00  0.00    +0.277 C 
ENDBRANCH  25  27
ENDBRANCH  20  21
ENDBRANCH   1  20
TORSDOF 6
