REMARK  Name = ZINC34749462
REMARK  11 active torsions:
REMARK  status: ('A' for Active; 'I' for Inactive)
REMARK    1  A    between atoms: C_1  and  C_2
REMARK    2  A    between atoms: C_2  and  C_3
REMARK    3  A    between atoms: C_4  and  C_36
REMARK    4  A    between atoms: N_10  and  C_30
REMARK    5  A    between atoms: N_16  and  C_19
REMARK    6  A    between atoms: C_19  and  C_20
REMARK    7  A    between atoms: N_22  and  C_23
REMARK    8  A    between atoms: C_28  and  C_29
REMARK    9  A    between atoms: C_30  and  C_31
REMARK   10  A    between atoms: N_33  and  C_34
REMARK   11  A    between atoms: N_33  and  C_35
REMARK                            x       y       z     vdW  Elec       q    Type
REMARK                         _______ _______ _______ _____ _____    ______ ____
ROOT
ATOM      1  C   UNL     1       0.848  -0.218  -1.038  0.00  0.00    -0.023 A 
ATOM      2  C   UNL     1       0.590   1.072  -1.302  0.00  0.00    -0.007 A 
ATOM      3  S   UNL     1       2.180   1.723  -1.777  0.00  0.00    -0.073 S 
ATOM      4  C   UNL     1       3.146   0.244  -1.607  0.00  0.00    +0.117 A 
ATOM      5  C   UNL     1       2.206  -0.713  -1.180  0.00  0.00    +0.076 A 
ATOM      6  C   UNL     1       2.719  -2.029  -0.953  0.00  0.00    +0.264 A 
ATOM      7  O   UNL     1       1.979  -2.925  -0.586  0.00  0.00    -0.267 OA
ATOM      8  N   UNL     1       4.029  -2.265  -1.151  0.00  0.00    -0.271 N 
ATOM      9  C   UNL     1       4.872  -1.275  -1.561  0.00  0.00    +0.202 A 
ATOM     10  N   UNL     1       4.426  -0.057  -1.787  0.00  0.00    -0.208 NA
ATOM     11  N   UNL     1       6.203  -1.555  -1.751  0.00  0.00    -0.304 N 
ATOM     12  C   UNL     1       7.153  -1.508  -0.629  0.00  0.00    +0.089 C 
ATOM     13  C   UNL     1       8.352  -0.649  -1.044  0.00  0.00    -0.059 C 
ATOM     14  N   UNL     1       8.917  -1.170  -2.296  0.00  0.00    +0.387 N 
ATOM     15  C   UNL     1       7.938  -1.032  -3.381  0.00  0.00    -0.059 C 
ATOM     16  C   UNL     1       6.717  -1.916  -3.081  0.00  0.00    +0.089 C 
ATOM     17  C   UNL     1      -0.729   1.796  -1.218  0.00  0.00    +0.052 C 
ATOM     18  H   UNL     1       9.151  -2.144  -2.178  0.00  0.00    -0.081 HD
ENDROOT
BRANCH   1  20
ATOM     19  C   UNL     1      -0.362  -1.111   0.934  0.00  0.00    +0.009 C 
ATOM     20  C   UNL     1      -0.257  -1.141  -0.592  0.00  0.00    +0.033 C 
ENDBRANCH   1  20
BRANCH  14  21
ATOM     21  C   UNL     1      10.130  -0.415  -2.635  0.00  0.00    +0.019 C 
BRANCH  21  22
ATOM     22  C   UNL     1      10.779  -1.026  -3.850  0.00  0.00    +0.201 C 
ATOM     23  O   UNL     1      10.279  -1.995  -4.382  0.00  0.00    -0.278 OA
ATOM     24  N   UNL     1      11.914  -0.496  -4.347  0.00  0.00    -0.287 N 
ATOM     25  H   UNL     1      12.349   0.238  -3.885  0.00  0.00    +0.155 HD
BRANCH  24  26
ATOM     26  C   UNL     1      12.465  -1.004  -5.529  0.00  0.00    +0.036 A 
ATOM     27  C   UNL     1      12.370  -2.360  -5.814  0.00  0.00    +0.023 A 
ATOM     28  C   UNL     1      12.915  -2.858  -6.981  0.00  0.00    +0.002 A 
ATOM     29  C   UNL     1      13.555  -2.008  -7.865  0.00  0.00    +0.000 A 
ATOM     30  C   UNL     1      13.651  -0.658  -7.584  0.00  0.00    +0.005 A 
ATOM     31  C   UNL     1      13.102  -0.152  -6.421  0.00  0.00    -0.029 A 
ATOM     32  C   UNL     1      13.201   1.321  -6.119  0.00  0.00    +0.045 C 
ENDBRANCH  24  26
ENDBRANCH  21  22
ENDBRANCH  14  21
BRANCH   8  33
ATOM     33  C   UNL     1       4.559  -3.611  -0.920  0.00  0.00    +0.224 C 
BRANCH  33  34
ATOM     34  C   UNL     1       4.365  -4.447  -2.159  0.00  0.00    +0.235 C 
ATOM     35  O   UNL     1       3.836  -3.965  -3.138  0.00  0.00    -0.274 OA
ATOM     36  N   UNL     1       4.780  -5.729  -2.179  0.00  0.00    -0.306 N 
ATOM     37  C   UNL     1       4.591  -6.541  -3.383  0.00  0.00    +0.131 C 
ATOM     38  C   UNL     1       5.419  -6.310  -0.996  0.00  0.00    +0.131 C 
ENDBRANCH  33  34
ENDBRANCH   8  33
TORSDOF 6
