REMARK  Name = ZINC03556724
REMARK  7 active torsions:
REMARK  status: ('A' for Active; 'I' for Inactive)
REMARK    1  A    between atoms: C_1  and  O_2
REMARK    2  A    between atoms: O_2  and  C_3
REMARK    3  A    between atoms: C_5  and  C_11
REMARK    4  A    between atoms: C_7  and  O_9
REMARK    5  A    between atoms: O_9  and  C_10
REMARK    6  A    between atoms: N_13  and  N_14
REMARK    7  A    between atoms: C_15  and  C_17
REMARK                            x       y       z     vdW  Elec       q    Type
REMARK                         _______ _______ _______ _____ _____    ______ ____
ROOT
ATOM      1  C   UNL     1      -2.549  -4.148   0.015  0.00  0.00    +0.260 C 
ATOM      2  O   UNL     1      -1.522  -4.799   0.007  0.00  0.00    -0.269 OA
ATOM      3  N   UNL     1      -3.743  -4.774   0.024  0.00  0.00    -0.230 N 
ATOM      4  H   UNL     1      -4.562  -4.254   0.030  0.00  0.00    +0.173 HD
ENDROOT
BRANCH   1   7
ATOM      5  C   UNL     1      -1.200  -0.637   0.010  0.00  0.00    +0.124 A 
ATOM      6  C   UNL     1      -1.253  -2.022   0.009  0.00  0.00    +0.059 A 
ATOM      7  C   UNL     1      -2.488  -2.671   0.017  0.00  0.00    +0.045 A 
ATOM      8  C   UNL     1      -3.665  -1.922   0.027  0.00  0.00    +0.059 A 
ATOM      9  C   UNL     1      -3.603  -0.538   0.028  0.00  0.00    +0.124 A 
ATOM     10  C   UNL     1      -2.373   0.103   0.025  0.00  0.00    +0.091 A 
BRANCH   5  12
ATOM     11  C   UNL     1      -0.017   1.425   0.010  0.00  0.00    +0.277 C 
ATOM     12  O   UNL     1       0.002  -0.004   0.002  0.00  0.00    -0.495 OA
ENDBRANCH   5  12
BRANCH   9  13
ATOM     13  O   UNL     1      -4.750   0.192   0.037  0.00  0.00    -0.495 OA
ATOM     14  C   UNL     1      -4.613   1.614   0.037  0.00  0.00    +0.277 C 
ENDBRANCH   9  13
ENDBRANCH   1   7
BRANCH   3  15
ATOM     15  N   UNL     1      -3.800  -6.173   0.022  0.00  0.00    -0.230 N 
ATOM     16  C   UNL     1      -4.994  -6.799   0.030  0.00  0.00    +0.267 C 
ATOM     17  O   UNL     1      -6.022  -6.147   0.038  0.00  0.00    -0.268 OA
ATOM     18  H   UNL     1      -2.981  -6.692   0.015  0.00  0.00    +0.173 HD
BRANCH  16  19
ATOM     19  C   UNL     1      -5.055  -8.263   0.028  0.00  0.00    +0.076 A 
ATOM     20  C   UNL     1      -6.163  -9.090   0.029  0.00  0.00    +0.024 A 
ATOM     21  C   UNL     1      -5.924 -10.457   0.028  0.00  0.00    -0.036 A 
ATOM     22  C   UNL     1      -4.618 -10.850   0.025  0.00  0.00    -0.006 A 
ATOM     23  S   UNL     1      -3.718  -9.444   0.016  0.00  0.00    -0.088 S 
ATOM     24  C   UNL     1      -4.106 -12.261   0.024  0.00  0.00    +0.043 C 
ATOM     25  C   UNL     1      -5.261 -13.197   0.407  0.00  0.00    +0.005 C 
ATOM     26  C   UNL     1      -6.489 -12.832  -0.432  0.00  0.00    +0.005 C 
ATOM     27  C   UNL     1      -7.051 -11.486   0.028  0.00  0.00    +0.036 C 
ENDBRANCH  16  19
ENDBRANCH   3  15
TORSDOF 5
