REMARK  Name = ZINC19760955
REMARK  11 active torsions:
REMARK  status: ('A' for Active; 'I' for Inactive)
REMARK    1  A    between atoms: C_1  and  C_2
REMARK    2  A    between atoms: C_3  and  C_30
REMARK    3  A    between atoms: C_4  and  C_14
REMARK    4  A    between atoms: C_17  and  O_22
REMARK    5  A    between atoms: C_18  and  O_20
REMARK    6  A    between atoms: O_20  and  C_21
REMARK    7  A    between atoms: O_22  and  C_23
REMARK    8  A    between atoms: C_23  and  C_24
REMARK    9  A    between atoms: C_30  and  O_32
REMARK   10  A    between atoms: O_32  and  C_33
REMARK   11  A    between atoms: C_33  and  C_34
REMARK                            x       y       z     vdW  Elec       q    Type
REMARK                         _______ _______ _______ _____ _____    ______ ____
ROOT
ATOM      1  C   UNL     1       0.246   1.738   4.875  0.00  0.00    +0.061 C 
ATOM      2  C   UNL     1      -0.576   1.885   3.620  0.00  0.00    +0.016 C 
ATOM      3  C   UNL     1      -1.917   1.841   3.692  0.00  0.00    +0.065 C 
ATOM      4  C   UNL     1      -2.768   1.992   2.465  0.00  0.00    +0.092 C 
ATOM      5  C   UNL     1      -1.960   1.755   1.214  0.00  0.00    +0.024 C 
ATOM      6  C   UNL     1      -0.612   1.802   1.245  0.00  0.00    +0.015 C 
ATOM      7  N   UNL     1       0.048   2.062   2.417  0.00  0.00    -0.321 N 
ATOM      8  C   UNL     1       0.204   1.567  -0.002  0.00  0.00    +0.051 C 
ATOM      9  C   UNL     1      -0.586   2.031  -1.228  0.00  0.00    +0.014 C 
ATOM     10  C   UNL     1      -1.910   1.262  -1.273  0.00  0.00    +0.080 C 
ATOM     11  C   UNL     1      -2.649   1.486   0.018  0.00  0.00    +0.162 C 
ATOM     12  O   UNL     1      -3.863   1.434   0.028  0.00  0.00    -0.292 OA
ATOM     13  H   UNL     1       1.089   2.416   2.383  0.00  0.00    +0.152 HD
ENDROOT
BRANCH   4  14
ATOM     14  C   UNL     1      -3.341   3.385   2.428  0.00  0.00    -0.032 A 
ATOM     15  C   UNL     1      -2.496   4.477   2.358  0.00  0.00    +0.008 A 
ATOM     16  C   UNL     1      -3.016   5.757   2.323  0.00  0.00    +0.050 A 
ATOM     17  C   UNL     1      -4.388   5.948   2.358  0.00  0.00    +0.162 A 
ATOM     18  C   UNL     1      -5.239   4.849   2.429  0.00  0.00    +0.162 A 
ATOM     19  C   UNL     1      -4.711   3.568   2.458  0.00  0.00    +0.054 A 
BRANCH  18  20
ATOM     20  O   UNL     1      -6.586   5.031   2.463  0.00  0.00    -0.491 OA
ATOM     21  C   UNL     1      -7.398   3.858   2.535  0.00  0.00    +0.277 C 
ENDBRANCH  18  20
BRANCH  17  22
ATOM     22  O   UNL     1      -4.902   7.207   2.323  0.00  0.00    -0.484 OA
BRANCH  22  23
ATOM     23  C   UNL     1      -3.969   8.286   2.251  0.00  0.00    +0.264 C 
BRANCH  23  24
ATOM     24  C   UNL     1      -4.716   9.595   2.221  0.00  0.00    -0.010 A 
ATOM     25  C   UNL     1      -5.091  10.149   1.012  0.00  0.00    +0.007 A 
ATOM     26  C   UNL     1      -5.781  11.347   0.985  0.00  0.00    +0.000 A 
ATOM     27  C   UNL     1      -6.087  11.995   2.167  0.00  0.00    +0.000 A 
ATOM     28  C   UNL     1      -5.707  11.444   3.376  0.00  0.00    +0.000 A 
ATOM     29  C   UNL     1      -5.022  10.243   3.403  0.00  0.00    +0.007 A 
ENDBRANCH  23  24
ENDBRANCH  22  23
ENDBRANCH  17  22
ENDBRANCH   4  14
BRANCH   3  30
ATOM     30  C   UNL     1      -2.539   1.649   4.948  0.00  0.00    +0.338 C 
ATOM     31  O   UNL     1      -1.864   1.404   5.930  0.00  0.00    -0.245 OA
BRANCH  30  32
ATOM     32  O   UNL     1      -3.881   1.738   5.057  0.00  0.00    -0.459 OA
BRANCH  32  33
ATOM     33  C   UNL     1      -4.442   1.533   6.355  0.00  0.00    +0.264 C 
BRANCH  33  34
ATOM     34  C   UNL     1      -5.964   1.672   6.282  0.00  0.00    +0.156 C 
ATOM     35  C   UNL     1      -6.568   1.566   7.698  0.00  0.00    +0.037 C 
ATOM     36  C   UNL     1      -7.857   0.738   7.446  0.00  0.00    +0.031 C 
ATOM     37  C   UNL     1      -7.387  -0.198   6.303  0.00  0.00    +0.160 C 
ATOM     38  O   UNL     1      -6.511   0.607   5.497  0.00  0.00    -0.373 OA
ENDBRANCH  33  34
ENDBRANCH  32  33
ENDBRANCH  30  32
ENDBRANCH   3  30
TORSDOF 9
