REMARK  Name = ZINC39469329
REMARK  7 active torsions:
REMARK  status: ('A' for Active; 'I' for Inactive)
REMARK    1  A    between atoms: C_1  and  C_2
REMARK    2  A    between atoms: C_2  and  O_3
REMARK    3  A    between atoms: O_3  and  P_4
REMARK    4  A    between atoms: C_12  and  C_29
REMARK    5  A    between atoms: C_13  and  C_22
REMARK    6  A    between atoms: C_22  and  C_23
REMARK    7  A    between atoms: C_34  and  O_35
REMARK                            x       y       z     vdW  Elec       q    Type
REMARK                         _______ _______ _______ _____ _____    ______ ____
ROOT
ATOM      1  P   UNL     1       0.877  -2.026  -1.510  0.00  0.00    +0.394 P 
ATOM      2  O   UNL     1       1.284  -2.763  -0.293  0.00  0.00    -0.241 OA
ATOM      3  N   UNL     1      -0.510  -2.665  -2.134  0.00  0.00    -0.268 NA
ATOM      4  N   UNL     1      -0.410  -3.832  -2.862  0.00  0.00    +0.399 N 
ATOM      5  C   UNL     1      -1.760  -4.103  -3.384  0.00  0.00    -0.046 C 
ATOM      6  C   UNL     1      -1.782  -5.389  -4.198  0.00  0.00    +0.005 C 
ATOM      7  C   UNL     1      -1.373  -6.561  -3.344  0.00  0.00    -0.016 C 
ATOM      8  C   UNL     1      -0.895  -7.669  -3.934  0.00  0.00    -0.015 C 
ATOM      9  C   UNL     1      -0.794  -7.716  -5.409  0.00  0.00    -0.039 C 
ATOM     10  C   UNL     1      -0.751  -6.585  -6.103  0.00  0.00    -0.019 C 
ATOM     11  C   UNL     1      -0.805  -5.266  -5.372  0.00  0.00    +0.016 C 
ATOM     12  C   UNL     1       0.583  -4.942  -4.818  0.00  0.00    -0.003 C 
ATOM     13  C   UNL     1       0.539  -3.669  -3.965  0.00  0.00    -0.020 C 
ATOM     14  C   UNL     1       1.963  -3.424  -3.449  0.00  0.00    +0.159 C 
ATOM     15  O   UNL     1       1.994  -2.208  -2.680  0.00  0.00    -0.299 OA
ATOM     16  H   UNL     1      -1.368  -2.235  -1.992  0.00  0.00    +0.113 HD
ATOM     17  H   UNL     1      -0.108  -4.583  -2.260  0.00  0.00    -0.055 HD
ENDROOT
BRANCH   8  18
ATOM     18  C   UNL     1      -0.473  -8.832  -3.116  0.00  0.00    +0.024 A 
ATOM     19  C   UNL     1      -1.273  -9.971  -3.054  0.00  0.00    +0.012 A 
ATOM     20  C   UNL     1      -0.876 -11.050  -2.291  0.00  0.00    +0.001 A 
ATOM     21  C   UNL     1       0.315 -11.006  -1.587  0.00  0.00    +0.004 A 
ATOM     22  C   UNL     1       1.115  -9.881  -1.641  0.00  0.00    +0.046 A 
ATOM     23  C   UNL     1       0.732  -8.792  -2.408  0.00  0.00    +0.125 A 
BRANCH  23  24
ATOM     24  O   UNL     1       1.521  -7.688  -2.467  0.00  0.00    -0.506 OA
ATOM     25  H   UNL     1       1.328  -7.030  -1.786  0.00  0.00    +0.292 HD
ENDBRANCH  23  24
ENDBRANCH   8  18
BRANCH   1  26
ATOM     26  O   UNL     1       0.671  -0.465  -1.174  0.00  0.00    -0.298 OA
BRANCH  26  28
ATOM     27  C   UNL     1      -0.019   1.526   0.010  0.00  0.00    +0.035 C 
ATOM     28  C   UNL     1       0.002  -0.004   0.002  0.00  0.00    +0.168 C 
ENDBRANCH  26  28
ENDBRANCH   1  26
BRANCH   9  29
ATOM     29  C   UNL     1      -0.740  -9.043  -6.122  0.00  0.00    +0.070 C 
BRANCH  29  30
ATOM     30  C   UNL     1       0.683  -9.539  -6.154  0.00  0.00    -0.043 A 
ATOM     31  C   UNL     1       1.511  -9.195  -7.207  0.00  0.00    +0.004 A 
ATOM     32  C   UNL     1       2.816  -9.650  -7.236  0.00  0.00    +0.000 A 
ATOM     33  C   UNL     1       3.293 -10.447  -6.213  0.00  0.00    +0.000 A 
ATOM     34  C   UNL     1       2.466 -10.790  -5.160  0.00  0.00    +0.000 A 
ATOM     35  C   UNL     1       1.162 -10.332  -5.128  0.00  0.00    +0.004 A 
ENDBRANCH  29  30
ENDBRANCH   9  29
TORSDOF 6
