REMARK  Name = ZINC04586192
REMARK  2 active torsions:
REMARK  status: ('A' for Active; 'I' for Inactive)
REMARK    1  A    between atoms: C_8  and  C_10
REMARK    2  A    between atoms: C_18  and  O_21
REMARK                            x       y       z     vdW  Elec       q    Type
REMARK                         _______ _______ _______ _____ _____    ______ ____
ROOT
ATOM      1  C   UNL     1       3.797  -3.325  -0.053  0.00  0.00    +0.035 A 
ATOM      2  C   UNL     1       3.781  -4.190  -1.136  0.00  0.00    +0.104 A 
ATOM      3  C   UNL     1       4.586  -5.339  -1.114  0.00  0.00    +0.338 A 
ATOM      4  O   UNL     1       4.566  -6.095  -2.069  0.00  0.00    -0.245 OA
ATOM      5  O   UNL     1       5.378  -5.629  -0.070  0.00  0.00    -0.422 OA
ATOM      6  C   UNL     1       5.447  -4.834   1.020  0.00  0.00    +0.140 A 
ATOM      7  C   UNL     1       4.679  -3.660   1.081  0.00  0.00    +0.032 A 
ATOM      8  C   UNL     1       4.752  -2.833   2.202  0.00  0.00    +0.057 A 
ATOM      9  C   UNL     1       5.587  -3.175   3.249  0.00  0.00    +0.118 A 
ATOM     10  C   UNL     1       6.351  -4.336   3.184  0.00  0.00    +0.049 A 
ATOM     11  C   UNL     1       6.277  -5.164   2.084  0.00  0.00    +0.050 A 
ENDROOT
BRANCH   1  19
ATOM     12  C   UNL     1      -0.017   1.362   0.009  0.00  0.00    +0.001 A 
ATOM     13  C   UNL     1       1.171   2.082   0.002  0.00  0.00    +0.004 A 
ATOM     14  C   UNL     1       2.387   1.433  -0.013  0.00  0.00    +0.047 A 
ATOM     15  C   UNL     1       2.431   0.045  -0.021  0.00  0.00    +0.136 A 
ATOM     16  C   UNL     1       1.225  -0.680  -0.013  0.00  0.00    +0.021 A 
ATOM     17  C   UNL     1       0.002  -0.004   0.002  0.00  0.00    +0.011 A 
ATOM     18  C   UNL     1       1.609  -2.091  -0.025  0.00  0.00    +0.058 A 
ATOM     19  C   UNL     1       2.968  -2.110  -0.038  0.00  0.00    +0.137 A 
ATOM     20  O   UNL     1       3.442  -0.847  -0.036  0.00  0.00    -0.455 OA
ENDBRANCH   1  19
BRANCH   9  21
ATOM     21  O   UNL     1       5.663  -2.374   4.346  0.00  0.00    -0.507 OA
ATOM     22  H   UNL     1       5.027  -2.596   5.040  0.00  0.00    +0.292 HD
ENDBRANCH   9  21
TORSDOF 2
