REMARK  Name = ZINC36552832
REMARK  15 active torsions:
REMARK  status: ('A' for Active; 'I' for Inactive)
REMARK    1  A    between atoms: C_1  and  C_2
REMARK    2  A    between atoms: C_5  and  C_9
REMARK    3  A    between atoms: C_6  and  C_8
REMARK    4  A    between atoms: C_9  and  C_11
REMARK    5  A    between atoms: C_9  and  N_22
REMARK    6  A    between atoms: N_13  and  C_14
REMARK    7  A    between atoms: C_14  and  C_15
REMARK    8  A    between atoms: C_14  and  C_16
REMARK    9  A    between atoms: C_14  and  C_17
REMARK   10  A    between atoms: C_17  and  C_18
REMARK   11  A    between atoms: C_18  and  C_19
REMARK   12  A    between atoms: C_18  and  C_20
REMARK   13  A    between atoms: C_18  and  C_21
REMARK   14  A    between atoms: N_22  and  C_23
REMARK   15  A    between atoms: C_30  and  C_32
REMARK                            x       y       z     vdW  Elec       q    Type
REMARK                         _______ _______ _______ _____ _____    ______ ____
ROOT
ATOM      1  C   UNL     1       1.069  -5.021   0.561  0.00  0.00    +0.197 C 
ENDROOT
BRANCH   1   6
ATOM      2  C   UNL     1       5.134  -2.705  -2.832  0.00  0.00    +0.044 C 
ATOM      3  C   UNL     1       4.074  -3.309  -1.947  0.00  0.00    -0.050 A 
ATOM      4  C   UNL     1       4.381  -4.387  -1.137  0.00  0.00    +0.004 A 
ATOM      5  C   UNL     1       3.409  -4.941  -0.326  0.00  0.00    +0.006 A 
ATOM      6  C   UNL     1       2.129  -4.417  -0.324  0.00  0.00    -0.015 A 
ATOM      7  C   UNL     1       1.823  -3.339  -1.132  0.00  0.00    -0.045 A 
ATOM      8  C   UNL     1       2.796  -2.782  -1.941  0.00  0.00    +0.007 A 
ATOM      9  C   UNL     1       0.428  -2.768  -1.130  0.00  0.00    +0.044 C 
ENDBRANCH   1   6
BRANCH   1  10
ATOM     10  C   UNL     1       1.717  -5.630   1.777  0.00  0.00    +0.239 C 
ATOM     11  O   UNL     1       2.038  -6.800   1.772  0.00  0.00    -0.273 OA
ATOM     12  N   UNL     1       1.940  -4.875   2.871  0.00  0.00    -0.308 N 
ATOM     13  H   UNL     1       1.605  -3.966   2.909  0.00  0.00    +0.149 HD
BRANCH  12  14
ATOM     14  C   UNL     1       2.688  -5.428   4.003  0.00  0.00    +0.030 C 
ATOM     15  C   UNL     1       1.981  -6.684   4.517  0.00  0.00    +0.031 C 
ATOM     16  C   UNL     1       4.104  -5.790   3.551  0.00  0.00    +0.031 C 
BRANCH  14  17
ATOM     17  C   UNL     1       2.760  -4.389   5.124  0.00  0.00    +0.031 C 
BRANCH  17  18
ATOM     18  C   UNL     1       2.870  -2.990   4.515  0.00  0.00    -0.036 C 
ATOM     19  C   UNL     1       1.479  -2.499   4.110  0.00  0.00    +0.010 C 
ATOM     20  C   UNL     1       3.470  -2.031   5.546  0.00  0.00    +0.010 C 
ATOM     21  C   UNL     1       3.772  -3.040   3.281  0.00  0.00    +0.010 C 
ENDBRANCH  17  18
ENDBRANCH  14  17
ENDBRANCH  12  14
ENDBRANCH   1  10
BRANCH   1  22
ATOM     22  N   UNL     1       0.349  -6.059  -0.181  0.00  0.00    -0.254 N 
ATOM     23  C   UNL     1      -0.995  -6.010  -0.276  0.00  0.00    +0.241 C 
ATOM     24  O   UNL     1      -1.615  -5.165   0.333  0.00  0.00    -0.273 OA
BRANCH  22  25
ATOM     25  C   UNL     1       1.056  -7.102  -0.790  0.00  0.00    +0.039 A 
ATOM     26  C   UNL     1       0.890  -8.408  -0.346  0.00  0.00    +0.023 A 
ATOM     27  C   UNL     1       1.589  -9.435  -0.950  0.00  0.00    +0.003 A 
ATOM     28  C   UNL     1       2.454  -9.165  -1.994  0.00  0.00    +0.020 A 
ATOM     29  C   UNL     1       2.622  -7.865  -2.438  0.00  0.00    +0.043 A 
ATOM     30  C   UNL     1       1.920  -6.834  -1.843  0.00  0.00    +0.043 A 
ATOM     31 CL   UNL     1       3.710  -7.531  -3.749  0.00  0.00    -0.083 Cl
ENDBRANCH  22  25
BRANCH  23  32
ATOM     32  C   UNL     1      -1.726  -7.006  -1.138  0.00  0.00    +0.160 C 
ATOM     33  C   UNL     1      -1.782  -6.509  -2.599  0.00  0.00    +0.041 C 
ATOM     34  C   UNL     1      -3.145  -5.779  -2.632  0.00  0.00    +0.098 C 
ATOM     35  C   UNL     1      -3.943  -6.435  -1.527  0.00  0.00    +0.214 C 
ATOM     36  O   UNL     1      -5.146  -6.355  -1.398  0.00  0.00    -0.276 OA
ATOM     37  N   UNL     1      -3.124  -7.121  -0.708  0.00  0.00    -0.304 N 
ATOM     38  H   UNL     1      -3.419  -7.626   0.066  0.00  0.00    +0.149 HD
ENDBRANCH  23  32
ENDBRANCH   1  22
TORSDOF 8
