REMARK  Name = ZINC07001808
REMARK  5 active torsions:
REMARK  status: ('A' for Active; 'I' for Inactive)
REMARK    1  A    between atoms: C_4  and  O_9
REMARK    2  A    between atoms: C_5  and  C_7
REMARK    3  A    between atoms: O_9  and  C_10
REMARK    4  A    between atoms: C_13  and  N_20
REMARK    5  A    between atoms: C_14  and  C_16
REMARK                            x       y       z     vdW  Elec       q    Type
REMARK                         _______ _______ _______ _____ _____    ______ ____
ROOT
ATOM      1  C   UNL     1       1.189   1.804  -0.009  0.00  0.00    +0.129 A 
ATOM      2  C   UNL     1       1.171   3.167  -0.267  0.00  0.00    +0.048 A 
ATOM      3  C   UNL     1      -0.026   3.855  -0.260  0.00  0.00    +0.037 A 
ATOM      4  C   UNL     1      -1.208   3.186   0.003  0.00  0.00    +0.138 A 
ATOM      5  C   UNL     1      -1.194   1.827   0.254  0.00  0.00    +0.088 A 
ATOM      6  C   UNL     1       0.002   1.135   0.255  0.00  0.00    +0.061 A 
ENDROOT
BRANCH   5   7
ATOM      7  C   UNL     1      -2.484   1.099   0.534  0.00  0.00    +0.420 C 
ATOM      8  F   UNL     1      -2.216  -0.255   0.762  0.00  0.00    -0.166 F 
ATOM      9  F   UNL     1      -3.095   1.651   1.665  0.00  0.00    -0.166 F 
ATOM     10  F   UNL     1      -3.339   1.227  -0.566  0.00  0.00    -0.166 F 
ENDBRANCH   5   7
BRANCH   4  11
ATOM     11  N   UNL     1      -2.490   3.925   0.009  0.00  0.00    +0.057 N 
ATOM     12  O   UNL     1      -2.504   5.122  -0.217  0.00  0.00    -0.126 OA
ATOM     13  O   UNL     1      -3.531   3.337   0.241  0.00  0.00    -0.126 OA
ENDBRANCH   4  11
BRANCH   1  14
ATOM     14  O   UNL     1       2.366   1.125  -0.014  0.00  0.00    -0.455 OA
BRANCH  14  18
ATOM     15  C   UNL     1       3.277  -1.150  -3.343  0.00  0.00    +0.001 A 
ATOM     16  C   UNL     1       2.130  -0.374  -3.320  0.00  0.00    +0.004 A 
ATOM     17  C   UNL     1       1.821   0.382  -2.206  0.00  0.00    +0.047 A 
ATOM     18  C   UNL     1       2.666   0.378  -1.107  0.00  0.00    +0.146 A 
ATOM     19  C   UNL     1       3.828  -0.406  -1.126  0.00  0.00    +0.094 A 
ATOM     20  C   UNL     1       4.125  -1.171  -2.257  0.00  0.00    +0.022 A 
BRANCH  19  21
ATOM     21  C   UNL     1       4.704  -0.423   0.006  0.00  0.00    +0.103 C 
ATOM     22  N   UNL     1       5.400  -0.437   0.904  0.00  0.00    -0.191 NA
ENDBRANCH  19  21
ENDBRANCH  14  18
ENDBRANCH   1  14
TORSDOF 5
