REMARK  Name = ZINC12143705
REMARK  9 active torsions:
REMARK  status: ('A' for Active; 'I' for Inactive)
REMARK    1  A    between atoms: C_1  and  C_2
REMARK    2  A    between atoms: C_2  and  C_4
REMARK    3  A    between atoms: C_2  and  O_28
REMARK    4  A    between atoms: C_4  and  N_49
REMARK    5  A    between atoms: C_5  and  C_6
REMARK    6  A    between atoms: C_5  and  N_49
REMARK    7  A    between atoms: C_15  and  C_16
REMARK    8  A    between atoms: C_15  and  N_49
REMARK    9  A    between atoms: C_17  and  C_22
REMARK                            x       y       z     vdW  Elec       q    Type
REMARK                         _______ _______ _______ _____ _____    ______ ____
ROOT
ATOM      1  N   UNL     1       6.084  -0.974   0.452  0.00  0.00    +0.388 N 
ATOM      2  H   UNL     1       6.043  -0.374  -0.381  0.00  0.00    -0.081 HD
ENDROOT
BRANCH   1   3
ATOM      3  C   UNL     1       5.626  -2.332   0.089  0.00  0.00    -0.046 C 
BRANCH   3   5
ATOM      4  C   UNL     1       4.042  -3.593  -1.375  0.00  0.00    +0.035 C 
ATOM      5  C   UNL     1       4.419  -2.209  -0.843  0.00  0.00    +0.095 C 
BRANCH   5   6
ATOM      6  O   UNL     1       3.315  -1.658  -0.122  0.00  0.00    -0.394 OA
ATOM      7  H   UNL     1       3.066  -2.165   0.662  0.00  0.00    +0.210 HD
ENDBRANCH   5   6
ENDBRANCH   3   5
ENDBRANCH   1   3
BRANCH   1   8
ATOM      8  C   UNL     1       5.206  -0.406   1.496  0.00  0.00    -0.042 C 
BRANCH   8   9
ATOM      9  C   UNL     1       5.389   1.089   1.520  0.00  0.00    -0.060 A 
ATOM     10  C   UNL     1       4.688   1.885   0.633  0.00  0.00    +0.005 A 
ATOM     11  C   UNL     1       4.852   3.257   0.651  0.00  0.00    +0.050 A 
ATOM     12  C   UNL     1       5.721   3.839   1.559  0.00  0.00    +0.166 A 
ATOM     13  C   UNL     1       6.427   3.038   2.454  0.00  0.00    +0.166 A 
ATOM     14  C   UNL     1       6.257   1.664   2.430  0.00  0.00    +0.051 A 
ATOM     15  O   UNL     1       7.207   3.841   3.236  0.00  0.00    -0.453 OA
ATOM     16  C   UNL     1       6.666   5.166   3.086  0.00  0.00    +0.466 C 
ATOM     17  O   UNL     1       6.059   5.143   1.781  0.00  0.00    -0.453 OA
ENDBRANCH   8   9
ENDBRANCH   1   8
BRANCH   1  18
ATOM     18  C   UNL     1       7.479  -1.025   0.938  0.00  0.00    -0.018 C 
BRANCH  18  19
ATOM     19  C   UNL     1       8.381  -1.396  -0.210  0.00  0.00    +0.074 A 
ATOM     20  C   UNL     1       8.884  -2.674  -0.516  0.00  0.00    +0.114 A 
ATOM     21  N   UNL     1       9.620  -2.516  -1.602  0.00  0.00    -0.155 NA
ATOM     22  N   UNL     1       9.593  -1.276  -1.939  0.00  0.00    -0.196 N 
ATOM     23  H   UNL     1      10.074  -0.893  -2.728  0.00  0.00    +0.213 HD
ATOM     24  N   UNL     1       8.865  -0.593  -1.129  0.00  0.00    -0.161 NA
BRANCH  20  25
ATOM     25  C   UNL     1       8.637  -3.937   0.225  0.00  0.00    +0.004 A 
ATOM     26  C   UNL     1       8.629  -3.939   1.618  0.00  0.00    +0.010 A 
ATOM     27  C   UNL     1       8.394  -5.115   2.302  0.00  0.00    +0.001 A 
ATOM     28  C   UNL     1       8.177  -6.291   1.607  0.00  0.00    +0.000 A 
ATOM     29  C   UNL     1       8.188  -6.295   0.224  0.00  0.00    +0.001 A 
ATOM     30  C   UNL     1       8.417  -5.123  -0.470  0.00  0.00    +0.010 A 
ENDBRANCH  20  25
ENDBRANCH  18  19
ENDBRANCH   1  18
TORSDOF 8
