REMARK  Name = ZINC05145737
REMARK  7 active torsions:
REMARK  status: ('A' for Active; 'I' for Inactive)
REMARK    1  A    between atoms: C_1  and  C_2
REMARK    2  A    between atoms: C_2  and  C_4
REMARK    3  A    between atoms: C_7  and  C_10
REMARK    4  A    between atoms: N_12  and  C_13
REMARK    5  A    between atoms: C_14  and  C_22
REMARK    6  A    between atoms: C_25  and  O_27
REMARK    7  A    between atoms: O_27  and  C_28
REMARK                            x       y       z     vdW  Elec       q    Type
REMARK                         _______ _______ _______ _____ _____    ______ ____
ROOT
ATOM      1  C   UNL     1      -1.283   1.552   3.623  0.00  0.00    +0.085 A 
ATOM      2  C   UNL     1      -0.558   0.998   2.575  0.00  0.00    +0.069 A 
ATOM      3  C   UNL     1      -0.732   1.580   1.257  0.00  0.00    -0.023 A 
ATOM      4  C   UNL     1      -1.601   2.615   1.194  0.00  0.00    -0.004 A 
ATOM      5  S   UNL     1      -2.179   2.821   2.854  0.00  0.00    -0.077 S 
ATOM      6  C   UNL     1      -1.979   3.405  -0.021  0.00  0.00    +0.043 C 
ATOM      7  C   UNL     1      -0.956   3.111  -1.127  0.00  0.00    +0.005 C 
ATOM      8  C   UNL     1      -0.758   1.595  -1.227  0.00  0.00    +0.005 C 
ATOM      9  C   UNL     1      -0.013   1.086   0.008  0.00  0.00    +0.037 C 
ENDROOT
BRANCH   2  10
ATOM     10  C   UNL     1       0.350  -0.130   2.793  0.00  0.00    +0.255 C 
ATOM     11  O   UNL     1      -0.062  -1.271   2.693  0.00  0.00    -0.270 OA
ATOM     12  N   UNL     1       1.642   0.095   3.104  0.00  0.00    -0.217 N 
ATOM     13  C   UNL     1       2.478  -0.943   3.305  0.00  0.00    +0.407 C 
ATOM     14  O   UNL     1       2.067  -2.082   3.205  0.00  0.00    -0.226 OA
ATOM     15  H   UNL     1       1.970   1.004   3.184  0.00  0.00    +0.161 HD
BRANCH  13  16
ATOM     16  O   UNL     1       3.768  -0.718   3.615  0.00  0.00    -0.453 OA
ATOM     17  C   UNL     1       4.610  -1.884   3.817  0.00  0.00    +0.282 C 
ENDBRANCH  13  16
ENDBRANCH   2  10
BRANCH   1  20
ATOM     18  C   UNL     1      -2.066   1.842   5.837  0.00  0.00    +0.249 C 
ATOM     19  O   UNL     1      -2.761   2.766   5.460  0.00  0.00    -0.270 OA
ATOM     20  N   UNL     1      -1.289   1.181   4.957  0.00  0.00    -0.275 N 
ATOM     21  H   UNL     1      -0.735   0.444   5.257  0.00  0.00    +0.156 HD
BRANCH  18  25
ATOM     22  C   UNL     1      -2.085   0.699   9.935  0.00  0.00    +0.017 A 
ATOM     23  C   UNL     1      -2.884   1.762   9.501  0.00  0.00    +0.012 A 
ATOM     24  C   UNL     1      -2.877   2.131   8.174  0.00  0.00    +0.014 A 
ATOM     25  C   UNL     1      -2.072   1.445   7.263  0.00  0.00    +0.037 A 
ATOM     26  C   UNL     1      -1.278   0.381   7.694  0.00  0.00    +0.014 A 
ATOM     27  C   UNL     1      -1.280   0.013   9.021  0.00  0.00    +0.012 A 
BRANCH  22  29
ATOM     28  C   UNL     1      -1.230  -0.841  11.822  0.00  0.00    +0.091 C 
ATOM     29  C   UNL     1      -2.091   0.304  11.355  0.00  0.00    +0.160 C 
ATOM     30  O   UNL     1      -2.790   0.899  12.147  0.00  0.00    -0.292 OA
ENDBRANCH  22  29
ENDBRANCH  18  25
ENDBRANCH   1  20
TORSDOF 5
