REMARK  Name = ZINC09127841
REMARK  8 active torsions:
REMARK  status: ('A' for Active; 'I' for Inactive)
REMARK    1  A    between atoms: C_1  and  N_2
REMARK    2  A    between atoms: C_3  and  C_27
REMARK    3  A    between atoms: C_6  and  S_7
REMARK    4  A    between atoms: S_7  and  C_8
REMARK    5  A    between atoms: C_11  and  S_17
REMARK    6  A    between atoms: C_13  and  N_14
REMARK    7  A    between atoms: S_17  and  N_20
REMARK    8  A    between atoms: N_20  and  C_21
REMARK                            x       y       z     vdW  Elec       q    Type
REMARK                         _______ _______ _______ _____ _____    ______ ____
ROOT
ATOM      1  C   UNL     1       5.970   4.018   0.591  0.00  0.00    +0.046 A 
ATOM      2  C   UNL     1       4.914   3.903  -0.305  0.00  0.00    +0.019 A 
ATOM      3  C   UNL     1       4.563   2.664  -0.802  0.00  0.00    +0.030 A 
ATOM      4  C   UNL     1       5.255   1.535  -0.401  0.00  0.00    +0.111 A 
ATOM      5  C   UNL     1       6.306   1.645   0.490  0.00  0.00    +0.062 A 
ATOM      6  C   UNL     1       6.666   2.882   0.987  0.00  0.00    +0.142 A 
ENDROOT
BRANCH   6   7
ATOM      7  N   UNL     1       7.792   2.999   1.941  0.00  0.00    +0.058 N 
ATOM      8  O   UNL     1       8.402   2.003   2.288  0.00  0.00    -0.126 OA
ATOM      9  O   UNL     1       8.109   4.091   2.378  0.00  0.00    -0.126 OA
ENDBRANCH   6   7
BRANCH   4  10
ATOM     10  S   UNL     1       4.799  -0.045  -1.033  0.00  0.00    +0.072 S 
ATOM     11  O   UNL     1       5.911  -0.904  -0.819  0.00  0.00    -0.150 OA
ATOM     12  O   UNL     1       4.245   0.177  -2.322  0.00  0.00    -0.150 OA
BRANCH  10  13
ATOM     13  N   UNL     1       3.570  -0.617  -0.082  0.00  0.00    -0.216 N 
ATOM     14  H   UNL     1       2.699  -0.795  -0.470  0.00  0.00    +0.174 HD
BRANCH  13  15
ATOM     15  C   UNL     1       3.788  -0.844   1.279  0.00  0.00    +0.048 A 
ATOM     16  C   UNL     1       2.864  -0.397   2.216  0.00  0.00    +0.024 A 
ATOM     17  C   UNL     1       3.082  -0.623   3.561  0.00  0.00    +0.002 A 
ATOM     18  C   UNL     1       4.219  -1.292   3.976  0.00  0.00    +0.000 A 
ATOM     19  C   UNL     1       5.141  -1.738   3.046  0.00  0.00    +0.002 A 
ATOM     20  C   UNL     1       4.928  -1.516   1.700  0.00  0.00    +0.024 A 
ENDBRANCH  13  15
ENDBRANCH  10  13
ENDBRANCH   4  10
BRANCH   1  21
ATOM     21  S   UNL     1       6.426   5.598   1.221  0.00  0.00    -0.048 S 
BRANCH  21  27
ATOM     22  C   UNL     1       6.201   7.861   3.622  0.00  0.00    +0.153 C 
ATOM     23  N   UNL     1       5.668   6.503   3.758  0.00  0.00    -0.302 N 
ATOM     24  C   UNL     1       5.024   5.974   4.842  0.00  0.00    +0.238 A 
ATOM     25  N   UNL     1       4.718   4.742   4.548  0.00  0.00    -0.124 NA
ATOM     26  N   UNL     1       5.116   4.460   3.359  0.00  0.00    -0.122 NA
ATOM     27  C   UNL     1       5.712   5.504   2.829  0.00  0.00    +0.196 A 
BRANCH  24  28
ATOM     28  C   UNL     1       4.724   6.684   6.137  0.00  0.00    +0.452 C 
ATOM     29  F   UNL     1       4.372   5.745   7.113  0.00  0.00    -0.163 F 
ATOM     30  F   UNL     1       5.857   7.390   6.556  0.00  0.00    -0.163 F 
ATOM     31  F   UNL     1       3.663   7.576   5.944  0.00  0.00    -0.163 F 
ENDBRANCH  24  28
ENDBRANCH  21  27
ENDBRANCH   1  21
TORSDOF 7
