REMARK  Name = ZINC09935906
REMARK  11 active torsions:
REMARK  status: ('A' for Active; 'I' for Inactive)
REMARK    1  A    between atoms: C_1  and  C_2
REMARK    2  A    between atoms: C_5  and  O_36
REMARK    3  A    between atoms: C_6  and  N_8
REMARK    4  A    between atoms: C_9  and  C_11
REMARK    5  A    between atoms: C_11  and  N_12
REMARK    6  A    between atoms: C_19  and  S_23
REMARK    7  A    between atoms: C_20  and  C_22
REMARK    8  A    between atoms: S_23  and  N_26
REMARK    9  A    between atoms: C_28  and  C_35
REMARK   10  A    between atoms: C_31  and  C_34
REMARK   11  A    between atoms: O_36  and  C_37
REMARK                            x       y       z     vdW  Elec       q    Type
REMARK                         _______ _______ _______ _____ _____    ______ ____
ROOT
ATOM      1  N   UNL     1       0.479  -1.885   5.969  0.00  0.00    -0.290 N 
ATOM      2  C   UNL     1       1.678  -1.409   6.393  0.00  0.00    +0.203 A 
ATOM      3  N   UNL     1       1.758  -0.578   7.398  0.00  0.00    -0.230 NA
ATOM      4  C   UNL     1       0.666  -0.172   8.039  0.00  0.00    +0.117 A 
ATOM      5  C   UNL     1      -0.619  -0.610   7.672  0.00  0.00    +0.099 A 
ATOM      6  C   UNL     1      -0.671  -1.516   6.563  0.00  0.00    +0.264 A 
ATOM      7  O   UNL     1      -1.739  -1.949   6.167  0.00  0.00    -0.267 OA
ATOM      8  C   UNL     1      -1.703  -0.072   8.473  0.00  0.00    +0.130 A 
ATOM      9  C   UNL     1      -1.419   0.777   9.474  0.00  0.00    +0.016 A 
ATOM     10  S   UNL     1       0.357   0.914   9.408  0.00  0.00    -0.072 S 
ATOM     11  C   UNL     1      -2.373   1.452  10.425  0.00  0.00    +0.053 C 
ENDROOT
BRANCH   8  12
ATOM     12  S   UNL     1      -3.371  -0.526   8.136  0.00  0.00    +0.062 S 
ATOM     13  O   UNL     1      -3.333  -1.839   7.593  0.00  0.00    -0.153 OA
ATOM     14  O   UNL     1      -4.123  -0.204   9.298  0.00  0.00    -0.153 OA
BRANCH  12  15
ATOM     15  N   UNL     1      -3.915   0.468   6.929  0.00  0.00    -0.176 NA
ATOM     16  C   UNL     1      -4.557   1.751   7.248  0.00  0.00    +0.112 C 
ATOM     17  C   UNL     1      -3.838   2.866   6.482  0.00  0.00    +0.002 C 
ATOM     18  C   UNL     1      -3.821   2.526   4.990  0.00  0.00    +0.009 C 
ATOM     19  C   UNL     1      -3.055   1.219   4.772  0.00  0.00    +0.002 C 
ATOM     20  C   UNL     1      -3.760   0.088   5.518  0.00  0.00    +0.112 C 
ATOM     21  C   UNL     1      -3.010   0.897   3.277  0.00  0.00    +0.009 C 
ATOM     22  C   UNL     1      -4.575   4.190   6.697  0.00  0.00    +0.009 C 
ENDBRANCH  12  15
ENDBRANCH   8  12
BRANCH   1  23
ATOM     23  C   UNL     1       0.436  -2.815   4.837  0.00  0.00    +0.222 C 
BRANCH  23  25
ATOM     24  N   UNL     1       0.251  -2.688   2.374  0.00  0.00    -0.281 N 
ATOM     25  C   UNL     1       0.309  -2.037   3.553  0.00  0.00    +0.237 C 
ATOM     26  O   UNL     1       0.260  -0.825   3.580  0.00  0.00    -0.274 OA
ATOM     27  H   UNL     1       0.206  -3.656   2.357  0.00  0.00    +0.155 HD
BRANCH  24  33
ATOM     28  C   UNL     1       1.411   1.398  -0.103  0.00  0.00    +0.044 C 
ATOM     29  C   UNL     1       0.809   0.017  -0.056  0.00  0.00    -0.048 A 
ATOM     30  C   UNL     1       0.260  -0.535  -1.199  0.00  0.00    +0.007 A 
ATOM     31  C   UNL     1      -0.294  -1.801  -1.162  0.00  0.00    +0.048 A 
ATOM     32  C   UNL     1      -0.300  -2.520   0.022  0.00  0.00    +0.141 A 
ATOM     33  C   UNL     1       0.254  -1.965   1.174  0.00  0.00    +0.076 A 
ATOM     34  C   UNL     1       0.813  -0.696   1.127  0.00  0.00    +0.030 A 
BRANCH  32  35
ATOM     35  O   UNL     1      -0.845  -3.765   0.061  0.00  0.00    -0.493 OA
ATOM     36  C   UNL     1      -1.395  -4.271  -1.158  0.00  0.00    +0.277 C 
ENDBRANCH  32  35
ENDBRANCH  24  33
ENDBRANCH  23  25
ENDBRANCH   1  23
TORSDOF 6
