REMARK  Name = ZINC31783265
REMARK  7 active torsions:
REMARK  status: ('A' for Active; 'I' for Inactive)
REMARK    1  A    between atoms: C_1  and  C_2
REMARK    2  A    between atoms: N_13  and  C_16
REMARK    3  A    between atoms: C_16  and  C_18
REMARK    4  A    between atoms: C_16  and  C_19
REMARK    5  A    between atoms: N_21  and  N_22
REMARK    6  A    between atoms: C_23  and  C_24
REMARK    7  A    between atoms: C_27  and  O_30
REMARK                            x       y       z     vdW  Elec       q    Type
REMARK                         _______ _______ _______ _____ _____    ______ ____
ROOT
ATOM      1  C   UNL     1       2.328   1.026  -1.208  0.00  0.00    +0.176 C 
ATOM      2  C   UNL     1       2.594  -0.291  -0.476  0.00  0.00    +0.041 C 
ENDROOT
BRANCH   1  14
ATOM      3  C   UNL     1       8.794   5.741  -5.783  0.00  0.00    +0.008 C 
ATOM      4  C   UNL     1       7.657   5.305  -4.857  0.00  0.00    -0.009 C 
ATOM      5  C   UNL     1       7.216   3.884  -5.218  0.00  0.00    +0.008 C 
ATOM      6  C   UNL     1       5.928   3.534  -4.472  0.00  0.00    +0.037 C 
ATOM      7  C   UNL     1       6.132   3.802  -2.984  0.00  0.00    -0.023 A 
ATOM      8  C   UNL     1       7.133   4.600  -2.558  0.00  0.00    -0.004 A 
ATOM      9  S   UNL     1       6.986   4.620  -0.792  0.00  0.00    -0.073 S 
ATOM     10  C   UNL     1       5.576   3.555  -0.631  0.00  0.00    +0.116 A 
ATOM     11  C   UNL     1       5.268   3.218  -1.958  0.00  0.00    +0.076 A 
ATOM     12  C   UNL     1       4.144   2.345  -2.131  0.00  0.00    +0.263 A 
ATOM     13  O   UNL     1       3.798   1.994  -3.246  0.00  0.00    -0.267 OA
ATOM     14  N   UNL     1       3.478   1.918  -1.042  0.00  0.00    -0.287 N 
ATOM     15  C   UNL     1       3.847   2.302   0.207  0.00  0.00    +0.204 A 
ATOM     16  N   UNL     1       4.870   3.092   0.397  0.00  0.00    -0.230 NA
ATOM     17  C   UNL     1       8.146   5.313  -3.401  0.00  0.00    +0.046 C 
ENDBRANCH   1  14
BRANCH   1  18
ATOM     18  C   UNL     1       1.098   1.680  -0.635  0.00  0.00    +0.255 C 
ATOM     19  O   UNL     1       1.174   2.784  -0.136  0.00  0.00    -0.272 OA
ATOM     20  N   UNL     1      -0.087   1.040  -0.676  0.00  0.00    -0.205 N 
ATOM     21  H   UNL     1      -0.156   0.038  -1.124  0.00  0.00    +0.177 HD
BRANCH  20  22
ATOM     22  N   UNL     1      -1.232   1.651  -0.148  0.00  0.00    -0.188 NA
ATOM     23  C   UNL     1      -2.347   0.990  -0.079  0.00  0.00    +0.138 C 
BRANCH  23  24
ATOM     24  C   UNL     1      -2.332  -0.484  -0.088  0.00  0.00    -0.005 A 
ATOM     25  C   UNL     1      -1.132  -1.174   0.107  0.00  0.00    +0.013 A 
ATOM     26  C   UNL     1      -1.124  -2.552   0.103  0.00  0.00    +0.046 A 
ATOM     27  C   UNL     1      -2.303  -3.255  -0.105  0.00  0.00    +0.117 A 
ATOM     28  C   UNL     1      -3.497  -2.574  -0.303  0.00  0.00    +0.046 A 
ATOM     29  C   UNL     1      -3.516  -1.196  -0.296  0.00  0.00    +0.013 A 
BRANCH  27  30
ATOM     30  O   UNL     1      -2.289  -4.614  -0.114  0.00  0.00    -0.507 OA
ATOM     31  H   UNL     1      -3.222  -5.172  -0.278  0.00  0.00    +0.292 HD
ENDBRANCH  27  30
ENDBRANCH  23  24
ENDBRANCH  20  22
ENDBRANCH   1  18
TORSDOF 5
