REMARK  Name = ZINC04957290
REMARK  8 active torsions:
REMARK  status: ('A' for Active; 'I' for Inactive)
REMARK    1  A    between atoms: C_1  and  C_2
REMARK    2  A    between atoms: C_2  and  C_3
REMARK    3  A    between atoms: C_6  and  N_9
REMARK    4  A    between atoms: N_11  and  C_28
REMARK    5  A    between atoms: C_14  and  C_17
REMARK    6  A    between atoms: C_17  and  C_18
REMARK    7  A    between atoms: N_20  and  C_21
REMARK    8  A    between atoms: C_21  and  C_22
REMARK                            x       y       z     vdW  Elec       q    Type
REMARK                         _______ _______ _______ _____ _____    ______ ____
ROOT
ATOM      1  N   UNL     1       2.409  -0.121  -0.231  0.00  0.00    -0.226 NA
ATOM      2  C   UNL     1       1.209  -0.634  -0.373  0.00  0.00    +0.164 C 
ATOM      3  N   UNL     1       0.022   0.029  -0.604  0.00  0.00    -0.253 N 
ATOM      4  C   UNL     1      -1.132  -0.606  -0.724  0.00  0.00    +0.235 C 
ATOM      5  O   UNL     1      -2.174  -0.018  -0.922  0.00  0.00    -0.274 OA
ATOM      6  C   UNL     1      -1.069  -2.120  -0.602  0.00  0.00    +0.149 C 
ATOM      7  S   UNL     1       0.729  -2.353  -0.312  0.00  0.00    -0.077 S 
ATOM      8  C   UNL     1       0.038   1.490  -0.715  0.00  0.00    +0.140 C 
ENDROOT
BRANCH   1  12
ATOM      9  C   UNL     1       2.889   3.980   0.054  0.00  0.00    -0.047 A 
ATOM     10  C   UNL     1       2.259   3.287   1.073  0.00  0.00    +0.006 A 
ATOM     11  C   UNL     1       2.096   1.921   0.985  0.00  0.00    +0.028 A 
ATOM     12  C   UNL     1       2.567   1.236  -0.137  0.00  0.00    +0.067 A 
ATOM     13  C   UNL     1       3.206   1.940  -1.160  0.00  0.00    +0.028 A 
ATOM     14  C   UNL     1       3.358   3.307  -1.060  0.00  0.00    +0.006 A 
BRANCH   9  16
ATOM     15  C   UNL     1       4.394   5.783   0.847  0.00  0.00    +0.009 C 
ATOM     16  C   UNL     1       3.064   5.473   0.158  0.00  0.00    +0.032 C 
ENDBRANCH   9  16
ENDBRANCH   1  12
BRANCH   6  17
ATOM     17  C   UNL     1      -1.515  -2.803  -1.896  0.00  0.00    +0.119 C 
BRANCH  17  18
ATOM     18  C   UNL     1      -1.379  -4.297  -1.748  0.00  0.00    +0.215 C 
ATOM     19  O   UNL     1      -0.965  -4.768  -0.710  0.00  0.00    -0.276 OA
ATOM     20  N   UNL     1      -1.716  -5.109  -2.770  0.00  0.00    -0.311 N 
ATOM     21  H   UNL     1      -2.091  -4.681  -3.711  0.00  0.00    +0.149 HD
BRANCH  20  22
ATOM     22  C   UNL     1      -1.583  -6.561  -2.626  0.00  0.00    +0.139 C 
BRANCH  22  23
ATOM     23  C   UNL     1      -2.022  -7.234  -3.901  0.00  0.00    -0.030 A 
ATOM     24  C   UNL     1      -3.342  -7.609  -4.065  0.00  0.00    +0.005 A 
ATOM     25  C   UNL     1      -3.747  -8.222  -5.236  0.00  0.00    +0.000 A 
ATOM     26  C   UNL     1      -2.828  -8.469  -6.239  0.00  0.00    +0.000 A 
ATOM     27  C   UNL     1      -1.507  -8.099  -6.073  0.00  0.00    +0.000 A 
ATOM     28  C   UNL     1      -1.104  -7.481  -4.904  0.00  0.00    +0.005 A 
ENDBRANCH  22  23
ENDBRANCH  20  22
ENDBRANCH  17  18
ENDBRANCH   6  17
TORSDOF 6
