REMARK  Name = ZINC24469370
REMARK  4 active torsions:
REMARK  status: ('A' for Active; 'I' for Inactive)
REMARK    1  A    between atoms: C_3  and  N_8
REMARK    2  A    between atoms: C_9  and  C_23
REMARK    3  A    between atoms: C_11  and  C_13
REMARK    4  A    between atoms: N_15  and  C_16
REMARK                            x       y       z     vdW  Elec       q    Type
REMARK                         _______ _______ _______ _____ _____    ______ ____
ROOT
ATOM      1  N   UNL     1       3.584   2.127  -0.021  0.00  0.00    -0.211 N 
ATOM      2  C   UNL     1       4.755   1.772   0.588  0.00  0.00    +0.171 A 
ATOM      3  N   UNL     1       5.641   2.714   0.339  0.00  0.00    -0.202 NA
ATOM      4  C   UNL     1       5.084   3.672  -0.414  0.00  0.00    +0.238 A 
ATOM      5  N   UNL     1       3.830   3.352  -0.662  0.00  0.00    -0.139 NA
ENDROOT
BRANCH   1   8
ATOM      6  C   UNL     1      -0.017   1.378   0.010  0.00  0.00    +0.005 A 
ATOM      7  C   UNL     1       1.169   2.087   0.002  0.00  0.00    +0.028 A 
ATOM      8  C   UNL     1       2.382   1.411  -0.013  0.00  0.00    +0.071 A 
ATOM      9  C   UNL     1       2.400   0.022  -0.021  0.00  0.00    +0.066 A 
ATOM     10  C   UNL     1       1.210  -0.683  -0.013  0.00  0.00    +0.125 A 
ATOM     11  C   UNL     1       0.002  -0.004   0.002  0.00  0.00    +0.038 A 
ATOM     12  F   UNL     1       1.225  -2.034  -0.021  0.00  0.00    -0.205 F 
ENDBRANCH   1   8
BRANCH   2  13
ATOM     13  C   UNL     1       4.983   0.554   1.382  0.00  0.00    +0.056 A 
ATOM     14  C   UNL     1       6.170  -0.003   1.789  0.00  0.00    +0.019 A 
ATOM     15  C   UNL     1       6.136  -1.159   2.532  0.00  0.00    +0.008 A 
ATOM     16  C   UNL     1       4.934  -1.714   2.841  0.00  0.00    +0.046 A 
ATOM     17  S   UNL     1       3.790  -0.579   2.074  0.00  0.00    -0.094 S 
ENDBRANCH   2  13
BRANCH   4  18
ATOM     18  C   UNL     1       5.769   4.890  -0.894  0.00  0.00    +0.288 C 
ATOM     19  O   UNL     1       5.167   5.698  -1.574  0.00  0.00    -0.266 OA
ATOM     20  N   UNL     1       7.062   5.106  -0.578  0.00  0.00    -0.261 N 
ATOM     21  H   UNL     1       7.542   4.462  -0.035  0.00  0.00    +0.157 HD
BRANCH  20  22
ATOM     22  C   UNL     1       7.708   6.256  -1.031  0.00  0.00    +0.173 A 
ATOM     23  C   UNL     1       9.046   6.474  -0.700  0.00  0.00    +0.219 A 
ATOM     24  C   UNL     1       9.674   7.623  -1.159  0.00  0.00    +0.056 A 
ATOM     25  C   UNL     1       8.941   8.513  -1.931  0.00  0.00    +0.024 A 
ATOM     26  C   UNL     1       7.620   8.232  -2.219  0.00  0.00    +0.113 A 
ATOM     27  N   UNL     1       7.049   7.129  -1.775  0.00  0.00    -0.236 NA
ATOM     28  O   UNL     1       9.723   5.573   0.061  0.00  0.00    -0.284 OA
ENDBRANCH  20  22
ENDBRANCH   4  18
TORSDOF 4
