REMARK  Name = ZINC04226582
REMARK  5 active torsions:
REMARK  status: ('A' for Active; 'I' for Inactive)
REMARK    1  A    between atoms: C_1  and  C_2
REMARK    2  A    between atoms: C_4  and  N_13
REMARK    3  A    between atoms: C_9  and  C_11
REMARK    4  A    between atoms: N_13  and  C_14
REMARK    5  A    between atoms: N_13  and  C_15
REMARK                            x       y       z     vdW  Elec       q    Type
REMARK                         _______ _______ _______ _____ _____    ______ ____
ROOT
ATOM      1  C   UNL     1      -0.677   1.999  -4.825  0.00  0.00    +0.063 C 
ATOM      2  C   UNL     1      -1.121   2.244  -3.406  0.00  0.00    +0.015 A 
ATOM      3  C   UNL     1      -0.355   1.744  -2.363  0.00  0.00    +0.044 A 
ATOM      4  C   UNL     1      -0.757   1.957  -1.053  0.00  0.00    +0.041 A 
ATOM      5  C   UNL     1      -1.944   2.699  -0.836  0.00  0.00    +0.020 A 
ATOM      6  C   UNL     1      -2.411   2.962   0.458  0.00  0.00    +0.012 A 
ATOM      7  C   UNL     1      -3.557   3.680   0.641  0.00  0.00    +0.002 A 
ATOM      8  C   UNL     1      -4.279   4.161  -0.442  0.00  0.00    +0.017 A 
ATOM      9  C   UNL     1      -3.851   3.923  -1.742  0.00  0.00    +0.087 A 
ATOM     10  C   UNL     1      -2.662   3.179  -1.956  0.00  0.00    +0.063 A 
ATOM     11  N   UNL     1      -2.262   2.959  -3.252  0.00  0.00    -0.357 N 
ATOM     12  H   UNL     1      -2.794   3.314  -4.055  0.00  0.00    +0.166 HD
ENDROOT
BRANCH   9  13
ATOM     13  C   UNL     1      -4.623   4.438  -2.885  0.00  0.00    +0.389 C 
ATOM     14  O   UNL     1      -4.242   4.226  -4.020  0.00  0.00    -0.241 OA
ATOM     15  O   UNL     1      -5.751   5.144  -2.673  0.00  0.00    -0.241 OA
ENDBRANCH   9  13
BRANCH   4  16
ATOM     16  N   UNL     1      -0.018   1.465   0.010  0.00  0.00    -0.328 N 
ATOM     17  C   UNL     1       0.002  -0.004   0.002  0.00  0.00    +0.129 C 
BRANCH  16  18
ATOM     18  C   UNL     1       1.346   2.010   0.000  0.00  0.00    +0.096 C 
ATOM     19  C   UNL     1       1.284   3.543   0.097  0.00  0.00    +0.046 C 
ATOM     20  C   UNL     1       2.717   4.068   0.399  0.00  0.00    +0.168 C 
ATOM     21  S   UNL     1       3.285   2.811   1.621  0.00  0.00    -0.029 S 
ATOM     22  O   UNL     1       2.992   3.274   2.931  0.00  0.00    -0.174 OA
ATOM     23  O   UNL     1       4.613   2.419   1.298  0.00  0.00    -0.174 OA
ATOM     24  C   UNL     1       2.138   1.437   1.200  0.00  0.00    +0.188 C 
ENDBRANCH  16  18
ENDBRANCH   4  16
TORSDOF 3
