REMARK  Name = ZINC05539973
REMARK  4 active torsions:
REMARK  status: ('A' for Active; 'I' for Inactive)
REMARK    1  A    between atoms: C_1  and  C_2
REMARK    2  A    between atoms: C_5  and  C_8
REMARK    3  A    between atoms: N_9  and  N_10
REMARK    4  A    between atoms: C_11  and  C_13
REMARK                            x       y       z     vdW  Elec       q    Type
REMARK                         _______ _______ _______ _____ _____    ______ ____
ROOT
ATOM      1  C   UNL     1       0.059  -4.247  -0.021  0.00  0.00    +0.138 C 
ATOM      2  N   UNL     1       0.073  -4.903   1.100  0.00  0.00    -0.187 NA
ENDROOT
BRANCH   1   7
ATOM      3  C   UNL     1      -0.018   1.503   0.010  0.00  0.00    +0.044 C 
ATOM      4  C   UNL     1       0.002  -0.004   0.002  0.00  0.00    -0.050 A 
ATOM      5  C   UNL     1       0.006  -0.686  -1.202  0.00  0.00    +0.004 A 
ATOM      6  C   UNL     1       0.024  -2.065  -1.218  0.00  0.00    +0.010 A 
ATOM      7  C   UNL     1       0.040  -2.773  -0.013  0.00  0.00    -0.005 A 
ATOM      8  C   UNL     1       0.036  -2.078   1.199  0.00  0.00    +0.010 A 
ATOM      9  C   UNL     1       0.023  -0.699   1.198  0.00  0.00    +0.004 A 
ENDBRANCH   1   7
BRANCH   2  10
ATOM     10  N   UNL     1       0.092  -6.304   1.092  0.00  0.00    -0.199 N 
ATOM     11  C   UNL     1       0.107  -6.984   2.256  0.00  0.00    +0.318 C 
ATOM     12  O   UNL     1       0.104  -6.383   3.311  0.00  0.00    -0.263 OA
ATOM     13  H   UNL     1       0.094  -6.784   0.249  0.00  0.00    +0.178 HD
BRANCH  11  14
ATOM     14  C   UNL     1       0.126  -8.476   2.247  0.00  0.00    +0.298 C 
ATOM     15  O   UNL     1       0.129  -9.077   1.193  0.00  0.00    -0.265 OA
ATOM     16  N   UNL     1       0.141  -9.156   3.411  0.00  0.00    -0.322 N 
ATOM     17  H   UNL     1       0.139  -8.676   4.254  0.00  0.00    +0.145 HD
ATOM     18  H   UNL     1       0.154 -10.126   3.405  0.00  0.00    +0.145 HD
ENDBRANCH  11  14
ENDBRANCH   2  10
TORSDOF 3
