REMARK  Name = ZINC39372145
REMARK  9 active torsions:
REMARK  status: ('A' for Active; 'I' for Inactive)
REMARK    1  A    between atoms: C_1  and  C_2
REMARK    2  A    between atoms: C_5  and  C_8
REMARK    3  A    between atoms: C_8  and  C_10
REMARK    4  A    between atoms: C_8  and  N_16
REMARK    5  A    between atoms: N_16  and  C_17
REMARK    6  A    between atoms: C_17  and  C_18
REMARK    7  A    between atoms: C_23  and  C_24
REMARK    8  A    between atoms: C_29  and  O_34
REMARK    9  A    between atoms: O_34  and  C_35
REMARK                            x       y       z     vdW  Elec       q    Type
REMARK                         _______ _______ _______ _____ _____    ______ ____
ROOT
ATOM      1  C   UNL     1       1.074  -6.221   0.947  0.00  0.00    -0.066 C 
ENDROOT
BRANCH   1   2
ATOM      2  C   UNL     1       2.014  -6.725   2.044  0.00  0.00    +0.066 C 
ATOM      3  C   UNL     1       1.386  -6.542   3.411  0.00  0.00    +0.115 C 
ATOM      4  N   UNL     1       1.270  -7.728   3.916  0.00  0.00    -0.161 NA
ATOM      5  N   UNL     1       1.744  -8.718   3.061  0.00  0.00    -0.153 NA
ATOM      6  C   UNL     1       2.202  -8.226   1.938  0.00  0.00    +0.077 C 
BRANCH   6   7
ATOM      7  C   UNL     1       2.778  -8.970   0.809  0.00  0.00    -0.001 A 
ATOM      8  C   UNL     1       3.229  -8.274  -0.331  0.00  0.00    +0.010 A 
ATOM      9  C   UNL     1       3.764  -8.940  -1.384  0.00  0.00    +0.009 A 
ATOM     10  C   UNL     1       3.875 -10.343  -1.349  0.00  0.00    -0.014 A 
ATOM     11  C   UNL     1       4.426 -11.050  -2.429  0.00  0.00    +0.054 A 
ATOM     12  C   UNL     1       4.521 -12.422  -2.366  0.00  0.00    +0.121 A 
ATOM     13  C   UNL     1       4.075 -13.119  -1.238  0.00  0.00    +0.046 A 
ATOM     14  C   UNL     1       3.537 -12.459  -0.178  0.00  0.00    +0.012 A 
ATOM     15  C   UNL     1       3.425 -11.057  -0.209  0.00  0.00    -0.017 A 
ATOM     16  C   UNL     1       2.879 -10.353   0.874  0.00  0.00    +0.018 A 
BRANCH  12  17
ATOM     17  O   UNL     1       5.054 -13.107  -3.411  0.00  0.00    -0.495 OA
ATOM     18  C   UNL     1       5.127 -14.529  -3.286  0.00  0.00    +0.277 C 
ENDBRANCH  12  17
ENDBRANCH   6   7
ENDBRANCH   1   2
BRANCH   1  19
ATOM     19  N   UNL     1       0.962  -4.759   1.032  0.00  0.00    +0.387 N 
ATOM     20  H   UNL     1       1.874  -4.344   0.910  0.00  0.00    -0.085 HD
ATOM     21  H   UNL     1       0.593  -4.502   1.935  0.00  0.00    -0.085 HD
BRANCH  19  22
ATOM     22  C   UNL     1       0.059  -4.275  -0.021  0.00  0.00    -0.010 C 
BRANCH  22  27
ATOM     23  C   UNL     1      -0.018   1.503   0.010  0.00  0.00    +0.044 C 
ATOM     24  C   UNL     1       0.002  -0.004   0.002  0.00  0.00    -0.050 A 
ATOM     25  C   UNL     1       0.006  -0.689  -1.199  0.00  0.00    +0.003 A 
ATOM     26  C   UNL     1       0.025  -2.071  -1.206  0.00  0.00    +0.002 A 
ATOM     27  C   UNL     1       0.040  -2.768  -0.013  0.00  0.00    -0.057 A 
ATOM     28  C   UNL     1       0.037  -2.084   1.188  0.00  0.00    +0.002 A 
ATOM     29  C   UNL     1       0.023  -0.702   1.195  0.00  0.00    +0.003 A 
ENDBRANCH  22  27
BRANCH  22  30
ATOM     30  C   UNL     1      -1.332  -4.797   0.230  0.00  0.00    -0.054 A 
ATOM     31  C   UNL     1      -1.849  -4.847   1.515  0.00  0.00    +0.022 A 
ATOM     32  C   UNL     1      -3.129  -5.332   1.708  0.00  0.00    +0.111 A 
ATOM     33  N   UNL     1      -3.855  -5.744   0.687  0.00  0.00    -0.263 NA
ATOM     34  C   UNL     1      -3.395  -5.711  -0.549  0.00  0.00    +0.111 A 
ATOM     35  C   UNL     1      -2.127  -5.233  -0.819  0.00  0.00    +0.022 A 
ENDBRANCH  22  30
ENDBRANCH  19  22
ENDBRANCH   1  19
TORSDOF 7
