REMARK  Name = ZINC40124015
REMARK  9 active torsions:
REMARK  status: ('A' for Active; 'I' for Inactive)
REMARK    1  A    between atoms: C_1  and  C_2
REMARK    2  A    between atoms: C_2  and  C_3
REMARK    3  A    between atoms: C_3  and  C_4
REMARK    4  A    between atoms: C_4  and  O_5
REMARK    5  A    between atoms: O_5  and  C_6
REMARK    6  A    between atoms: C_9  and  C_13
REMARK    7  A    between atoms: C_11  and  C_12
REMARK    8  A    between atoms: C_13  and  C_15
REMARK    9  A    between atoms: C_20  and  C_22
REMARK                            x       y       z     vdW  Elec       q    Type
REMARK                         _______ _______ _______ _____ _____    ______ ____
ROOT
ATOM      1  C   UNL     1       1.236  -8.974   2.041  0.00  0.00    +0.076 C 
ATOM      2  C   UNL     1       1.810  -9.958   1.310  0.00  0.00    +0.249 C 
ATOM      3  C   UNL     1       0.778 -10.611   0.479  0.00  0.00    +0.285 C 
ATOM      4  O   UNL     1       0.979 -11.533  -0.287  0.00  0.00    -0.267 OA
ATOM      5  N   UNL     1      -0.418 -10.035   0.696  0.00  0.00    -0.298 N 
ATOM      6  C   UNL     1      -0.233  -8.972   1.691  0.00  0.00    +0.142 C 
ATOM      7  O   UNL     1       3.122 -10.291   1.337  0.00  0.00    -0.282 OA
ATOM      8  H   UNL     1      -1.256 -10.281   0.273  0.00  0.00    +0.150 HD
ENDROOT
BRANCH   6   9
ATOM      9  C   UNL     1      -1.058  -9.259   2.920  0.00  0.00    -0.021 A 
ATOM     10  C   UNL     1      -1.113 -10.542   3.431  0.00  0.00    +0.007 A 
ATOM     11  C   UNL     1      -1.870 -10.806   4.557  0.00  0.00    +0.022 A 
ATOM     12  C   UNL     1      -2.572  -9.786   5.174  0.00  0.00    +0.059 A 
ATOM     13  C   UNL     1      -2.517  -8.501   4.662  0.00  0.00    +0.060 A 
ATOM     14  C   UNL     1      -1.755  -8.237   3.537  0.00  0.00    +0.027 A 
ATOM     15 CL   UNL     1      -3.398  -7.220   5.433  0.00  0.00    -0.082 Cl
ATOM     16 CL   UNL     1      -3.523 -10.117   6.588  0.00  0.00    -0.082 Cl
ENDBRANCH   6   9
BRANCH   1  17
ATOM     17  C   UNL     1       1.910  -8.085   2.993  0.00  0.00    +0.195 C 
ATOM     18  O   UNL     1       2.390  -8.539   4.015  0.00  0.00    -0.287 OA
BRANCH  17  22
ATOM     19  C   UNL     1       2.186  -3.925   2.183  0.00  0.00    +0.123 A 
ATOM     20  C   UNL     1       1.615  -4.778   1.245  0.00  0.00    +0.046 A 
ATOM     21  C   UNL     1       1.524  -6.127   1.503  0.00  0.00    +0.015 A 
ATOM     22  C   UNL     1       2.006  -6.639   2.711  0.00  0.00    +0.023 A 
ATOM     23  C   UNL     1       2.580  -5.779   3.652  0.00  0.00    +0.018 A 
ATOM     24  C   UNL     1       2.672  -4.431   3.383  0.00  0.00    -0.008 A 
ATOM     25  C   UNL     1       3.296  -3.504   4.394  0.00  0.00    +0.047 C 
BRANCH  19  26
ATOM     26  O   UNL     1       2.275  -2.596   1.925  0.00  0.00    -0.492 OA
BRANCH  26  27
ATOM     27  C   UNL     1       1.756  -2.143   0.673  0.00  0.00    +0.229 C 
BRANCH  27  28
ATOM     28  C   UNL     1       1.943  -0.628   0.561  0.00  0.00    +0.041 C 
BRANCH  28  30
ATOM     29  C   UNL     1       1.575   1.371  -0.891  0.00  0.00    +0.004 C 
ATOM     30  C   UNL     1       1.387  -0.143  -0.779  0.00  0.00    -0.000 C 
ENDBRANCH  28  30
ENDBRANCH  27  28
ENDBRANCH  26  27
ENDBRANCH  19  26
ENDBRANCH  17  22
ENDBRANCH   1  17
TORSDOF 7
