REMARK  Name = ZINC58865516
REMARK  10 active torsions:
REMARK  status: ('A' for Active; 'I' for Inactive)
REMARK    1  A    between atoms: C_1  and  C_2
REMARK    2  A    between atoms: C_2  and  C_4
REMARK    3  A    between atoms: C_2  and  N_13
REMARK    4  A    between atoms: N_16  and  C_17
REMARK    5  A    between atoms: C_20  and  S_23
REMARK    6  A    between atoms: S_23  and  N_26
REMARK    7  A    between atoms: N_26  and  C_27
REMARK    8  A    between atoms: N_26  and  C_28
REMARK    9  A    between atoms: C_28  and  C_29
REMARK   10  A    between atoms: C_28  and  C_30
REMARK                            x       y       z     vdW  Elec       q    Type
REMARK                         _______ _______ _______ _____ _____    ______ ____
ROOT
ATOM      1  N   UNL     1       2.634  -0.620  -2.335  0.00  0.00    -0.290 N 
ATOM      2  C   UNL     1       1.951  -0.744  -3.490  0.00  0.00    +0.304 C 
ATOM      3  O   UNL     1       2.520  -0.586  -4.553  0.00  0.00    -0.252 OA
ATOM      4  N   UNL     1       0.637  -1.043  -3.467  0.00  0.00    -0.269 N 
ATOM      5  H   UNL     1       2.180  -0.746  -1.487  0.00  0.00    +0.151 HD
ATOM      6  H   UNL     1       0.198  -1.234  -2.624  0.00  0.00    +0.156 HD
ENDROOT
BRANCH   4   7
ATOM      7  C   UNL     1      -0.094  -1.077  -4.660  0.00  0.00    +0.035 A 
ATOM      8  C   UNL     1      -1.417  -0.656  -4.678  0.00  0.00    +0.025 A 
ATOM      9  C   UNL     1      -2.136  -0.690  -5.857  0.00  0.00    +0.030 A 
ATOM     10  C   UNL     1      -1.539  -1.142  -7.019  0.00  0.00    +0.106 A 
ATOM     11  C   UNL     1      -0.221  -1.562  -7.005  0.00  0.00    +0.030 A 
ATOM     12  C   UNL     1       0.504  -1.525  -5.830  0.00  0.00    +0.025 A 
BRANCH  10  13
ATOM     13  S   UNL     1      -2.459  -1.184  -8.521  0.00  0.00    +0.061 S 
ATOM     14  O   UNL     1      -1.841  -2.160  -9.349  0.00  0.00    -0.153 OA
ATOM     15  O   UNL     1      -3.830  -1.254  -8.156  0.00  0.00    -0.153 OA
BRANCH  13  16
ATOM     16  N   UNL     1      -2.242   0.277  -9.269  0.00  0.00    -0.177 NA
ATOM     17  C   UNL     1      -1.133   0.462 -10.208  0.00  0.00    +0.132 C 
BRANCH  16  18
ATOM     18  C   UNL     1      -3.159   1.385  -8.992  0.00  0.00    +0.073 C 
ATOM     19  C   UNL     1      -2.376   2.563  -8.410  0.00  0.00    +0.025 C 
ATOM     20  C   UNL     1      -3.842   1.819 -10.291  0.00  0.00    +0.025 C 
ENDBRANCH  16  18
ENDBRANCH  13  16
ENDBRANCH  10  13
ENDBRANCH   4   7
BRANCH   1  22
ATOM     21  C   UNL     1       4.875  -1.580  -2.532  0.00  0.00    +0.036 C 
ATOM     22  C   UNL     1       4.062  -0.295  -2.360  0.00  0.00    +0.137 C 
BRANCH  22  23
ATOM     23  C   UNL     1       4.448   0.374  -1.066  0.00  0.00    +0.126 A 
ATOM     24  C   UNL     1       5.286   1.414  -0.960  0.00  0.00    +0.055 A 
ATOM     25  C   UNL     1       5.366   1.731   0.471  0.00  0.00    +0.020 A 
ATOM     26  C   UNL     1       6.053   2.684   1.221  0.00  0.00    +0.011 A 
ATOM     27  C   UNL     1       5.905   2.712   2.580  0.00  0.00    +0.001 A 
ATOM     28  C   UNL     1       5.078   1.797   3.216  0.00  0.00    +0.004 A 
ATOM     29  C   UNL     1       4.391   0.847   2.490  0.00  0.00    +0.047 A 
ATOM     30  C   UNL     1       4.527   0.802   1.108  0.00  0.00    +0.135 A 
ATOM     31  O   UNL     1       3.997   0.017   0.149  0.00  0.00    -0.458 OA
ENDBRANCH  22  23
ENDBRANCH   1  22
TORSDOF 6
