REMARK  Name = ZINC15830515
REMARK  6 active torsions:
REMARK  status: ('A' for Active; 'I' for Inactive)
REMARK    1  A    between atoms: C_1  and  C_2
REMARK    2  A    between atoms: N_4  and  C_5
REMARK    3  A    between atoms: C_7  and  C_23
REMARK    4  A    between atoms: C_15  and  C_17
REMARK    5  A    between atoms: C_26  and  O_29
REMARK    6  A    between atoms: O_29  and  C_30
REMARK                            x       y       z     vdW  Elec       q    Type
REMARK                         _______ _______ _______ _____ _____    ______ ____
ROOT
ATOM      1  C   UNL     1       2.082  -2.695   1.146  0.00  0.00    +0.126 C 
ATOM      2  C   UNL     1       2.117  -3.790   0.074  0.00  0.00    +0.126 C 
ATOM      3  N   UNL     1       2.413  -3.163  -1.229  0.00  0.00    -0.305 N 
ATOM      4  C   UNL     1       1.735  -1.984  -1.511  0.00  0.00    +0.215 A 
ATOM      5  N   UNL     1       1.618  -1.340  -2.641  0.00  0.00    -0.202 NA
ATOM      6  C   UNL     1       0.871  -0.246  -2.456  0.00  0.00    +0.247 A 
ATOM      7  N   UNL     1       0.504  -0.183  -1.200  0.00  0.00    -0.156 NA
ATOM      8  N   UNL     1       1.050  -1.296  -0.564  0.00  0.00    -0.224 N 
ATOM      9  C   UNL     1       0.953  -1.703   0.838  0.00  0.00    +0.163 C 
ATOM     10  H   UNL     1       3.044  -3.553  -1.854  0.00  0.00    +0.150 HD
ENDROOT
BRANCH   9  11
ATOM     11  C   UNL     1       1.088  -0.493   1.725  0.00  0.00    -0.021 A 
ATOM     12  C   UNL     1       0.170  -0.270   2.734  0.00  0.00    +0.006 A 
ATOM     13  C   UNL     1       0.293   0.840   3.548  0.00  0.00    +0.000 A 
ATOM     14  C   UNL     1       1.334   1.728   3.353  0.00  0.00    +0.000 A 
ATOM     15  C   UNL     1       2.253   1.505   2.344  0.00  0.00    +0.000 A 
ATOM     16  C   UNL     1       2.129   0.395   1.530  0.00  0.00    +0.006 A 
ENDBRANCH   9  11
BRANCH   2  17
ATOM     17  C   UNL     1       3.188  -4.794   0.411  0.00  0.00    -0.025 A 
ATOM     18  C   UNL     1       4.510  -4.519   0.115  0.00  0.00    +0.009 A 
ATOM     19  C   UNL     1       5.495  -5.436   0.428  0.00  0.00    +0.046 A 
ATOM     20  C   UNL     1       5.155  -6.638   1.030  0.00  0.00    +0.120 A 
ATOM     21  C   UNL     1       3.827  -6.915   1.321  0.00  0.00    +0.046 A 
ATOM     22  C   UNL     1       2.847  -5.992   1.011  0.00  0.00    +0.009 A 
BRANCH  20  23
ATOM     23  O   UNL     1       6.121  -7.544   1.335  0.00  0.00    -0.495 OA
ATOM     24  C   UNL     1       7.467  -7.192   1.006  0.00  0.00    +0.277 C 
ENDBRANCH  20  23
ENDBRANCH   2  17
BRANCH   1  28
ATOM     25  C   UNL     1       5.423  -1.224   2.299  0.00  0.00    +0.109 C 
ATOM     26  C   UNL     1       4.104  -1.953   2.285  0.00  0.00    +0.210 C 
ATOM     27  O   UNL     1       3.709  -2.510   3.287  0.00  0.00    -0.276 OA
ATOM     28  N   UNL     1       3.364  -1.986   1.159  0.00  0.00    -0.308 N 
ATOM     29  H   UNL     1       3.679  -1.540   0.358  0.00  0.00    +0.149 HD
ENDBRANCH   1  28
TORSDOF 4
