REMARK  Name = ZINC50037789
REMARK  4 active torsions:
REMARK  status: ('A' for Active; 'I' for Inactive)
REMARK    1  A    between atoms: C_2  and  C_12
REMARK    2  A    between atoms: C_3  and  N_9
REMARK    3  A    between atoms: N_14  and  C_15
REMARK    4  A    between atoms: C_15  and  C_20
REMARK                            x       y       z     vdW  Elec       q    Type
REMARK                         _______ _______ _______ _____ _____    ______ ____
ROOT
ATOM      1  C   UNL     1      -0.032   1.346   0.045  0.00  0.00    +0.056 A 
ATOM      2  C   UNL     1       1.146   2.055   0.288  0.00  0.00    +0.070 A 
ATOM      3  C   UNL     1       2.376   1.397   0.236  0.00  0.00    +0.141 A 
ATOM      4  C   UNL     1       2.423   0.049  -0.055  0.00  0.00    +0.074 A 
ATOM      5  C   UNL     1       1.252  -0.651  -0.296  0.00  0.00    +0.161 A 
ATOM      6  C   UNL     1       0.025  -0.002  -0.245  0.00  0.00    +0.159 A 
ATOM      7  F   UNL     1      -1.113  -0.691  -0.480  0.00  0.00    -0.202 F 
ATOM      8  F   UNL     1       1.304  -1.971  -0.581  0.00  0.00    -0.202 F 
ENDROOT
BRANCH   2   9
ATOM      9  C   UNL     1       1.091   3.499   0.599  0.00  0.00    +0.248 C 
ATOM     10  O   UNL     1       2.120   4.140   0.690  0.00  0.00    -0.270 OA
ATOM     11  N   UNL     1      -0.099   4.104   0.780  0.00  0.00    -0.293 N 
ATOM     12  H   UNL     1      -0.920   3.592   0.707  0.00  0.00    +0.151 HD
BRANCH  11  13
ATOM     13  C   UNL     1      -0.153   5.535   1.089  0.00  0.00    +0.131 C 
ATOM     14  C   UNL     1      -1.604   5.920   1.375  0.00  0.00    +0.052 C 
ATOM     15  C   UNL     1      -1.847   7.412   1.013  0.00  0.00    +0.072 C 
ATOM     16  S   UNL     1      -0.849   7.520  -0.537  0.00  0.00    -0.157 S 
ATOM     17  C   UNL     1       0.470   6.317  -0.085  0.00  0.00    +0.110 C 
BRANCH  13  18
ATOM     18  C   UNL     1       0.645   5.786   2.300  0.00  0.00    +0.089 C 
ATOM     19  N   UNL     1       1.261   5.980   3.234  0.00  0.00    -0.194 NA
ENDBRANCH  13  18
ENDBRANCH  11  13
ENDBRANCH   2   9
BRANCH   3  20
ATOM     20  N   UNL     1       3.628   2.143   0.492  0.00  0.00    +0.057 N 
ATOM     21  O   UNL     1       4.545   2.072  -0.292  0.00  0.00    -0.126 OA
ATOM     22  O   UNL     1       3.733   2.824   1.485  0.00  0.00    -0.126 OA
ENDBRANCH   3  20
TORSDOF 4
