REMARK  Name = ZINC36548396
REMARK  7 active torsions:
REMARK  status: ('A' for Active; 'I' for Inactive)
REMARK    1  A    between atoms: C_1  and  N_2
REMARK    2  A    between atoms: C_4  and  C_27
REMARK    3  A    between atoms: C_6  and  C_20
REMARK    4  A    between atoms: C_11  and  O_18
REMARK    5  A    between atoms: O_18  and  C_19
REMARK    6  A    between atoms: C_20  and  C_22
REMARK    7  A    between atoms: C_31  and  N_33
REMARK                            x       y       z     vdW  Elec       q    Type
REMARK                         _______ _______ _______ _____ _____    ______ ____
ROOT
ATOM      1  C   UNL     1       0.064   1.532   0.169  0.00  0.00    +0.106 C 
ATOM      2  N   UNL     1       0.029   0.064   0.126  0.00  0.00    -0.287 NA
ATOM      3  C   UNL     1       0.692  -0.448  -1.103  0.00  0.00    +0.094 C 
ATOM      4  C   UNL     1       1.050  -1.910  -0.733  0.00  0.00    +0.046 C 
ATOM      5  C   UNL     1       1.449  -1.802   0.759  0.00  0.00    +0.106 C 
ATOM      6  C   UNL     1       0.779  -0.514   1.252  0.00  0.00    +0.136 C 
ATOM      7  C   UNL     1       1.800   0.456   1.783  0.00  0.00    +0.007 A 
ATOM      8  C   UNL     1       2.884   1.089   1.216  0.00  0.00    +0.053 A 
ATOM      9  C   UNL     1       3.659   1.951   1.979  0.00  0.00    +0.121 A 
ATOM     10  C   UNL     1       3.337   2.171   3.310  0.00  0.00    +0.047 A 
ATOM     11  C   UNL     1       2.251   1.538   3.876  0.00  0.00    +0.027 A 
ATOM     12  C   UNL     1       1.468   0.672   3.116  0.00  0.00    +0.039 A 
ATOM     13  N   UNL     1       0.336  -0.073   3.458  0.00  0.00    -0.283 N 
ATOM     14  C   UNL     1      -0.130  -0.794   2.421  0.00  0.00    +0.243 C 
ATOM     15  O   UNL     1      -1.095  -1.528   2.427  0.00  0.00    -0.273 OA
ATOM     16  H   UNL     1      -0.068  -0.071   4.340  0.00  0.00    +0.155 HD
ENDROOT
BRANCH   4  17
ATOM     17  C   UNL     1       2.207  -2.402  -1.563  0.00  0.00    -0.040 A 
ATOM     18  C   UNL     1       3.420  -1.739  -1.521  0.00  0.00    +0.004 A 
ATOM     19  C   UNL     1       4.481  -2.191  -2.283  0.00  0.00    +0.002 A 
ATOM     20  C   UNL     1       4.330  -3.305  -3.087  0.00  0.00    +0.033 A 
ATOM     21  C   UNL     1       3.118  -3.969  -3.128  0.00  0.00    +0.126 A 
ATOM     22  C   UNL     1       2.058  -3.520  -2.363  0.00  0.00    +0.036 A 
BRANCH  21  23
ATOM     23  N   UNL     1       2.957  -5.162  -3.989  0.00  0.00    +0.056 N 
ATOM     24  O   UNL     1       3.885  -5.556  -4.656  0.00  0.00    -0.126 OA
ATOM     25  O   UNL     1       1.897  -5.742  -4.025  0.00  0.00    -0.126 OA
ENDBRANCH  21  23
ENDBRANCH   4  17
BRANCH   9  26
ATOM     26  O   UNL     1       4.730   2.578   1.423  0.00  0.00    -0.495 OA
ATOM     27  C   UNL     1       5.482   3.451   2.269  0.00  0.00    +0.277 C 
ENDBRANCH   9  26
BRANCH   5  28
ATOM     28  C   UNL     1       0.932  -2.992   1.527  0.00  0.00    +0.204 C 
ATOM     29  O   UNL     1      -0.046  -3.592   1.132  0.00  0.00    -0.288 OA
BRANCH  28  30
ATOM     30  C   UNL     1       1.588  -3.409   2.708  0.00  0.00    +0.170 A 
ATOM     31  C   UNL     1       1.229  -4.479   3.503  0.00  0.00    +0.053 A 
ATOM     32  C   UNL     1       2.151  -4.519   4.557  0.00  0.00    +0.042 A 
ATOM     33  C   UNL     1       3.017  -3.497   4.371  0.00  0.00    +0.196 A 
ATOM     34  O   UNL     1       2.680  -2.836   3.257  0.00  0.00    -0.460 OA
ENDBRANCH  28  30
ENDBRANCH   5  28
TORSDOF 5
