REMARK  Name = ZINC35887922
REMARK  12 active torsions:
REMARK  status: ('A' for Active; 'I' for Inactive)
REMARK    1  A    between atoms: C_1  and  C_2
REMARK    2  A    between atoms: C_2  and  C_3
REMARK    3  A    between atoms: C_2  and  N_4
REMARK    4  A    between atoms: N_4  and  C_5
REMARK    5  A    between atoms: C_5  and  C_6
REMARK    6  A    between atoms: N_9  and  C_20
REMARK    7  A    between atoms: C_11  and  C_13
REMARK    8  A    between atoms: C_20  and  C_21
REMARK    9  A    between atoms: C_24  and  O_29
REMARK   10  A    between atoms: C_25  and  O_27
REMARK   11  A    between atoms: O_27  and  C_28
REMARK   12  A    between atoms: C_30  and  C_32
REMARK                            x       y       z     vdW  Elec       q    Type
REMARK                         _______ _______ _______ _____ _____    ______ ____
ROOT
ATOM      1  C   UNL     1      -2.256  -1.909   1.688  0.00  0.00    -0.005 C 
ATOM      2  C   UNL     1      -1.157  -2.990   1.779  0.00  0.00    -0.073 C 
ATOM      3  N   UNL     1      -1.770  -4.080   2.581  0.00  0.00    +0.383 N 
ATOM      4  C   UNL     1      -3.174  -4.142   2.099  0.00  0.00    -0.070 C 
ATOM      5  C   UNL     1      -3.584  -2.665   1.900  0.00  0.00    +0.005 C 
ATOM      6  H   UNL     1      -1.744  -3.853   3.563  0.00  0.00    -0.081 HD
ENDROOT
BRANCH   5   7
ATOM      7  C   UNL     1      -4.465  -2.525   0.686  0.00  0.00    -0.046 A 
ATOM      8  C   UNL     1      -5.516  -1.626   0.695  0.00  0.00    +0.006 A 
ATOM      9  C   UNL     1      -6.325  -1.496  -0.418  0.00  0.00    +0.038 A 
ATOM     10  C   UNL     1      -6.083  -2.266  -1.542  0.00  0.00    +0.123 A 
ATOM     11  C   UNL     1      -5.031  -3.166  -1.551  0.00  0.00    +0.038 A 
ATOM     12  C   UNL     1      -4.220  -3.290  -0.439  0.00  0.00    +0.006 A 
ATOM     13  F   UNL     1      -6.873  -2.140  -2.631  0.00  0.00    -0.205 F 
ENDBRANCH   5   7
BRANCH   1  14
ATOM     14  C   UNL     1      -2.236  -1.246   0.309  0.00  0.00    +0.110 C 
BRANCH  14  15
ATOM     15  N   UNL     1      -1.086  -0.343   0.218  0.00  0.00    -0.295 N 
ATOM     16  C   UNL     1      -1.211   0.947   0.588  0.00  0.00    +0.247 C 
ATOM     17  O   UNL     1      -2.248   1.544   0.372  0.00  0.00    -0.270 OA
BRANCH  16  18
ATOM     18  C   UNL     1      -0.087   1.636   1.256  0.00  0.00    +0.037 A 
ATOM     19  C   UNL     1       1.228   1.246   0.995  0.00  0.00    +0.016 A 
ATOM     20  C   UNL     1       2.272   1.892   1.621  0.00  0.00    +0.039 A 
ATOM     21  C   UNL     1       2.019   2.928   2.508  0.00  0.00    +0.123 A 
ATOM     22  C   UNL     1       0.715   3.319   2.770  0.00  0.00    +0.039 A 
ATOM     23  C   UNL     1      -0.337   2.683   2.145  0.00  0.00    +0.016 A 
ATOM     24  F   UNL     1       3.046   3.557   3.119  0.00  0.00    -0.205 F 
ENDBRANCH  16  18
BRANCH  15  26
ATOM     25  C   UNL     1       0.848   0.214  -1.171  0.00  0.00    +0.028 C 
ATOM     26  C   UNL     1       0.200  -0.843  -0.275  0.00  0.00    +0.070 C 
ATOM     27  C   UNL     1       1.120  -1.139   0.911  0.00  0.00    +0.028 C 
ENDBRANCH  15  26
ENDBRANCH  14  15
ENDBRANCH   1  14
BRANCH   3  28
ATOM     28  C   UNL     1      -1.083  -5.353   2.327  0.00  0.00    -0.043 C 
BRANCH  28  29
ATOM     29  C   UNL     1      -1.640  -6.415   3.240  0.00  0.00    -0.060 A 
ATOM     30  C   UNL     1      -1.076  -6.619   4.486  0.00  0.00    +0.005 A 
ATOM     31  C   UNL     1      -1.583  -7.591   5.327  0.00  0.00    +0.049 A 
ATOM     32  C   UNL     1      -2.659  -8.365   4.921  0.00  0.00    +0.158 A 
ATOM     33  C   UNL     1      -3.226  -8.161   3.667  0.00  0.00    +0.161 A 
ATOM     34  C   UNL     1      -2.716  -7.180   2.831  0.00  0.00    +0.051 A 
BRANCH  33  35
ATOM     35  O   UNL     1      -4.282  -8.918   3.265  0.00  0.00    -0.491 OA
ATOM     36  C   UNL     1      -4.813  -8.652   1.966  0.00  0.00    +0.277 C 
ENDBRANCH  33  35
BRANCH  32  37
ATOM     37  O   UNL     1      -3.159  -9.323   5.747  0.00  0.00    -0.503 OA
ATOM     38  H   UNL     1      -3.860  -9.009   6.335  0.00  0.00    +0.292 HD
ENDBRANCH  32  37
ENDBRANCH  28  29
ENDBRANCH   3  28
TORSDOF 9
