REMARK  Name = ZINC09303905
REMARK  9 active torsions:
REMARK  status: ('A' for Active; 'I' for Inactive)
REMARK    1  A    between atoms: C_1  and  C_2
REMARK    2  A    between atoms: C_2  and  C_35
REMARK    3  A    between atoms: C_4  and  N_9
REMARK    4  A    between atoms: C_6  and  C_7
REMARK    5  A    between atoms: C_6  and  C_8
REMARK    6  A    between atoms: C_10  and  C_12
REMARK    7  A    between atoms: C_12  and  C_14
REMARK    8  A    between atoms: C_12  and  N_21
REMARK    9  A    between atoms: C_14  and  C_15
REMARK                            x       y       z     vdW  Elec       q    Type
REMARK                         _______ _______ _______ _____ _____    ______ ____
ROOT
ATOM      1  C   UNL     1       1.209   4.518  -5.504  0.00  0.00    +0.165 C 
ENDROOT
BRANCH   1   2
ATOM      2  N   UNL     1       0.538   5.732  -5.977  0.00  0.00    -0.287 N 
ATOM      3  C   UNL     1       0.404   5.956  -7.299  0.00  0.00    +0.308 C 
ATOM      4  O   UNL     1       0.839   5.151  -8.099  0.00  0.00    -0.252 OA
ATOM      5  N   UNL     1      -0.213   7.072  -7.734  0.00  0.00    -0.245 N 
ATOM      6  C   UNL     1      -0.749   8.062  -6.787  0.00  0.00    +0.211 C 
ATOM      7  C   UNL     1      -2.096   8.529  -7.274  0.00  0.00    +0.235 C 
ATOM      8  O   UNL     1      -2.928   8.898  -6.471  0.00  0.00    -0.274 OA
ATOM      9  N   UNL     1      -2.388   8.543  -8.588  0.00  0.00    -0.283 N 
ATOM     10  C   UNL     1      -1.466   8.076  -9.531  0.00  0.00    +0.055 A 
ATOM     11  C   UNL     1      -0.361   7.331  -9.106  0.00  0.00    +0.059 A 
ATOM     12  C   UNL     1       0.560   6.861 -10.024  0.00  0.00    +0.025 A 
ATOM     13  C   UNL     1       0.389   7.136 -11.370  0.00  0.00    +0.002 A 
ATOM     14  C   UNL     1      -0.697   7.878 -11.795  0.00  0.00    +0.002 A 
ATOM     15  C   UNL     1      -1.632   8.346 -10.879  0.00  0.00    +0.025 A 
ATOM     16  H   UNL     1       0.191   6.374  -5.338  0.00  0.00    +0.151 HD
ATOM     17  H   UNL     1      -3.248   8.880  -8.885  0.00  0.00    +0.155 HD
ENDBRANCH   1   2
BRANCH   1  19
ATOM     18  N   UNL     1       1.203   3.098  -3.478  0.00  0.00    -0.311 N 
ATOM     19  C   UNL     1       0.721   4.182  -4.118  0.00  0.00    +0.234 C 
ATOM     20  O   UNL     1      -0.106   4.886  -3.579  0.00  0.00    -0.274 OA
ATOM     21  H   UNL     1       1.864   2.535  -3.910  0.00  0.00    +0.149 HD
BRANCH  18  25
ATOM     22  C   UNL     1      -2.143   0.475  -1.020  0.00  0.00    -0.010 C 
ATOM     23  C   UNL     1      -1.048   1.551  -0.843  0.00  0.00    -0.072 C 
ATOM     24  C   UNL     1      -0.543   1.927  -2.233  0.00  0.00    +0.009 C 
ATOM     25  C   UNL     1       0.727   2.770  -2.128  0.00  0.00    +0.070 C 
ATOM     26  C   UNL     1       1.795   1.952  -1.403  0.00  0.00    +0.009 C 
ATOM     27  C   UNL     1       1.318   1.579  -0.002  0.00  0.00    -0.072 C 
ATOM     28  C   UNL     1       1.397   2.808   0.911  0.00  0.00    -0.010 C 
ATOM     29  C   UNL     1       2.301   0.528   0.560  0.00  0.00    -0.010 C 
ATOM     30  C   UNL     1      -1.713   2.771  -0.192  0.00  0.00    -0.010 C 
ATOM     31  N   UNL     1      -0.027   0.945   0.053  0.00  0.00    +0.386 N 
ATOM     32  H   UNL     1       0.076  -0.043  -0.205  0.00  0.00    -0.084 HD
ATOM     33  H   UNL     1      -0.371   1.013   1.018  0.00  0.00    -0.084 HD
ENDBRANCH  18  25
ENDBRANCH   1  19
BRANCH   1  34
ATOM     34  C   UNL     1       2.721   4.752  -5.469  0.00  0.00    +0.067 C 
BRANCH  34  35
ATOM     35  C   UNL     1       3.228   4.967  -6.872  0.00  0.00    -0.045 A 
ATOM     36  C   UNL     1       3.650   3.889  -7.627  0.00  0.00    +0.004 A 
ATOM     37  C   UNL     1       4.111   4.085  -8.915  0.00  0.00    +0.000 A 
ATOM     38  C   UNL     1       4.159   5.362  -9.445  0.00  0.00    +0.000 A 
ATOM     39  C   UNL     1       3.742   6.440  -8.688  0.00  0.00    +0.000 A 
ATOM     40  C   UNL     1       3.276   6.243  -7.401  0.00  0.00    +0.004 A 
ENDBRANCH  34  35
ENDBRANCH   1  34
TORSDOF 5
