REMARK  Name = ZINC67439269
REMARK  12 active torsions:
REMARK  status: ('A' for Active; 'I' for Inactive)
REMARK    1  A    between atoms: C_1  and  C_2
REMARK    2  A    between atoms: C_5  and  C_30
REMARK    3  A    between atoms: N_8  and  C_10
REMARK    4  A    between atoms: C_10  and  C_11
REMARK    5  A    between atoms: C_11  and  C_13
REMARK    6  A    between atoms: C_11  and  N_14
REMARK    7  A    between atoms: C_15  and  C_17
REMARK    8  A    between atoms: N_19  and  C_20
REMARK    9  A    between atoms: C_22  and  O_28
REMARK   10  A    between atoms: C_24  and  O_26
REMARK   11  A    between atoms: O_26  and  C_27
REMARK   12  A    between atoms: O_28  and  C_29
REMARK                            x       y       z     vdW  Elec       q    Type
REMARK                         _______ _______ _______ _____ _____    ______ ____
ROOT
ATOM      1  N   UNL     1       3.507  -2.491   0.948  0.00  0.00    -0.307 N 
ATOM      2  C   UNL     1       4.536  -1.847   0.362  0.00  0.00    +0.299 C 
ATOM      3  O   UNL     1       5.029  -0.877   0.898  0.00  0.00    -0.265 OA
ATOM      4  H   UNL     1       3.113  -3.267   0.520  0.00  0.00    +0.149 HD
ENDROOT
BRANCH   2   5
ATOM      5  C   UNL     1       5.068  -2.328  -0.948  0.00  0.00    +0.303 C 
ATOM      6  O   UNL     1       4.575  -3.299  -1.484  0.00  0.00    -0.265 OA
ATOM      7  N   UNL     1       6.097  -1.685  -1.535  0.00  0.00    -0.278 N 
ATOM      8  H   UNL     1       6.447  -0.870  -1.141  0.00  0.00    +0.155 HD
BRANCH   7   9
ATOM      9  C   UNL     1       6.658  -2.190  -2.710  0.00  0.00    +0.041 A 
ATOM     10  C   UNL     1       5.851  -2.812  -3.654  0.00  0.00    +0.069 A 
ATOM     11  C   UNL     1       6.409  -3.313  -4.820  0.00  0.00    +0.125 A 
ATOM     12  C   UNL     1       7.773  -3.193  -5.044  0.00  0.00    +0.091 A 
ATOM     13  C   UNL     1       8.579  -2.573  -4.102  0.00  0.00    +0.125 A 
ATOM     14  C   UNL     1       8.023  -2.066  -2.938  0.00  0.00    +0.069 A 
BRANCH  13  15
ATOM     15  O   UNL     1       9.916  -2.457  -4.322  0.00  0.00    -0.495 OA
ATOM     16  C   UNL     1      10.421  -2.997  -5.545  0.00  0.00    +0.277 C 
ENDBRANCH  13  15
BRANCH  11  17
ATOM     17  O   UNL     1       5.620  -3.921  -5.744  0.00  0.00    -0.495 OA
ATOM     18  C   UNL     1       6.262  -4.414  -6.922  0.00  0.00    +0.277 C 
ENDBRANCH  11  17
ENDBRANCH   7   9
ENDBRANCH   2   5
BRANCH   1  19
ATOM     19  C   UNL     1       2.985  -2.020   2.233  0.00  0.00    +0.054 C 
ATOM     20  C   UNL     1       3.816  -2.615   3.371  0.00  0.00    +0.026 C 
BRANCH  19  21
ATOM     21  C   UNL     1       1.527  -2.458   2.383  0.00  0.00    -0.057 C 
BRANCH  21  27
ATOM     22  C   UNL     1      -0.036   1.509  -0.023  0.00  0.00    +0.005 C 
ATOM     23  C   UNL     1      -0.009  -0.021  -0.023  0.00  0.00    -0.031 C 
ATOM     24  C   UNL     1      -1.443  -0.557  -0.011  0.00  0.00    +0.003 C 
ATOM     25  C   UNL     1      -1.405  -2.086   0.069  0.00  0.00    -0.031 C 
ATOM     26  C   UNL     1      -0.617  -2.508   1.311  0.00  0.00    -0.076 C 
ATOM     27  N   UNL     1       0.752  -1.986   1.227  0.00  0.00    +0.381 N 
ATOM     28  C   UNL     1       0.728  -0.518   1.222  0.00  0.00    -0.076 C 
ATOM     29  C   UNL     1      -2.832  -2.629   0.159  0.00  0.00    +0.005 C 
ATOM     30  H   UNL     1       1.185  -2.316   0.377  0.00  0.00    -0.082 HD
ENDBRANCH  21  27
ENDBRANCH  19  21
ENDBRANCH   1  19
TORSDOF 7
