REMARK  Name = ZINC45896384
REMARK  5 active torsions:
REMARK  status: ('A' for Active; 'I' for Inactive)
REMARK    1  A    between atoms: C_4  and  C_7
REMARK    2  A    between atoms: C_7  and  N_8
REMARK    3  A    between atoms: C_17  and  O_18
REMARK    4  A    between atoms: C_19  and  N_20
REMARK    5  A    between atoms: N_23  and  C_24
REMARK                            x       y       z     vdW  Elec       q    Type
REMARK                         _______ _______ _______ _____ _____    ______ ____
ROOT
ATOM      1  N   UNL     1       5.426  -1.043   0.634  0.00  0.00    -0.378 N 
ATOM      2  C   UNL     1       5.042  -2.041   1.403  0.00  0.00    +0.075 A 
ATOM      3  C   UNL     1       5.513  -2.164   2.801  0.00  0.00    +0.042 A 
ATOM      4  C   UNL     1       6.381  -1.229   3.357  0.00  0.00    +0.013 A 
ATOM      5  C   UNL     1       6.797  -1.379   4.663  0.00  0.00    +0.001 A 
ATOM      6  C   UNL     1       6.354  -2.454   5.418  0.00  0.00    +0.004 A 
ATOM      7  C   UNL     1       5.494  -3.386   4.876  0.00  0.00    +0.047 A 
ATOM      8  C   UNL     1       5.063  -3.251   3.562  0.00  0.00    +0.141 A 
ATOM      9  O   UNL     1       4.221  -4.153   3.014  0.00  0.00    -0.424 OA
ATOM     10  C   UNL     1       3.784  -4.056   1.749  0.00  0.00    +0.309 A 
ATOM     11  C   UNL     1       4.149  -3.044   0.925  0.00  0.00    +0.140 A 
ATOM     12  H   UNL     1       5.931  -0.306   1.013  0.00  0.00    +0.160 HD
ENDROOT
BRANCH  11  13
ATOM     13  N   UNL     1       3.656  -2.988  -0.395  0.00  0.00    -0.262 N 
ATOM     14  C   UNL     1       2.736  -2.061  -0.731  0.00  0.00    +0.308 C 
ATOM     15  O   UNL     1       2.278  -1.323   0.119  0.00  0.00    -0.252 OA
ATOM     16  N   UNL     1       2.325  -1.954  -2.010  0.00  0.00    -0.269 N 
ATOM     17  H   UNL     1       3.978  -3.615  -1.060  0.00  0.00    +0.157 HD
ATOM     18  H   UNL     1       2.641  -2.585  -2.676  0.00  0.00    +0.156 HD
BRANCH  16  19
ATOM     19  C   UNL     1       1.442  -0.931  -2.378  0.00  0.00    +0.036 A 
ATOM     20  C   UNL     1       1.558  -0.327  -3.623  0.00  0.00    +0.026 A 
ATOM     21  C   UNL     1       0.686   0.681  -3.985  0.00  0.00    +0.041 A 
ATOM     22  C   UNL     1      -0.304   1.090  -3.107  0.00  0.00    +0.142 A 
ATOM     23  C   UNL     1      -0.421   0.490  -1.864  0.00  0.00    +0.078 A 
ATOM     24  C   UNL     1       0.446  -0.524  -1.500  0.00  0.00    +0.046 A 
ATOM     25 CL   UNL     1      -1.662   1.005  -0.764  0.00  0.00    -0.081 Cl
ATOM     26  F   UNL     1      -1.156   2.077  -3.462  0.00  0.00    -0.204 F 
ENDBRANCH  16  19
ENDBRANCH  11  13
BRANCH  10  27
ATOM     27  O   UNL     1       2.940  -5.003   1.278  0.00  0.00    -0.479 OA
ATOM     28  H   UNL     1       2.721  -5.690   1.923  0.00  0.00    +0.295 HD
ENDBRANCH  10  27
BRANCH   1  29
ATOM     29  C   UNL     1       5.093  -1.046  -0.792  0.00  0.00    +0.148 C 
BRANCH  29  33
ATOM     30  C   UNL     1       7.857   1.429  -2.908  0.00  0.00    +0.000 A 
ATOM     31  C   UNL     1       8.128   0.085  -2.731  0.00  0.00    +0.000 A 
ATOM     32  C   UNL     1       7.234  -0.716  -2.046  0.00  0.00    +0.005 A 
ATOM     33  C   UNL     1       6.068  -0.173  -1.538  0.00  0.00    -0.028 A 
ATOM     34  C   UNL     1       5.798   1.171  -1.714  0.00  0.00    +0.005 A 
ATOM     35  C   UNL     1       6.692   1.972  -2.401  0.00  0.00    +0.000 A 
ENDBRANCH  29  33
ENDBRANCH   1  29
TORSDOF 5
