REMARK  Name = ZINC36911099
REMARK  4 active torsions:
REMARK  status: ('A' for Active; 'I' for Inactive)
REMARK    1  A    between atoms: C_1  and  C_2
REMARK    2  A    between atoms: C_9  and  C_18
REMARK    3  A    between atoms: N_10  and  C_11
REMARK    4  A    between atoms: C_18  and  C_19
REMARK                            x       y       z     vdW  Elec       q    Type
REMARK                         _______ _______ _______ _____ _____    ______ ____
ROOT
ATOM      1  C   UNL     1      -0.018   1.503   0.010  0.00  0.00    +0.044 C 
ATOM      2  C   UNL     1       0.002  -0.004   0.002  0.00  0.00    -0.048 A 
ATOM      3  C   UNL     1       0.006  -0.684  -1.208  0.00  0.00    +0.005 A 
ATOM      4  C   UNL     1       0.024  -2.063  -1.234  0.00  0.00    +0.028 A 
ATOM      5  C   UNL     1       0.039  -2.773  -0.042  0.00  0.00    +0.074 A 
ATOM      6  C   UNL     1       0.036  -2.084   1.183  0.00  0.00    +0.090 A 
ATOM      7  C   UNL     1       0.023  -0.686   1.185  0.00  0.00    +0.033 A 
ATOM      8  N   UNL     1       0.053  -3.021   2.166  0.00  0.00    -0.232 NA
ATOM      9  C   UNL     1       0.066  -4.210   1.637  0.00  0.00    +0.116 A 
ATOM     10  N   UNL     1       0.058  -4.118   0.278  0.00  0.00    -0.295 N 
ENDROOT
BRANCH  10  11
ATOM     11  C   UNL     1       0.067  -5.187  -0.628  0.00  0.00    +0.062 A 
ATOM     12  C   UNL     1       1.272  -5.706  -1.080  0.00  0.00    +0.027 A 
ATOM     13  C   UNL     1       1.278  -6.760  -1.973  0.00  0.00    +0.002 A 
ATOM     14  C   UNL     1       0.084  -7.298  -2.417  0.00  0.00    +0.001 A 
ATOM     15  C   UNL     1      -1.119  -6.784  -1.970  0.00  0.00    +0.017 A 
ATOM     16  C   UNL     1      -1.131  -5.734  -1.072  0.00  0.00    +0.042 A 
ATOM     17 BR   UNL     1      -2.776  -5.036  -0.453  0.00  0.00    -0.048 Br
ENDBRANCH  10  11
BRANCH   9  18
ATOM     18  C   UNL     1       0.087  -5.501   2.415  0.00  0.00    +0.090 C 
BRANCH  18  19
ATOM     19  C   UNL     1      -1.349  -5.957   2.685  0.00  0.00    +0.116 C 
ATOM     20 CL   UNL     1      -1.324  -7.501   3.615  0.00  0.00    -0.125 Cl
ENDBRANCH  18  19
ENDBRANCH   9  18
TORSDOF 3
