REMARK  Name = ZINC65182957
REMARK  9 active torsions:
REMARK  status: ('A' for Active; 'I' for Inactive)
REMARK    1  A    between atoms: C_1  and  N_2
REMARK    2  A    between atoms: N_2  and  C_3
REMARK    3  A    between atoms: C_3  and  C_4
REMARK    4  A    between atoms: C_4  and  C_5
REMARK    5  A    between atoms: C_8  and  C_11
REMARK    6  A    between atoms: C_16  and  O_21
REMARK    7  A    between atoms: O_21  and  C_22
REMARK    8  A    between atoms: C_23  and  C_25
REMARK    9  A    between atoms: C_25  and  C_26
REMARK                            x       y       z     vdW  Elec       q    Type
REMARK                         _______ _______ _______ _____ _____    ______ ____
ROOT
ATOM      1  C   UNL     1      -1.388  -1.781   3.021  0.00  0.00    +0.139 C 
ATOM      2  N   UNL     1      -0.316  -2.126   3.637  0.00  0.00    -0.072 NA
ATOM      3  O   UNL     1      -0.619  -2.826   4.830  0.00  0.00    -0.367 OA
ATOM      4  C   UNL     1      -2.052  -2.891   4.907  0.00  0.00    +0.318 C 
ATOM      5  N   UNL     1      -2.513  -2.187   3.700  0.00  0.00    -0.291 N 
ATOM      6  H   UNL     1      -3.434  -2.038   3.434  0.00  0.00    +0.151 HD
ENDROOT
BRANCH   4   7
ATOM      7  C   UNL     1      -2.522  -4.347   4.898  0.00  0.00    +0.165 C 
ATOM      8  C   UNL     1      -2.094  -5.041   6.172  0.00  0.00    +0.013 C 
ATOM      9  C   UNL     1      -3.233  -5.436   6.785  0.00  0.00    -0.000 A 
ATOM     10  C   UNL     1      -3.491  -6.150   8.040  0.00  0.00    +0.055 A 
ATOM     11  C   UNL     1      -4.769  -6.413   8.407  0.00  0.00    +0.121 A 
ATOM     12  C   UNL     1      -5.870  -6.024   7.624  0.00  0.00    +0.047 A 
ATOM     13  C   UNL     1      -5.733  -5.363   6.455  0.00  0.00    +0.029 A 
ATOM     14  C   UNL     1      -4.394  -5.027   5.961  0.00  0.00    +0.043 A 
ATOM     15  N   UNL     1      -3.989  -4.404   4.880  0.00  0.00    -0.373 N 
ATOM     16  H   UNL     1      -4.561  -4.042   4.186  0.00  0.00    +0.160 HD
BRANCH  11  17
ATOM     17  O   UNL     1      -4.993  -7.076   9.572  0.00  0.00    -0.495 OA
ATOM     18  C   UNL     1      -6.355  -7.332   9.920  0.00  0.00    +0.277 C 
ENDBRANCH  11  17
ENDBRANCH   4   7
BRANCH   1  19
ATOM     19  C   UNL     1      -1.411  -1.020   1.720  0.00  0.00    +0.094 C 
BRANCH  19  20
ATOM     20  C   UNL     1       0.024  -0.743   1.267  0.00  0.00    +0.115 C 
BRANCH  20  22
ATOM     21  C   UNL     1      -0.018   1.461   0.010  0.00  0.00    +0.132 C 
ATOM     22  N   UNL     1       0.002  -0.004   0.002  0.00  0.00    -0.304 N 
ATOM     23  C   UNL     1       0.000  -0.672  -1.169  0.00  0.00    +0.220 C 
ATOM     24  O   UNL     1       0.017  -1.884  -1.175  0.00  0.00    -0.275 OA
BRANCH  23  25
ATOM     25  C   UNL     1      -0.023   0.089  -2.470  0.00  0.00    +0.131 C 
BRANCH  25  26
ATOM     26  C   UNL     1      -0.020  -0.884  -3.620  0.00  0.00    -0.036 A 
ATOM     27  C   UNL     1       1.178  -1.319  -4.156  0.00  0.00    +0.004 A 
ATOM     28  C   UNL     1       1.182  -2.211  -5.211  0.00  0.00    +0.003 A 
ATOM     29  C   UNL     1      -0.013  -2.670  -5.733  0.00  0.00    +0.038 A 
ATOM     30  C   UNL     1      -1.213  -2.236  -5.198  0.00  0.00    +0.124 A 
ATOM     31  C   UNL     1      -1.216  -1.346  -4.136  0.00  0.00    +0.042 A 
ATOM     32  F   UNL     1      -2.382  -2.683  -5.707  0.00  0.00    -0.205 F 
ENDBRANCH  25  26
ENDBRANCH  23  25
ENDBRANCH  20  22
ENDBRANCH  19  20
ENDBRANCH   1  19
TORSDOF 7
