REMARK  Name = ZINC03832741
REMARK  6 active torsions:
REMARK  status: ('A' for Active; 'I' for Inactive)
REMARK    1  A    between atoms: C_1  and  C_2
REMARK    2  A    between atoms: C_2  and  C_3
REMARK    3  A    between atoms: N_8  and  S_9
REMARK    4  A    between atoms: S_9  and  C_12
REMARK    5  A    between atoms: C_15  and  N_18
REMARK    6  A    between atoms: C_19  and  C_21
REMARK                            x       y       z     vdW  Elec       q    Type
REMARK                         _______ _______ _______ _____ _____    ______ ____
ROOT
ATOM      1  C   UNL     1      -2.443   9.943  -0.781  0.00  0.00    +0.109 A 
ATOM      2  C   UNL     1      -1.322   9.318  -0.266  0.00  0.00    +0.030 A 
ATOM      3  C   UNL     1      -1.210   7.942  -0.323  0.00  0.00    +0.025 A 
ATOM      4  C   UNL     1      -2.223   7.188  -0.898  0.00  0.00    +0.034 A 
ATOM      5  C   UNL     1      -3.345   7.819  -1.420  0.00  0.00    +0.025 A 
ATOM      6  C   UNL     1      -3.454   9.194  -1.355  0.00  0.00    +0.030 A 
ENDROOT
BRANCH   4   7
ATOM      7  N   UNL     1      -2.112   5.794  -0.958  0.00  0.00    -0.285 N 
ATOM      8  C   UNL     1      -1.512   5.123   0.045  0.00  0.00    +0.223 C 
ATOM      9  O   UNL     1      -0.993   5.731   0.957  0.00  0.00    -0.275 OA
ATOM     10  H   UNL     1      -2.468   5.311  -1.720  0.00  0.00    +0.155 HD
BRANCH   8  11
ATOM     11  C   UNL     1      -1.484   3.616   0.032  0.00  0.00    +0.048 C 
ATOM     12  C   UNL     1      -0.759   3.130  -1.225  0.00  0.00    +0.019 C 
ATOM     13  C   UNL     1      -0.731   1.600  -1.238  0.00  0.00    -0.009 C 
ATOM     14  C   UNL     1       0.005   1.093   0.004  0.00  0.00    +0.007 C 
ATOM     15  C   UNL     1      -0.719   1.579   1.261  0.00  0.00    -0.009 C 
ATOM     16  C   UNL     1      -0.747   3.109   1.274  0.00  0.00    +0.019 C 
ATOM     17  C   UNL     1      -2.152   1.043   1.263  0.00  0.00    +0.007 C 
ATOM     18  C   UNL     1      -2.888   1.550   0.021  0.00  0.00    -0.009 C 
ATOM     19  C   UNL     1      -2.164   1.064  -1.236  0.00  0.00    +0.007 C 
ATOM     20  C   UNL     1      -2.917   3.079   0.034  0.00  0.00    +0.019 C 
ENDBRANCH   8  11
ENDBRANCH   4   7
BRANCH   1  21
ATOM     21  S   UNL     1      -2.583  11.698  -0.706  0.00  0.00    +0.074 S 
ATOM     22  O   UNL     1      -3.971  11.998  -0.765  0.00  0.00    -0.150 OA
ATOM     23  O   UNL     1      -1.756  12.126   0.367  0.00  0.00    -0.150 OA
BRANCH  21  29
ATOM     24  C   UNL     1      -3.328  11.704  -5.828  0.00  0.00    +0.103 A 
ATOM     25  N   UNL     1      -3.961  11.165  -4.806  0.00  0.00    -0.145 NA
ATOM     26  N   UNL     1      -3.568  11.316  -3.617  0.00  0.00    -0.125 NA
ATOM     27  C   UNL     1      -2.489  12.028  -3.322  0.00  0.00    +0.201 A 
ATOM     28  S   UNL     1      -2.000  12.541  -4.967  0.00  0.00    -0.034 S 
ATOM     29  N   UNL     1      -1.909  12.303  -2.093  0.00  0.00    -0.192 N 
ATOM     30  H   UNL     1      -1.109  12.849  -2.045  0.00  0.00    +0.176 HD
BRANCH  24  32
ATOM     31  C   UNL     1      -4.558  12.802  -7.681  0.00  0.00    +0.011 C 
ATOM     32  C   UNL     1      -3.638  11.640  -7.302  0.00  0.00    +0.061 C 
ENDBRANCH  24  32
ENDBRANCH  21  29
ENDBRANCH   1  21
TORSDOF 5
