REMARK  Name = ZINC67140988
REMARK  6 active torsions:
REMARK  status: ('A' for Active; 'I' for Inactive)
REMARK    1  A    between atoms: C_1  and  C_2
REMARK    2  A    between atoms: C_12  and  C_14
REMARK    3  A    between atoms: C_14  and  N_15
REMARK    4  A    between atoms: C_16  and  O_18
REMARK    5  A    between atoms: O_18  and  C_19
REMARK    6  A    between atoms: C_19  and  C_20
REMARK                            x       y       z     vdW  Elec       q    Type
REMARK                         _______ _______ _______ _____ _____    ______ ____
ROOT
ATOM      1  C   UNL     1      -0.019   1.526   0.010  0.00  0.00    +0.008 C 
ATOM      2  C   UNL     1       0.002  -0.004   0.002  0.00  0.00    -0.009 C 
ATOM      3  C   UNL     1      -1.433  -0.537   0.019  0.00  0.00    +0.010 C 
ATOM      4  C   UNL     1      -1.438  -2.046  -0.235  0.00  0.00    +0.056 C 
ATOM      5  C   UNL     1      -0.479  -2.708   0.744  0.00  0.00    +0.054 A 
ATOM      6  C   UNL     1       0.472  -1.978   1.381  0.00  0.00    +0.015 A 
ATOM      7  S   UNL     1       1.290  -3.193   2.376  0.00  0.00    -0.057 S 
ATOM      8  C   UNL     1       0.366  -4.521   1.905  0.00  0.00    +0.165 A 
ATOM      9  N   UNL     1      -0.487  -4.003   1.049  0.00  0.00    -0.229 NA
ATOM     10  N   UNL     1       0.478  -5.843   2.320  0.00  0.00    -0.263 N 
ATOM     11  C   UNL     1      -0.360  -6.777   1.829  0.00  0.00    +0.236 C 
ATOM     12  O   UNL     1      -1.212  -6.464   1.024  0.00  0.00    -0.274 OA
ATOM     13  C   UNL     1       0.739  -0.516   1.250  0.00  0.00    +0.047 C 
ATOM     14  H   UNL     1       1.160  -6.093   2.964  0.00  0.00    +0.157 HD
ENDROOT
BRANCH  11  15
ATOM     15  C   UNL     1      -0.238  -8.210   2.279  0.00  0.00    +0.203 C 
BRANCH  15  16
ATOM     16  N   UNL     1      -1.254  -9.022   1.605  0.00  0.00    -0.273 N 
ATOM     17  C   UNL     1      -1.335 -10.344   1.854  0.00  0.00    +0.401 C 
ATOM     18  O   UNL     1      -0.566 -10.862   2.639  0.00  0.00    -0.226 OA
ATOM     19  H   UNL     1      -1.869  -8.608   0.979  0.00  0.00    +0.153 HD
BRANCH  17  20
ATOM     20  O   UNL     1      -2.270 -11.090   1.235  0.00  0.00    -0.446 OA
BRANCH  20  21
ATOM     21  C   UNL     1      -2.298 -12.484   1.547  0.00  0.00    +0.269 C 
BRANCH  21  22
ATOM     22  C   UNL     1      -3.400 -13.151   0.765  0.00  0.00    -0.010 A 
ATOM     23  C   UNL     1      -4.673 -13.236   1.299  0.00  0.00    +0.007 A 
ATOM     24  C   UNL     1      -5.683 -13.848   0.581  0.00  0.00    +0.000 A 
ATOM     25  C   UNL     1      -5.422 -14.375  -0.670  0.00  0.00    +0.000 A 
ATOM     26  C   UNL     1      -4.150 -14.289  -1.204  0.00  0.00    +0.000 A 
ATOM     27  C   UNL     1      -3.140 -13.673  -0.488  0.00  0.00    +0.007 A 
ENDBRANCH  21  22
ENDBRANCH  20  21
ENDBRANCH  17  20
ENDBRANCH  15  16
ENDBRANCH  11  15
TORSDOF 5
