REMARK  Name = ZINC55597813
REMARK  9 active torsions:
REMARK  status: ('A' for Active; 'I' for Inactive)
REMARK    1  A    between atoms: C_1  and  C_2
REMARK    2  A    between atoms: C_3  and  C_27
REMARK    3  A    between atoms: C_4  and  C_26
REMARK    4  A    between atoms: C_5  and  S_10
REMARK    5  A    between atoms: C_6  and  C_9
REMARK    6  A    between atoms: C_7  and  C_8
REMARK    7  A    between atoms: S_10  and  N_13
REMARK    8  A    between atoms: N_13  and  C_14
REMARK    9  A    between atoms: C_18  and  N_20
REMARK                            x       y       z     vdW  Elec       q    Type
REMARK                         _______ _______ _______ _____ _____    ______ ____
ROOT
ATOM      1  N   UNL     1       0.367  -6.090  -0.865  0.00  0.00    -0.216 N 
ATOM      2  H   UNL     1       0.273  -6.490  -1.743  0.00  0.00    +0.174 HD
ENDROOT
BRANCH   1   3
ATOM      3  C   UNL     1       1.563  -6.231  -0.157  0.00  0.00    +0.050 A 
ATOM      4  C   UNL     1       2.151  -5.123   0.443  0.00  0.00    +0.024 A 
ATOM      5  C   UNL     1       3.333  -5.262   1.143  0.00  0.00    +0.004 A 
ATOM      6  C   UNL     1       3.936  -6.501   1.249  0.00  0.00    +0.024 A 
ATOM      7  C   UNL     1       3.355  -7.611   0.651  0.00  0.00    +0.040 A 
ATOM      8  C   UNL     1       2.163  -7.477  -0.048  0.00  0.00    +0.048 A 
BRANCH   7   9
ATOM      9  N   UNL     1       3.966  -8.865   0.758  0.00  0.00    -0.254 N 
ATOM     10  C   UNL     1       5.145  -9.171   1.583  0.00  0.00    +0.134 C 
ATOM     11  C   UNL     1       5.391 -10.671   1.334  0.00  0.00    +0.125 C 
ATOM     12  N   UNL     1       4.325 -11.052   0.395  0.00  0.00    -0.297 N 
ATOM     13  C   UNL     1       3.568  -9.979   0.129  0.00  0.00    +0.307 C 
ATOM     14  O   UNL     1       2.610 -10.012  -0.617  0.00  0.00    -0.252 OA
ATOM     15  H   UNL     1       4.189 -11.940   0.028  0.00  0.00    +0.150 HD
ENDBRANCH   7   9
ENDBRANCH   1   3
BRANCH   1  16
ATOM     16  S   UNL     1      -0.891  -5.241  -0.203  0.00  0.00    +0.073 S 
ATOM     17  O   UNL     1      -1.014  -5.678   1.143  0.00  0.00    -0.150 OA
ATOM     18  O   UNL     1      -1.965  -5.318  -1.131  0.00  0.00    -0.150 OA
BRANCH  16  23
ATOM     19  C   UNL     1       0.789   0.550   0.013  0.00  0.00    +0.044 C 
ATOM     20  C   UNL     1       0.370  -0.896  -0.041  0.00  0.00    -0.044 A 
ATOM     21  C   UNL     1       0.457  -1.684   1.091  0.00  0.00    -0.043 A 
ATOM     22  C   UNL     1       0.072  -3.010   1.042  0.00  0.00    -0.020 A 
ATOM     23  C   UNL     1      -0.401  -3.549  -0.140  0.00  0.00    +0.115 A 
ATOM     24  C   UNL     1      -0.490  -2.761  -1.272  0.00  0.00    -0.020 A 
ATOM     25  C   UNL     1      -0.109  -1.433  -1.222  0.00  0.00    -0.043 A 
ATOM     26  C   UNL     1      -0.210  -0.573  -2.455  0.00  0.00    +0.044 C 
ATOM     27  C   UNL     1      -1.006  -3.349  -2.561  0.00  0.00    +0.046 C 
ATOM     28  C   UNL     1       0.169  -3.870   2.276  0.00  0.00    +0.046 C 
ATOM     29  C   UNL     1       0.974  -1.097   2.380  0.00  0.00    +0.044 C 
ENDBRANCH  16  23
ENDBRANCH   1  16
TORSDOF 4
