REMARK  Name = ZINC12497180
REMARK  10 active torsions:
REMARK  status: ('A' for Active; 'I' for Inactive)
REMARK    1  A    between atoms: C_1  and  C_2
REMARK    2  A    between atoms: C_2  and  O_3
REMARK    3  A    between atoms: O_3  and  C_4
REMARK    4  A    between atoms: C_4  and  C_6
REMARK    5  A    between atoms: C_6  and  C_31
REMARK    6  A    between atoms: C_11  and  C_13
REMARK    7  A    between atoms: C_16  and  O_19
REMARK    8  A    between atoms: N_22  and  C_25
REMARK    9  A    between atoms: C_31  and  C_32
REMARK   10  A    between atoms: C_35  and  O_38
REMARK                            x       y       z     vdW  Elec       q    Type
REMARK                         _______ _______ _______ _____ _____    ______ ____
ROOT
ATOM      1  C   UNL     1       3.090   6.271  -0.020  0.00  0.00    +0.048 C 
ATOM      2  C   UNL     1       3.852   5.476   1.038  0.00  0.00    +0.086 C 
ATOM      3  C   UNL     1       2.743   4.382   1.315  0.00  0.00    +0.077 C 
ATOM      4  C   UNL     1       2.421   3.944  -0.057  0.00  0.00    -0.027 C 
ATOM      5  C   UNL     1       3.212   3.822   2.562  0.00  0.00    +0.229 C 
ATOM      6  O   UNL     1       3.152   2.667   2.925  0.00  0.00    -0.275 OA
ATOM      7  N   UNL     1       3.741   4.890   3.245  0.00  0.00    -0.210 N 
ATOM      8  C   UNL     1       3.922   5.987   2.451  0.00  0.00    +0.229 C 
ATOM      9  O   UNL     1       4.100   7.131   2.810  0.00  0.00    -0.275 OA
ATOM     10  N   UNL     1       2.310   5.253  -0.773  0.00  0.00    +0.396 N 
ATOM     11  H   UNL     1       2.688   5.161  -1.724  0.00  0.00    -0.083 HD
ATOM     12  H   UNL     1       1.325   5.539  -0.823  0.00  0.00    -0.083 HD
ENDROOT
BRANCH   4  13
ATOM     13  C   UNL     1       1.115   3.192  -0.089  0.00  0.00    -0.060 A 
ATOM     14  C   UNL     1       1.115   1.810  -0.122  0.00  0.00    +0.005 A 
ATOM     15  C   UNL     1      -0.080   1.118  -0.152  0.00  0.00    +0.045 A 
ATOM     16  C   UNL     1      -1.282   1.812  -0.153  0.00  0.00    +0.117 A 
ATOM     17  C   UNL     1      -1.279   3.199  -0.116  0.00  0.00    +0.045 A 
ATOM     18  C   UNL     1      -0.081   3.886  -0.086  0.00  0.00    +0.005 A 
BRANCH  16  19
ATOM     19  O   UNL     1      -2.459   1.134  -0.188  0.00  0.00    -0.507 OA
ATOM     20  H   UNL     1      -2.813   0.917   0.686  0.00  0.00    +0.292 HD
ENDBRANCH  16  19
ENDBRANCH   4  13
BRANCH   7  21
ATOM     21  C   UNL     1       4.061   4.857   4.610  0.00  0.00    +0.044 A 
ATOM     22  C   UNL     1       4.598   5.980   5.226  0.00  0.00    +0.024 A 
ATOM     23  C   UNL     1       4.907   5.946   6.571  0.00  0.00    +0.002 A 
ATOM     24  C   UNL     1       4.692   4.793   7.303  0.00  0.00    +0.000 A 
ATOM     25  C   UNL     1       4.162   3.672   6.692  0.00  0.00    +0.002 A 
ATOM     26  C   UNL     1       3.846   3.701   5.348  0.00  0.00    +0.024 A 
ENDBRANCH   7  21
BRANCH   1  27
ATOM     27  C   UNL     1       2.164   7.262   0.637  0.00  0.00    +0.297 C 
ATOM     28  O   UNL     1       2.544   8.386   0.863  0.00  0.00    -0.252 OA
BRANCH  27  29
ATOM     29  O   UNL     1       0.917   6.895   0.972  0.00  0.00    -0.466 OA
BRANCH  29  31
ATOM     30  C   UNL     1      -1.294   7.303   1.909  0.00  0.00    +0.048 C 
ATOM     31  C   UNL     1       0.081   7.901   1.602  0.00  0.00    +0.228 C 
ENDBRANCH  29  31
ENDBRANCH  27  29
ENDBRANCH   1  27
BRANCH   1  32
ATOM     32  C   UNL     1       4.068   6.995  -0.948  0.00  0.00    +0.034 C 
BRANCH  32  33
ATOM     33  C   UNL     1       3.297   7.772  -1.983  0.00  0.00    -0.048 A 
ATOM     34  C   UNL     1       2.965   7.178  -3.186  0.00  0.00    +0.007 A 
ATOM     35  C   UNL     1       2.253   7.887  -4.135  0.00  0.00    +0.045 A 
ATOM     36  C   UNL     1       1.881   9.200  -3.883  0.00  0.00    +0.117 A 
ATOM     37  C   UNL     1       2.221   9.796  -2.677  0.00  0.00    +0.045 A 
ATOM     38  C   UNL     1       2.929   9.081  -1.730  0.00  0.00    +0.007 A 
BRANCH  36  39
ATOM     39  O   UNL     1       1.186   9.901  -4.817  0.00  0.00    -0.507 OA
ATOM     40  H   UNL     1       1.744  10.386  -5.440  0.00  0.00    +0.292 HD
ENDBRANCH  36  39
ENDBRANCH  32  33
ENDBRANCH   1  32
TORSDOF 9
