REMARK  Name = ZINC24124374
REMARK  5 active torsions:
REMARK  status: ('A' for Active; 'I' for Inactive)
REMARK    1  A    between atoms: C_6  and  C_7
REMARK    2  A    between atoms: N_9  and  N_10
REMARK    3  A    between atoms: C_11  and  C_13
REMARK    4  A    between atoms: C_13  and  N_14
REMARK    5  A    between atoms: C_15  and  C_17
REMARK                            x       y       z     vdW  Elec       q    Type
REMARK                         _______ _______ _______ _____ _____    ______ ____
ROOT
ATOM      1  N   UNL     1      -3.529  -1.204   0.031  0.00  0.00    -0.233 N 
ATOM      2  C   UNL     1      -4.769  -0.677   0.046  0.00  0.00    +0.246 C 
ATOM      3  O   UNL     1      -4.917   0.527   0.054  0.00  0.00    -0.273 OA
ATOM      4  H   UNL     1      -3.394  -2.295   0.024  0.00  0.00    +0.173 HD
ENDROOT
BRANCH   1   7
ATOM      5  C   UNL     1      -1.169  -0.887   0.009  0.00  0.00    +0.276 C 
ATOM      6  O   UNL     1      -1.021  -2.095   0.001  0.00  0.00    -0.267 OA
ATOM      7  N   UNL     1      -2.410  -0.360   0.024  0.00  0.00    -0.229 N 
ATOM      8  H   UNL     1      -2.544   0.731   0.031  0.00  0.00    +0.173 HD
BRANCH   5  14
ATOM      9  C   UNL     1       1.322  -0.402  -0.013  0.00  0.00    +0.047 A 
ATOM     10  C   UNL     1       2.102   0.760  -0.014  0.00  0.00    +0.036 A 
ATOM     11  C   UNL     1       1.262   1.823  -0.000  0.00  0.00    +0.098 A 
ATOM     12  N   UNL     1      -0.017   1.372   0.010  0.00  0.00    -0.356 N 
ATOM     13  H   UNL     1      -0.852   2.088   0.021  0.00  0.00    +0.166 HD
ATOM     14  C   UNL     1       0.002  -0.004   0.002  0.00  0.00    +0.104 A 
ATOM     15 BR   UNL     1       3.991   0.833  -0.032  0.00  0.00    -0.049 Br
ENDBRANCH   5  14
ENDBRANCH   1   7
BRANCH   2  16
ATOM     16  C   UNL     1      -5.973  -1.584   0.053  0.00  0.00    +0.201 C 
BRANCH  16  17
ATOM     17  N   UNL     1      -7.194  -0.775   0.069  0.00  0.00    -0.306 N 
ATOM     18  C   UNL     1      -8.400  -1.376   0.078  0.00  0.00    +0.220 C 
ATOM     19  O   UNL     1      -8.475  -2.586   0.072  0.00  0.00    -0.275 OA
ATOM     20  H   UNL     1      -7.126   0.323   0.074  0.00  0.00    +0.149 HD
BRANCH  18  21
ATOM     21  C   UNL     1      -9.656  -0.544   0.095  0.00  0.00    +0.048 C 
ATOM     22  C   UNL     1      -9.671   0.333   1.349  0.00  0.00    +0.019 C 
ATOM     23  C   UNL     1     -10.946   1.177   1.366  0.00  0.00    -0.009 C 
ATOM     24  C   UNL     1     -12.168   0.257   1.373  0.00  0.00    +0.007 C 
ATOM     25  C   UNL     1     -12.154  -0.620   0.119  0.00  0.00    -0.009 C 
ATOM     26  C   UNL     1     -10.878  -1.464   0.102  0.00  0.00    +0.019 C 
ATOM     27  C   UNL     1     -12.193   0.270  -1.125  0.00  0.00    +0.007 C 
ATOM     28  C   UNL     1     -10.971   1.191  -1.132  0.00  0.00    -0.009 C 
ATOM     29  C   UNL     1     -10.985   2.067   0.122  0.00  0.00    +0.007 C 
ATOM     30  C   UNL     1      -9.696   0.346  -1.149  0.00  0.00    +0.019 C 
ENDBRANCH  18  21
ENDBRANCH  16  17
ENDBRANCH   2  16
TORSDOF 5
