REMARK  Name = ZINC50930177
REMARK  10 active torsions:
REMARK  status: ('A' for Active; 'I' for Inactive)
REMARK    1  A    between atoms: C_1  and  C_2
REMARK    2  A    between atoms: C_2  and  C_3
REMARK    3  A    between atoms: C_3  and  C_5
REMARK    4  A    between atoms: C_3  and  N_6
REMARK    5  A    between atoms: C_7  and  C_9
REMARK    6  A    between atoms: C_13  and  C_15
REMARK    7  A    between atoms: C_15  and  N_16
REMARK    8  A    between atoms: C_18  and  N_24
REMARK    9  A    between atoms: C_20  and  C_23
REMARK   10  A    between atoms: N_21  and  C_22
REMARK                            x       y       z     vdW  Elec       q    Type
REMARK                         _______ _______ _______ _____ _____    ______ ____
ROOT
ATOM      1  C   UNL     1      -1.851   0.959  -5.453  0.00  0.00    +0.037 A 
ATOM      2  C   UNL     1      -3.172   1.186  -5.842  0.00  0.00    +0.013 A 
ATOM      3  C   UNL     1      -3.466   1.423  -7.169  0.00  0.00    +0.001 A 
ATOM      4  C   UNL     1      -2.454   1.435  -8.113  0.00  0.00    +0.005 A 
ATOM      5  C   UNL     1      -1.143   1.211  -7.734  0.00  0.00    -0.028 A 
ATOM      6  C   UNL     1      -0.835   0.978  -6.409  0.00  0.00    +0.018 A 
ENDROOT
BRANCH   1   8
ATOM      7  N   UNL     1      -2.513   0.687  -3.111  0.00  0.00    -0.309 N 
ATOM      8  C   UNL     1      -1.529   0.705  -4.032  0.00  0.00    +0.244 C 
ATOM      9  O   UNL     1      -0.377   0.512  -3.695  0.00  0.00    -0.270 OA
ATOM     10  H   UNL     1      -3.432   0.841  -3.380  0.00  0.00    +0.149 HD
BRANCH   7  11
ATOM     11  C   UNL     1      -2.194   0.435  -1.704  0.00  0.00    +0.070 C 
ATOM     12  C   UNL     1      -2.134  -1.074  -1.456  0.00  0.00    +0.028 C 
BRANCH  11  14
ATOM     13  C   UNL     1      -3.251   2.577  -0.971  0.00  0.00    +0.005 C 
ATOM     14  C   UNL     1      -3.275   1.055  -0.817  0.00  0.00    +0.018 C 
ENDBRANCH  11  14
ENDBRANCH   7  11
ENDBRANCH   1   8
BRANCH   5  15
ATOM     15  C   UNL     1      -0.047   1.225  -8.769  0.00  0.00    +0.149 C 
BRANCH  15  16
ATOM     16  N   UNL     1       0.481   2.585  -8.902  0.00  0.00    -0.369 N 
ATOM     17  C   UNL     1       1.360   2.851  -9.811  0.00  0.00    +0.128 C 
ATOM     18  C   UNL     1       2.091   4.160 -10.041  0.00  0.00    +0.347 C 
ATOM     19  N   UNL     1       2.956   3.882 -11.198  0.00  0.00    -0.234 NA
ATOM     20  C   UNL     1       2.762   2.663 -11.560  0.00  0.00    +0.097 C 
ATOM     21  N   UNL     1       1.847   2.007 -10.786  0.00  0.00    -0.279 N 
ATOM     22  C   UNL     1       1.439   0.612 -10.968  0.00  0.00    +0.138 C 
ATOM     23  C   UNL     1       3.478   2.020 -12.719  0.00  0.00    +0.083 C 
ATOM     24  H   UNL     1       0.171   3.286  -8.307  0.00  0.00    +0.161 HD
BRANCH  18  25
ATOM     25  N   UNL     1       2.897   4.512  -8.869  0.00  0.00    +0.055 N 
ATOM     26  O   UNL     1       4.098   4.375  -8.898  0.00  0.00    -0.129 OA
ATOM     27  O   UNL     1       2.361   4.938  -7.873  0.00  0.00    -0.129 OA
ENDBRANCH  18  25
ENDBRANCH  15  16
ENDBRANCH   5  15
TORSDOF 6
