REMARK  Name = ZINC52884302
REMARK  4 active torsions:
REMARK  status: ('A' for Active; 'I' for Inactive)
REMARK    1  A    between atoms: C_3  and  N_11
REMARK    2  A    between atoms: C_6  and  C_7
REMARK    3  A    between atoms: N_8  and  O_9
REMARK    4  A    between atoms: C_14  and  C_16
REMARK                            x       y       z     vdW  Elec       q    Type
REMARK                         _______ _______ _______ _____ _____    ______ ____
ROOT
ATOM      1  C   UNL     1      -0.037   1.400   0.115  0.00  0.00    +0.013 A 
ATOM      2  C   UNL     1       1.141   2.115   0.136  0.00  0.00    +0.028 A 
ATOM      3  C   UNL     1       2.360   1.450   0.075  0.00  0.00    +0.065 A 
ATOM      4  C   UNL     1       2.395   0.063  -0.008  0.00  0.00    +0.028 A 
ATOM      5  C   UNL     1       1.220  -0.657  -0.029  0.00  0.00    +0.013 A 
ATOM      6  C   UNL     1      -0.005   0.008   0.033  0.00  0.00    +0.018 A 
ENDROOT
BRANCH   6   7
ATOM      7  C   UNL     1      -1.268  -0.763   0.011  0.00  0.00    +0.162 C 
ATOM      8  N   UNL     1      -2.355  -0.217  -0.452  0.00  0.00    -0.072 NA
ATOM      9  N   UNL     1      -1.294  -2.064   0.482  0.00  0.00    -0.340 N 
ATOM     10  H   UNL     1      -0.483  -2.471   0.827  0.00  0.00    +0.144 HD
ATOM     11  H   UNL     1      -2.122  -2.570   0.468  0.00  0.00    +0.144 HD
BRANCH   8  12
ATOM     12  O   UNL     1      -2.302   1.061  -1.060  0.00  0.00    -0.408 OA
ATOM     13  H   UNL     1      -3.159   1.383  -1.372  0.00  0.00    +0.328 HD
ENDBRANCH   8  12
ENDBRANCH   6   7
BRANCH   3  14
ATOM     14  N   UNL     1       3.555   2.179   0.096  0.00  0.00    -0.240 N 
ATOM     15  C   UNL     1       4.809   1.661   0.037  0.00  0.00    +0.115 A 
ATOM     16  C   UNL     1       5.681   2.695   0.084  0.00  0.00    +0.045 A 
ATOM     17  C   UNL     1       4.943   3.880   0.174  0.00  0.00    +0.066 A 
ATOM     18  N   UNL     1       3.671   3.573   0.175  0.00  0.00    -0.171 NA
BRANCH  17  19
ATOM     19  C   UNL     1       5.514   5.272   0.250  0.00  0.00    +0.040 C 
ATOM     20  C   UNL     1       6.995   5.409   0.611  0.00  0.00    +0.010 C 
ATOM     21  C   UNL     1       5.920   5.795   1.629  0.00  0.00    +0.010 C 
ENDBRANCH  17  19
ENDBRANCH   3  14
TORSDOF 4
