REMARK  Name = ZINC46961447
REMARK  9 active torsions:
REMARK  status: ('A' for Active; 'I' for Inactive)
REMARK    1  A    between atoms: C_1  and  C_2
REMARK    2  A    between atoms: C_8  and  C_28
REMARK    3  A    between atoms: C_8  and  C_29
REMARK    4  A    between atoms: C_10  and  N_12
REMARK    5  A    between atoms: N_18  and  C_21
REMARK    6  A    between atoms: C_21  and  C_22
REMARK    7  A    between atoms: N_24  and  C_25
REMARK    8  A    between atoms: C_25  and  C_26
REMARK    9  A    between atoms: C_25  and  C_27
REMARK                            x       y       z     vdW  Elec       q    Type
REMARK                         _______ _______ _______ _____ _____    ______ ____
ROOT
ATOM      1  N   UNL     1      -3.816  -2.262  -0.660  0.00  0.00    -0.292 N 
ATOM      2  C   UNL     1      -3.661  -2.739   0.591  0.00  0.00    +0.303 C 
ATOM      3  O   UNL     1      -2.645  -3.333   0.893  0.00  0.00    -0.253 OA
ATOM      4  N   UNL     1      -4.634  -2.557   1.506  0.00  0.00    -0.283 N 
ATOM      5  C   UNL     1      -4.439  -2.966   2.905  0.00  0.00    +0.124 C 
ATOM      6  C   UNL     1      -4.794  -1.782   3.812  0.00  0.00    +0.104 C 
ATOM      7  N   UNL     1      -6.145  -1.307   3.486  0.00  0.00    -0.291 NA
ATOM      8  C   UNL     1      -6.213  -0.800   2.109  0.00  0.00    +0.104 C 
ATOM      9  C   UNL     1      -5.915  -1.938   1.134  0.00  0.00    +0.124 C 
ATOM     10  H   UNL     1      -4.655  -1.852  -0.923  0.00  0.00    +0.151 HD
ENDROOT
BRANCH   1  20
ATOM     11  C   UNL     1      -3.068  -7.369  -2.542  0.00  0.00    +0.086 C 
ATOM     12  C   UNL     1      -2.902  -5.879  -2.697  0.00  0.00    +0.103 A 
ATOM     13  C   UNL     1      -2.956  -4.972  -1.701  0.00  0.00    +0.050 A 
ATOM     14  C   UNL     1      -2.750  -3.713  -2.292  0.00  0.00    +0.014 A 
ATOM     15  C   UNL     1      -2.580  -3.916  -3.614  0.00  0.00    +0.111 A 
ATOM     16  O   UNL     1      -2.669  -5.230  -3.852  0.00  0.00    -0.464 OA
ATOM     17  C   UNL     1      -2.328  -2.811  -4.611  0.00  0.00    +0.081 C 
ATOM     18  C   UNL     1      -1.891  -1.557  -3.844  0.00  0.00    -0.026 C 
ATOM     19  C   UNL     1      -2.876  -1.285  -2.704  0.00  0.00    +0.034 C 
ATOM     20  C   UNL     1      -2.717  -2.363  -1.624  0.00  0.00    +0.109 C 
ATOM     21  C   UNL     1      -0.491  -1.775  -3.266  0.00  0.00    +0.011 C 
ATOM     22  C   UNL     1      -1.868  -0.359  -4.795  0.00  0.00    +0.011 C 
ENDBRANCH   1  20
BRANCH   7  23
ATOM     23  C   UNL     1      -6.590  -0.287   4.445  0.00  0.00    +0.180 C 
BRANCH  23  24
ATOM     24  C   UNL     1      -8.054  -0.003   4.233  0.00  0.00    +0.227 C 
ATOM     25  O   UNL     1      -8.667  -0.592   3.368  0.00  0.00    -0.274 OA
ATOM     26  N   UNL     1      -8.683   0.906   5.004  0.00  0.00    -0.312 N 
ATOM     27  H   UNL     1      -8.193   1.377   5.696  0.00  0.00    +0.149 HD
BRANCH  26  28
ATOM     28  C   UNL     1     -10.107   1.182   4.797  0.00  0.00    +0.067 C 
ATOM     29  C   UNL     1     -10.717   1.716   6.095  0.00  0.00    +0.027 C 
ATOM     30  C   UNL     1     -10.269   2.226   3.691  0.00  0.00    +0.027 C 
ENDBRANCH  26  28
ENDBRANCH  23  24
ENDBRANCH   7  23
TORSDOF 4
