REMARK  Name = ZINC57994857
REMARK  3 active torsions:
REMARK  status: ('A' for Active; 'I' for Inactive)
REMARK    1  A    between atoms: C_1  and  N_2
REMARK    2  A    between atoms: N_2  and  S_9
REMARK    3  A    between atoms: S_9  and  C_12
REMARK                            x       y       z     vdW  Elec       q    Type
REMARK                         _______ _______ _______ _____ _____    ______ ____
ROOT
ATOM      1  C   UNL     1       1.682  -1.059  -1.905  0.00  0.00    +0.109 A 
ATOM      2  C   UNL     1       2.330  -0.112  -2.677  0.00  0.00    +0.030 A 
ATOM      3  C   UNL     1       3.642  -0.309  -3.030  0.00  0.00    +0.025 A 
ATOM      4  C   UNL     1       4.346  -1.457  -2.629  0.00  0.00    +0.037 A 
ATOM      5  C   UNL     1       3.694  -2.400  -1.863  0.00  0.00    -0.024 A 
ATOM      6  C   UNL     1       2.364  -2.184  -1.501  0.00  0.00    +0.034 A 
ATOM      7  C   UNL     1       4.296  -3.675  -1.370  0.00  0.00    +0.037 C 
ATOM      8  C   UNL     1       5.268  -4.337  -2.297  0.00  0.00    +0.014 C 
ATOM      9  C   UNL     1       6.630  -3.687  -2.305  0.00  0.00    +0.096 C 
ATOM     10  C   UNL     1       6.619  -2.385  -3.022  0.00  0.00    +0.217 C 
ATOM     11  O   UNL     1       7.615  -2.110  -3.658  0.00  0.00    -0.275 OA
ATOM     12  N   UNL     1       5.657  -1.507  -3.044  0.00  0.00    -0.285 N 
ATOM     13  H   UNL     1       5.936  -0.676  -3.459  0.00  0.00    +0.155 HD
ENDROOT
BRANCH   1  14
ATOM     14  S   UNL     1      -0.000  -0.824  -1.437  0.00  0.00    +0.076 S 
ATOM     15  O   UNL     1      -0.531  -2.115  -1.167  0.00  0.00    -0.150 OA
ATOM     16  O   UNL     1      -0.572   0.049  -2.401  0.00  0.00    -0.150 OA
BRANCH  14  18
ATOM     17  C   UNL     1      -0.018   1.461   0.010  0.00  0.00    +0.159 C 
ATOM     18  N   UNL     1       0.002  -0.004   0.002  0.00  0.00    -0.189 N 
ATOM     19  C   UNL     1       0.023  -0.706   1.202  0.00  0.00    +0.140 A 
ATOM     20  C   UNL     1       0.019  -0.010   2.407  0.00  0.00    +0.045 A 
ATOM     21  C   UNL     1       0.040  -0.721   3.594  0.00  0.00    +0.005 A 
ATOM     22  C   UNL     1       0.064  -2.108   3.535  0.00  0.00    +0.020 A 
ATOM     23  C   UNL     1       0.067  -2.733   2.304  0.00  0.00    +0.113 A 
ATOM     24  N   UNL     1       0.041  -2.029   1.188  0.00  0.00    -0.239 NA
ENDBRANCH  14  18
ENDBRANCH   1  14
TORSDOF 2
