REMARK  Name = ZINC67013346
REMARK  5 active torsions:
REMARK  status: ('A' for Active; 'I' for Inactive)
REMARK    1  A    between atoms: C_9  and  N_11
REMARK    2  A    between atoms: N_14  and  C_15
REMARK    3  A    between atoms: C_15  and  C_16
REMARK    4  A    between atoms: C_16  and  C_17
REMARK    5  A    between atoms: C_17  and  C_18
REMARK                            x       y       z     vdW  Elec       q    Type
REMARK                         _______ _______ _______ _____ _____    ______ ____
ROOT
ATOM      1  N   UNL     1       1.199  -2.091  -0.021  0.00  0.00    -0.268 N 
ATOM      2  C   UNL     1       0.040  -2.770   0.087  0.00  0.00    +0.304 C 
ATOM      3  O   UNL     1      -1.018  -2.169   0.101  0.00  0.00    -0.253 OA
ATOM      4  N   UNL     1       0.052  -4.114   0.181  0.00  0.00    -0.299 N 
ATOM      5  H   UNL     1       2.036  -2.573  -0.114  0.00  0.00    +0.156 HD
ATOM      6  H   UNL     1       0.895  -4.593   0.171  0.00  0.00    +0.150 HD
ENDROOT
BRANCH   1  15
ATOM      7  C   UNL     1       0.155   1.379   0.645  0.00  0.00    +0.003 A 
ATOM      8  C   UNL     1       1.151   2.103   0.064  0.00  0.00    +0.010 A 
ATOM      9  C   UNL     1       2.214   1.444  -0.575  0.00  0.00    +0.002 A 
ATOM     10  C   UNL     1       3.259   2.164  -1.185  0.00  0.00    +0.011 A 
ATOM     11  C   UNL     1       4.261   1.458  -1.789  0.00  0.00    +0.020 A 
ATOM     12  C   UNL     1       4.228   0.065  -1.788  0.00  0.00    +0.111 A 
ATOM     13  N   UNL     1       3.252  -0.601  -1.218  0.00  0.00    -0.253 NA
ATOM     14  C   UNL     1       2.243   0.029  -0.612  0.00  0.00    +0.092 A 
ATOM     15  C   UNL     1       1.196  -0.694  -0.000  0.00  0.00    +0.061 A 
ATOM     16  C   UNL     1       0.171  -0.012   0.618  0.00  0.00    +0.025 A 
ENDBRANCH   1  15
BRANCH   4  17
ATOM     17  C   UNL     1      -1.209  -4.851   0.299  0.00  0.00    +0.106 C 
BRANCH  17  18
ATOM     18  C   UNL     1      -0.916  -6.351   0.390  0.00  0.00    +0.026 C 
BRANCH  18  19
ATOM     19  C   UNL     1      -2.232  -7.121   0.513  0.00  0.00    +0.078 C 
BRANCH  19  20
ATOM     20  C   UNL     1      -1.944  -8.597   0.602  0.00  0.00    +0.134 A 
ATOM     21  N   UNL     1      -1.845  -9.430  -0.401  0.00  0.00    -0.134 NA
ATOM     22  N   UNL     1      -1.584 -10.611   0.041  0.00  0.00    -0.134 NA
ATOM     23  C   UNL     1      -1.501 -10.582   1.340  0.00  0.00    +0.133 A 
ATOM     24  N   UNL     1      -1.733  -9.307   1.732  0.00  0.00    -0.315 N 
ATOM     25  C   UNL     1      -1.766  -8.811   3.108  0.00  0.00    +0.125 C 
ATOM     26  C   UNL     1      -0.856  -9.677   3.982  0.00  0.00    +0.022 C 
ATOM     27  C   UNL     1      -1.651 -10.852   4.549  0.00  0.00    +0.002 C 
ATOM     28  C   UNL     1      -2.184 -11.731   3.422  0.00  0.00    +0.008 C 
ATOM     29  C   UNL     1      -1.194 -11.736   2.260  0.00  0.00    +0.076 C 
ENDBRANCH  19  20
ENDBRANCH  18  19
ENDBRANCH  17  18
ENDBRANCH   4  17
TORSDOF 5
