REMARK  Name = ZINC27271475
REMARK  9 active torsions:
REMARK  status: ('A' for Active; 'I' for Inactive)
REMARK    1  A    between atoms: C_1  and  O_2
REMARK    2  A    between atoms: O_2  and  C_3
REMARK    3  A    between atoms: C_7  and  C_11
REMARK    4  A    between atoms: C_8  and  O_9
REMARK    5  A    between atoms: O_9  and  C_10
REMARK    6  A    between atoms: C_20  and  C_28
REMARK    7  A    between atoms: C_21  and  N_27
REMARK    8  A    between atoms: C_22  and  C_23
REMARK    9  A    between atoms: C_22  and  C_25
REMARK                            x       y       z     vdW  Elec       q    Type
REMARK                         _______ _______ _______ _____ _____    ______ ____
ROOT
ATOM      1  C   UNL     1      -2.549  -4.175   0.017  0.00  0.00    +0.070 C 
ATOM      2  C   UNL     1      -3.176  -4.662   1.325  0.00  0.00    +0.030 C 
ATOM      3  C   UNL     1      -2.510  -4.045   2.532  0.00  0.00    +0.009 C 
ATOM      4  C   UNL     1      -1.485  -4.987   3.161  0.00  0.00    +0.005 C 
ATOM      5  C   UNL     1      -2.205  -6.279   3.572  0.00  0.00    +0.027 C 
ATOM      6  C   UNL     1      -2.773  -6.905   2.325  0.00  0.00    -0.022 C 
ATOM      7  C   UNL     1      -3.160  -6.162   1.326  0.00  0.00    -0.029 C 
ATOM      8  C   UNL     1      -3.595  -6.839   0.076  0.00  0.00    +0.074 C 
ATOM      9  C   UNL     1      -3.695  -6.120  -1.070  0.00  0.00    +0.054 C 
ATOM     10  C   UNL     1      -3.410  -4.650  -1.155  0.00  0.00    +0.188 C 
ENDROOT
BRANCH   1  15
ATOM     11  C   UNL     1      -1.235  -0.636  -0.264  0.00  0.00    +0.162 A 
ATOM     12  C   UNL     1      -2.374   0.099   0.021  0.00  0.00    +0.049 A 
ATOM     13  C   UNL     1      -3.562  -0.548   0.302  0.00  0.00    +0.004 A 
ATOM     14  C   UNL     1      -3.618  -1.929   0.300  0.00  0.00    +0.008 A 
ATOM     15  C   UNL     1      -2.485  -2.669   0.017  0.00  0.00    +0.004 A 
ATOM     16  C   UNL     1      -1.292  -2.027  -0.271  0.00  0.00    +0.165 A 
BRANCH  11  18
ATOM     17  C   UNL     1      -0.080   1.428  -0.515  0.00  0.00    +0.277 C 
ATOM     18  O   UNL     1      -0.065  -0.001  -0.541  0.00  0.00    -0.491 OA
ENDBRANCH  11  18
BRANCH  16  19
ATOM     19  O   UNL     1      -0.178  -2.753  -0.556  0.00  0.00    -0.491 OA
ATOM     20  C   UNL     1       0.656  -3.119   0.545  0.00  0.00    +0.277 C 
ENDBRANCH  16  19
ENDBRANCH   1  15
BRANCH   9  21
ATOM     21  N   UNL     1      -4.074  -6.771  -2.211  0.00  0.00    -0.358 N 
ATOM     22  H   UNL     1      -4.263  -7.722  -2.187  0.00  0.00    +0.142 HD
ATOM     23  H   UNL     1      -4.154  -6.281  -3.045  0.00  0.00    +0.142 HD
ENDBRANCH   9  21
BRANCH  10  24
ATOM     24  C   UNL     1      -4.685  -3.914  -1.144  0.00  0.00    +0.091 C 
ATOM     25  N   UNL     1      -5.668  -3.347  -1.135  0.00  0.00    -0.194 NA
ENDBRANCH  10  24
BRANCH  10  26
ATOM     26  C   UNL     1      -2.704  -4.367  -2.415  0.00  0.00    +0.091 C 
ATOM     27  N   UNL     1      -2.160  -4.148  -3.388  0.00  0.00    -0.194 NA
ENDBRANCH  10  26
BRANCH   8  28
ATOM     28  C   UNL     1      -3.904  -8.238   0.081  0.00  0.00    +0.101 C 
ATOM     29  N   UNL     1      -4.149  -9.347   0.086  0.00  0.00    -0.191 NA
ENDBRANCH   8  28
TORSDOF 7
