REMARK  Name = ZINC20028398
REMARK  6 active torsions:
REMARK  status: ('A' for Active; 'I' for Inactive)
REMARK    1  A    between atoms: C_4  and  C_7
REMARK    2  A    between atoms: C_7  and  N_8
REMARK    3  A    between atoms: N_18  and  C_20
REMARK    4  A    between atoms: C_20  and  C_21
REMARK    5  A    between atoms: N_29  and  C_31
REMARK    6  A    between atoms: C_31  and  C_32
REMARK                            x       y       z     vdW  Elec       q    Type
REMARK                         _______ _______ _______ _____ _____    ______ ____
ROOT
ATOM      1  N   UNL     1      -2.993   4.114  -1.335  0.00  0.00    +0.408 N 
ATOM      2  C   UNL     1      -4.375   4.614  -1.366  0.00  0.00    -0.030 C 
ATOM      3  C   UNL     1      -4.732   5.022  -2.772  0.00  0.00    +0.020 A 
ATOM      4  C   UNL     1      -3.746   5.245  -3.717  0.00  0.00    +0.130 A 
ATOM      5  C   UNL     1      -4.093   5.625  -5.009  0.00  0.00    +0.050 A 
ATOM      6  C   UNL     1      -5.426   5.777  -5.350  0.00  0.00    +0.135 A 
ATOM      7  C   UNL     1      -6.417   5.553  -4.401  0.00  0.00    +0.020 A 
ATOM      8  C   UNL     1      -6.070   5.175  -3.115  0.00  0.00    +0.127 A 
ATOM      9  O   UNL     1      -7.025   4.944  -2.175  0.00  0.00    -0.509 OA
ATOM     10  C   UNL     1      -8.335   5.450  -2.440  0.00  0.00    +0.158 C 
ATOM     11  N   UNL     1      -8.723   5.058  -3.805  0.00  0.00    +0.408 N 
ATOM     12  C   UNL     1      -7.863   5.731  -4.790  0.00  0.00    -0.030 C 
ATOM     13  O   UNL     1      -5.787   6.141  -6.609  0.00  0.00    -0.476 OA
ATOM     14  C   UNL     1      -4.769   6.706  -7.439  0.00  0.00    +0.319 C 
ATOM     15  N   UNL     1      -3.578   5.843  -7.376  0.00  0.00    -0.262 NA
ATOM     16  C   UNL     1      -3.005   5.869  -6.023  0.00  0.00    +0.130 C 
ATOM     17  O   UNL     1      -2.431   5.094  -3.403  0.00  0.00    -0.509 OA
ATOM     18  C   UNL     1      -2.094   5.062  -2.014  0.00  0.00    +0.158 C 
ATOM     19  H   UNL     1      -2.958   3.154  -1.869  0.00  0.00    -0.076 HD
ATOM     20  H   UNL     1      -8.587   3.972  -3.910  0.00  0.00    -0.076 HD
ENDROOT
BRANCH   1  21
ATOM     21  C   UNL     1      -2.553   3.869   0.045  0.00  0.00    -0.038 C 
BRANCH  21  25
ATOM     22  C   UNL     1       1.175   1.783   0.000  0.00  0.00    +0.000 A 
ATOM     23  C   UNL     1      -0.013   1.076   0.008  0.00  0.00    +0.000 A 
ATOM     24  C   UNL     1      -1.219   1.751   0.017  0.00  0.00    +0.002 A 
ATOM     25  C   UNL     1      -1.238   3.133   0.030  0.00  0.00    -0.064 A 
ATOM     26  C   UNL     1      -0.050   3.840   0.022  0.00  0.00    +0.002 A 
ATOM     27  C   UNL     1       1.156   3.165   0.008  0.00  0.00    +0.000 A 
ENDBRANCH  21  25
ENDBRANCH   1  21
BRANCH  11  28
ATOM     28  C   UNL     1     -10.140   5.354  -4.056  0.00  0.00    -0.038 C 
BRANCH  28  29
ATOM     29  C   UNL     1     -10.968   4.858  -2.898  0.00  0.00    -0.064 A 
ATOM     30  C   UNL     1     -11.478   3.574  -2.913  0.00  0.00    +0.002 A 
ATOM     31  C   UNL     1     -12.234   3.118  -1.849  0.00  0.00    +0.000 A 
ATOM     32  C   UNL     1     -12.489   3.950  -0.776  0.00  0.00    +0.000 A 
ATOM     33  C   UNL     1     -11.983   5.237  -0.763  0.00  0.00    +0.000 A 
ATOM     34  C   UNL     1     -11.223   5.691  -1.825  0.00  0.00    +0.002 A 
ENDBRANCH  28  29
ENDBRANCH  11  28
BRANCH  15  35
ATOM     35  C   UNL     1      -2.582   6.247  -8.377  0.00  0.00    +0.123 C 
BRANCH  35  36
ATOM     36  C   UNL     1      -3.260   6.447  -9.708  0.00  0.00    -0.033 A 
ATOM     37  C   UNL     1      -3.373   5.390 -10.592  0.00  0.00    +0.005 A 
ATOM     38  C   UNL     1      -3.999   5.572 -11.811  0.00  0.00    +0.000 A 
ATOM     39  C   UNL     1      -4.503   6.814 -12.150  0.00  0.00    +0.000 A 
ATOM     40  C   UNL     1      -4.386   7.872 -11.268  0.00  0.00    +0.000 A 
ATOM     41  C   UNL     1      -3.764   7.689 -10.047  0.00  0.00    +0.005 A 
ENDBRANCH  35  36
ENDBRANCH  15  35
TORSDOF 6
