REMARK  Name = ZINC27902564
REMARK  13 active torsions:
REMARK  status: ('A' for Active; 'I' for Inactive)
REMARK    1  A    between atoms: C_1  and  C_2
REMARK    2  A    between atoms: C_2  and  O_3
REMARK    3  A    between atoms: O_3  and  C_4
REMARK    4  A    between atoms: C_4  and  C_6
REMARK    5  A    between atoms: C_7  and  C_30
REMARK    6  A    between atoms: C_10  and  N_11
REMARK    7  A    between atoms: C_12  and  C_14
REMARK    8  A    between atoms: C_14  and  C_16
REMARK    9  A    between atoms: C_14  and  N_17
REMARK   10  A    between atoms: N_20  and  C_23
REMARK   11  A    between atoms: C_23  and  C_24
REMARK   12  A    between atoms: N_26  and  C_27
REMARK   13  A    between atoms: C_27  and  C_28
REMARK                            x       y       z     vdW  Elec       q    Type
REMARK                         _______ _______ _______ _____ _____    ______ ____
ROOT
ATOM      1  N   UNL     1      -3.076   7.699  -0.230  0.00  0.00    -0.278 N 
ATOM      2  C   UNL     1      -3.345   9.018  -0.302  0.00  0.00    +0.235 C 
ATOM      3  O   UNL     1      -2.778   9.794   0.436  0.00  0.00    -0.274 OA
ATOM      4  H   UNL     1      -3.590   6.995  -0.900  0.00  0.00    +0.155 HD
ENDROOT
BRANCH   1   9
ATOM      5  C   UNL     1      -1.745   5.921   0.910  0.00  0.00    +0.096 A 
ATOM      6  C   UNL     1      -0.751   5.711   1.947  0.00  0.00    +0.012 A 
ATOM      7  C   UNL     1      -0.315   6.817   2.606  0.00  0.00    +0.057 A 
ATOM      8  S   UNL     1      -1.225   8.139   1.836  0.00  0.00    -0.080 S 
ATOM      9  C   UNL     1      -2.151   7.231   0.690  0.00  0.00    +0.086 A 
BRANCH   6  10
ATOM     10  C   UNL     1      -0.242   4.363   2.273  0.00  0.00    +0.021 A 
ATOM     11  C   UNL     1       1.053   3.934   2.392  0.00  0.00    +0.016 A 
ATOM     12  C   UNL     1       1.287   2.613   2.708  0.00  0.00    +0.008 A 
ATOM     13  C   UNL     1       0.231   1.780   2.890  0.00  0.00    +0.046 A 
ATOM     14  S   UNL     1      -1.157   2.866   2.606  0.00  0.00    -0.097 S 
ENDBRANCH   6  10
BRANCH   5  15
ATOM     15  C   UNL     1      -2.294   4.808   0.137  0.00  0.00    +0.342 C 
ATOM     16  O   UNL     1      -3.289   4.228   0.528  0.00  0.00    -0.245 OA
BRANCH  15  17
ATOM     17  O   UNL     1      -1.696   4.424  -1.010  0.00  0.00    -0.461 OA
BRANCH  17  19
ATOM     18  C   UNL     1      -1.476   3.041  -2.979  0.00  0.00    +0.048 C 
ATOM     19  C   UNL     1      -2.286   3.329  -1.714  0.00  0.00    +0.229 C 
ENDBRANCH  17  19
ENDBRANCH  15  17
ENDBRANCH   5  15
ENDBRANCH   1   9
BRANCH   2  20
ATOM     20  C   UNL     1      -4.352   9.527  -1.302  0.00  0.00    +0.140 C 
ATOM     21  C   UNL     1      -3.749   9.469  -2.707  0.00  0.00    +0.034 C 
BRANCH  20  22
ATOM     22  N   UNL     1      -4.705  10.915  -0.978  0.00  0.00    -0.295 NA
ATOM     23  C   UNL     1      -5.931  11.324  -1.676  0.00  0.00    +0.066 C 
ATOM     24  C   UNL     1      -6.308  12.745  -1.251  0.00  0.00    -0.063 C 
ATOM     25  N   UNL     1      -5.199  13.657  -1.564  0.00  0.00    +0.387 N 
ATOM     26  C   UNL     1      -3.972  13.249  -0.866  0.00  0.00    -0.063 C 
ATOM     27  C   UNL     1      -3.595  11.827  -1.290  0.00  0.00    +0.066 C 
ATOM     28  H   UNL     1      -5.008  13.602  -2.646  0.00  0.00    -0.081 HD
BRANCH  25  29
ATOM     29  C   UNL     1      -5.551  15.046  -1.240  0.00  0.00    +0.019 C 
BRANCH  29  30
ATOM     30  C   UNL     1      -4.501  15.974  -1.794  0.00  0.00    +0.197 C 
ATOM     31  O   UNL     1      -3.608  15.534  -2.487  0.00  0.00    -0.278 OA
ATOM     32  N   UNL     1      -4.553  17.292  -1.518  0.00  0.00    -0.313 N 
ATOM     33  H   UNL     1      -5.363  17.691  -0.889  0.00  0.00    +0.149 HD
BRANCH  32  34
ATOM     34  C   UNL     1      -3.532  18.194  -2.057  0.00  0.00    +0.131 C 
BRANCH  34  35
ATOM     35  C   UNL     1      -3.817  19.603  -1.605  0.00  0.00    -0.016 C 
ATOM     36  C   UNL     1      -2.896  20.287  -0.974  0.00  0.00    +0.005 C 
ENDBRANCH  34  35
ENDBRANCH  32  34
ENDBRANCH  29  30
ENDBRANCH  25  29
ENDBRANCH  20  22
ENDBRANCH   2  20
TORSDOF 11
