REMARK  Name = ZINC35991399
REMARK  11 active torsions:
REMARK  status: ('A' for Active; 'I' for Inactive)
REMARK    1  A    between atoms: C_1  and  C_2
REMARK    2  A    between atoms: C_2  and  O_3
REMARK    3  A    between atoms: O_3  and  C_4
REMARK    4  A    between atoms: C_4  and  C_6
REMARK    5  A    between atoms: C_7  and  C_23
REMARK    6  A    between atoms: N_8  and  C_22
REMARK    7  A    between atoms: C_12  and  C_14
REMARK    8  A    between atoms: C_23  and  N_24
REMARK    9  A    between atoms: N_24  and  C_25
REMARK   10  A    between atoms: N_24  and  C_26
REMARK   11  A    between atoms: C_26  and  C_27
REMARK                            x       y       z     vdW  Elec       q    Type
REMARK                         _______ _______ _______ _____ _____    ______ ____
ROOT
ATOM      1  C   UNL     1       1.345  -3.057  -2.652  0.00  0.00    +0.077 C 
ATOM      2  C   UNL     1       1.829  -4.317  -2.681  0.00  0.00    +0.010 C 
ATOM      3  N   UNL     1       2.838  -4.665  -3.533  0.00  0.00    -0.264 N 
ATOM      4  C   UNL     1       3.416  -3.811  -4.387  0.00  0.00    +0.307 C 
ATOM      5  O   UNL     1       4.309  -4.214  -5.107  0.00  0.00    -0.252 OA
ATOM      6  N   UNL     1       3.041  -2.520  -4.474  0.00  0.00    -0.288 N 
ATOM      7  C   UNL     1       1.955  -2.045  -3.600  0.00  0.00    +0.145 C 
ATOM      8  C   UNL     1       3.314  -6.050  -3.511  0.00  0.00    +0.139 C 
ATOM      9  H   UNL     1       3.474  -1.918  -5.099  0.00  0.00    +0.151 HD
ENDROOT
BRANCH   7  10
ATOM     10  C   UNL     1       0.853  -1.504  -4.474  0.00  0.00    -0.003 A 
ATOM     11  C   UNL     1       0.572  -2.107  -5.686  0.00  0.00    +0.007 A 
ATOM     12  C   UNL     1      -0.439  -1.611  -6.488  0.00  0.00    +0.002 A 
ATOM     13  C   UNL     1      -1.170  -0.510  -6.079  0.00  0.00    +0.021 A 
ATOM     14  C   UNL     1      -0.890   0.094  -4.867  0.00  0.00    +0.060 A 
ATOM     15  C   UNL     1       0.119  -0.407  -4.061  0.00  0.00    +0.064 A 
ATOM     16 CL   UNL     1       0.466   0.346  -2.536  0.00  0.00    -0.082 Cl
ATOM     17 CL   UNL     1      -1.807   1.476  -4.354  0.00  0.00    -0.082 Cl
ENDBRANCH   7  10
BRANCH   1  18
ATOM     18  C   UNL     1       0.299  -2.695  -1.770  0.00  0.00    +0.339 C 
ATOM     19  O   UNL     1      -0.836  -2.575  -2.190  0.00  0.00    -0.245 OA
BRANCH  18  20
ATOM     20  O   UNL     1       0.562  -2.484  -0.464  0.00  0.00    -0.462 OA
BRANCH  20  22
ATOM     21  C   UNL     1      -0.053  -1.925   1.806  0.00  0.00    +0.048 C 
ATOM     22  C   UNL     1      -0.542  -2.122   0.369  0.00  0.00    +0.229 C 
ENDBRANCH  20  22
ENDBRANCH  18  20
ENDBRANCH   1  18
BRANCH   2  23
ATOM     23  C   UNL     1       1.247  -5.356  -1.758  0.00  0.00    -0.026 C 
BRANCH  23  24
ATOM     24  N   UNL     1       0.040  -5.931  -2.367  0.00  0.00    +0.384 N 
ATOM     25  C   UNL     1       0.405  -6.645  -3.598  0.00  0.00    -0.095 C 
ATOM     26  H   UNL     1      -0.611  -5.192  -2.587  0.00  0.00    -0.081 HD
BRANCH  24  27
ATOM     27  C   UNL     1      -0.585  -6.869  -1.424  0.00  0.00    -0.043 C 
BRANCH  27  28
ATOM     28  C   UNL     1      -1.887  -7.365  -1.998  0.00  0.00    -0.064 A 
ATOM     29  C   UNL     1      -3.060  -6.680  -1.744  0.00  0.00    +0.002 A 
ATOM     30  C   UNL     1      -4.255  -7.136  -2.271  0.00  0.00    +0.000 A 
ATOM     31  C   UNL     1      -4.275  -8.276  -3.052  0.00  0.00    +0.000 A 
ATOM     32  C   UNL     1      -3.102  -8.961  -3.307  0.00  0.00    +0.000 A 
ATOM     33  C   UNL     1      -1.907  -8.503  -2.784  0.00  0.00    +0.002 A 
ENDBRANCH  27  28
ENDBRANCH  24  27
ENDBRANCH  23  24
ENDBRANCH   2  23
TORSDOF 8
