REMARK  Name = ZINC17794106
REMARK  10 active torsions:
REMARK  status: ('A' for Active; 'I' for Inactive)
REMARK    1  A    between atoms: C_1  and  N_65
REMARK    2  A    between atoms: C_2  and  N_65
REMARK    3  A    between atoms: C_3  and  C_5
REMARK    4  A    between atoms: C_3  and  C_12
REMARK    5  A    between atoms: C_3  and  N_65
REMARK    6  A    between atoms: C_5  and  C_6
REMARK    7  A    between atoms: C_12  and  N_13
REMARK    8  A    between atoms: C_14  and  C_16
REMARK    9  A    between atoms: C_19  and  S_22
REMARK   10  A    between atoms: S_22  and  N_25
REMARK                            x       y       z     vdW  Elec       q    Type
REMARK                         _______ _______ _______ _____ _____    ______ ____
ROOT
ATOM      1  C   UNL     1      -6.419  -1.013   4.472  0.00  0.00    +0.037 A 
ATOM      2  C   UNL     1      -5.475  -0.935   5.497  0.00  0.00    +0.015 A 
ATOM      3  C   UNL     1      -5.809  -1.344   6.771  0.00  0.00    +0.029 A 
ATOM      4  C   UNL     1      -7.074  -1.842   7.032  0.00  0.00    +0.109 A 
ATOM      5  C   UNL     1      -8.013  -1.927   6.019  0.00  0.00    +0.029 A 
ATOM      6  C   UNL     1      -7.693  -1.516   4.742  0.00  0.00    +0.015 A 
ENDROOT
BRANCH   1   8
ATOM      7  N   UNL     1      -4.839  -0.086   2.848  0.00  0.00    -0.313 N 
ATOM      8  C   UNL     1      -6.070  -0.571   3.105  0.00  0.00    +0.244 C 
ATOM      9  O   UNL     1      -6.892  -0.645   2.213  0.00  0.00    -0.270 OA
ATOM     10  H   UNL     1      -4.182  -0.027   3.560  0.00  0.00    +0.149 HD
BRANCH   7  11
ATOM     11  C   UNL     1      -4.492   0.353   1.494  0.00  0.00    +0.089 C 
BRANCH  11  12
ATOM     12  C   UNL     1      -3.020   0.766   1.453  0.00  0.00    -0.048 C 
BRANCH  12  15
ATOM     13  C   UNL     1      -2.587  -0.107  -0.764  0.00  0.00    -0.096 C 
ATOM     14  C   UNL     1      -3.563   2.093  -0.499  0.00  0.00    -0.096 C 
ATOM     15  N   UNL     1      -2.617   1.111   0.073  0.00  0.00    +0.379 N 
ATOM     16  H   UNL     1      -1.678   1.526   0.093  0.00  0.00    -0.082 HD
ENDBRANCH  12  15
BRANCH  12  17
ATOM     17  C   UNL     1      -2.809   1.989   2.348  0.00  0.00    +0.021 C 
BRANCH  17  18
ATOM     18  C   UNL     1      -1.340   2.322   2.405  0.00  0.00    -0.049 A 
ATOM     19  C   UNL     1      -0.792   3.192   1.481  0.00  0.00    +0.003 A 
ATOM     20  C   UNL     1       0.553   3.502   1.537  0.00  0.00    +0.000 A 
ATOM     21  C   UNL     1       1.353   2.938   2.513  0.00  0.00    +0.000 A 
ATOM     22  C   UNL     1       0.807   2.063   3.433  0.00  0.00    +0.000 A 
ATOM     23  C   UNL     1      -0.539   1.753   3.378  0.00  0.00    +0.003 A 
ENDBRANCH  17  18
ENDBRANCH  12  17
ENDBRANCH  11  12
ENDBRANCH   7  11
ENDBRANCH   1   8
BRANCH   4  24
ATOM     24  S   UNL     1      -7.491  -2.369   8.661  0.00  0.00    +0.075 S 
ATOM     25  O   UNL     1      -6.619  -1.679   9.546  0.00  0.00    -0.150 OA
ATOM     26  O   UNL     1      -8.905  -2.284   8.765  0.00  0.00    -0.150 OA
BRANCH  24  27
ATOM     27  N   UNL     1      -7.103  -3.975   8.770  0.00  0.00    -0.203 N 
ATOM     28  C   UNL     1      -8.122  -5.006   8.533  0.00  0.00    +0.132 C 
ATOM     29  C   UNL     1      -7.986  -6.068   9.626  0.00  0.00    +0.025 C 
ATOM     30  C   UNL     1      -6.611  -6.727   9.510  0.00  0.00    +0.038 C 
ATOM     31  C   UNL     1      -5.528  -5.682   9.459  0.00  0.00    -0.025 A 
ATOM     32  C   UNL     1      -5.802  -4.372   9.096  0.00  0.00    +0.054 A 
ATOM     33  C   UNL     1      -4.777  -3.433   9.054  0.00  0.00    +0.025 A 
ATOM     34  C   UNL     1      -3.487  -3.804   9.375  0.00  0.00    +0.002 A 
ATOM     35  C   UNL     1      -3.215  -5.110   9.739  0.00  0.00    +0.000 A 
ATOM     36  C   UNL     1      -4.231  -6.045   9.781  0.00  0.00    +0.005 A 
ENDBRANCH  24  27
ENDBRANCH   4  24
TORSDOF 8
