REMARK  Name = ZINC32695902
REMARK  4 active torsions:
REMARK  status: ('A' for Active; 'I' for Inactive)
REMARK    1  A    between atoms: C_4  and  C_7
REMARK    2  A    between atoms: C_11  and  C_19
REMARK    3  A    between atoms: C_12  and  N_13
REMARK    4  A    between atoms: N_20  and  N_21
REMARK                            x       y       z     vdW  Elec       q    Type
REMARK                         _______ _______ _______ _____ _____    ______ ____
ROOT
ATOM      1  C   UNL     1       3.687  -0.672   0.146  0.00  0.00    +0.013 C 
ATOM      2  C   UNL     1       3.715  -2.025   0.145  0.00  0.00    -0.025 C 
ATOM      3  C   UNL     1       4.958  -2.881   0.217  0.00  0.00    +0.042 C 
ATOM      4  C   UNL     1       4.443  -4.330   0.185  0.00  0.00    +0.043 C 
ATOM      5  C   UNL     1       2.940  -4.211   0.097  0.00  0.00    -0.006 C 
ATOM      6  C   UNL     1       2.589  -2.869   0.083  0.00  0.00    +0.038 C 
ENDROOT
BRANCH   1  10
ATOM      7  C   UNL     1       0.094   1.376   1.084  0.00  0.00    +0.000 A 
ATOM      8  C   UNL     1       0.478   0.279   1.837  0.00  0.00    +0.001 A 
ATOM      9  C   UNL     1       1.645  -0.392   1.538  0.00  0.00    +0.008 A 
ATOM     10  C   UNL     1       2.441   0.038   0.471  0.00  0.00    -0.025 A 
ATOM     11  C   UNL     1       2.046   1.147  -0.285  0.00  0.00    +0.008 A 
ATOM     12  C   UNL     1       0.877   1.808   0.027  0.00  0.00    +0.001 A 
ENDBRANCH   1  10
BRANCH   6  13
ATOM     13  N   UNL     1       1.292  -2.415   0.014  0.00  0.00    -0.325 N 
ATOM     14  C   UNL     1       0.849  -1.553  -1.093  0.00  0.00    +0.133 C 
ATOM     15  C   UNL     1      -0.433  -2.150  -1.687  0.00  0.00    +0.178 C 
ATOM     16  O   UNL     1      -1.378  -2.372  -0.638  0.00  0.00    -0.377 OA
ATOM     17  C   UNL     1      -0.948  -3.314   0.348  0.00  0.00    +0.178 C 
ATOM     18  C   UNL     1       0.305  -2.782   1.042  0.00  0.00    +0.133 C 
ENDBRANCH   6  13
BRANCH   5  19
ATOM     19  C   UNL     1       2.053  -5.273   0.042  0.00  0.00    +0.140 C 
ATOM     20  N   UNL     1       2.499  -6.519   0.174  0.00  0.00    -0.157 NA
BRANCH  20  21
ATOM     21  N   UNL     1       1.673  -7.509   0.123  0.00  0.00    -0.144 NA
ATOM     22  C   UNL     1       2.117  -8.751   0.255  0.00  0.00    +0.157 C 
ATOM     23  C   UNL     1       3.512  -9.188   0.470  0.00  0.00    +0.028 A 
ATOM     24  C   UNL     1       4.719  -8.505   0.595  0.00  0.00    +0.012 A 
ATOM     25  C   UNL     1       5.887  -9.210   0.794  0.00  0.00    +0.001 A 
ATOM     26  C   UNL     1       5.860 -10.594   0.869  0.00  0.00    +0.002 A 
ATOM     27  C   UNL     1       4.669 -11.281   0.747  0.00  0.00    +0.024 A 
ATOM     28  C   UNL     1       3.481 -10.588   0.546  0.00  0.00    +0.043 A 
ATOM     29  N   UNL     1       2.170 -11.023   0.392  0.00  0.00    -0.280 N 
ATOM     30  C   UNL     1       1.329  -9.989   0.224  0.00  0.00    +0.269 C 
ATOM     31  O   UNL     1       0.122 -10.066   0.070  0.00  0.00    -0.268 OA
ATOM     32  H   UNL     1       1.897 -11.954   0.408  0.00  0.00    +0.155 HD
ENDBRANCH  20  21
ENDBRANCH   5  19
TORSDOF 4
