REMARK  Name = ZINC53399924
REMARK  4 active torsions:
REMARK  status: ('A' for Active; 'I' for Inactive)
REMARK    1  A    between atoms: C_3  and  C_6
REMARK    2  A    between atoms: C_9  and  S_12
REMARK    3  A    between atoms: S_12  and  C_13
REMARK    4  A    between atoms: C_13  and  C_14
REMARK                            x       y       z     vdW  Elec       q    Type
REMARK                         _______ _______ _______ _____ _____    ______ ____
ROOT
ATOM      1  C   UNL     1       7.441  -0.543  -0.072  0.00  0.00    +0.173 C 
ENDROOT
BRANCH   1   2
ATOM      2  C   UNL     1       8.818  -1.155  -0.088  0.00  0.00    +0.229 C 
ATOM      3  O   UNL     1       9.798  -0.441  -0.094  0.00  0.00    -0.275 OA
ATOM      4  N   UNL     1       8.960  -2.495  -0.096  0.00  0.00    -0.264 N 
ATOM      5  C   UNL     1      10.230  -3.059  -0.111  0.00  0.00    +0.165 A 
ATOM      6  N   UNL     1      11.392  -2.452  -0.114  0.00  0.00    -0.229 NA
ATOM      7  C   UNL     1      12.548  -3.130  -0.128  0.00  0.00    +0.054 A 
ATOM      8  C   UNL     1      12.415  -4.477  -0.142  0.00  0.00    +0.014 A 
ATOM      9  S   UNL     1      10.652  -4.689  -0.123  0.00  0.00    -0.057 S 
ATOM     10  C   UNL     1      13.741  -5.174  -0.163  0.00  0.00    +0.045 C 
ATOM     11  C   UNL     1      14.750  -4.084  -0.590  0.00  0.00    +0.011 C 
ATOM     12  C   UNL     1      14.037  -2.796  -0.130  0.00  0.00    +0.056 C 
ATOM     13  H   UNL     1       8.175  -3.066  -0.091  0.00  0.00    +0.157 HD
ENDBRANCH   1   2
BRANCH   1  14
ATOM     14  S   UNL     1       7.582   1.266  -0.065  0.00  0.00    -0.077 S 
BRANCH  14  18
ATOM     15  C   UNL     1       3.740   1.825  -0.024  0.00  0.00    +0.189 A 
ATOM     16  N   UNL     1       4.842   1.059  -0.039  0.00  0.00    -0.200 NA
ATOM     17  H   UNL     1       6.073   3.900  -0.038  0.00  0.00    +0.191 HD
ATOM     18  C   UNL     1       5.911   1.824  -0.046  0.00  0.00    +0.185 A 
ATOM     19  N   UNL     1       5.505   3.113  -0.036  0.00  0.00    -0.253 N 
ATOM     20  N   UNL     1       4.102   3.090  -0.027  0.00  0.00    -0.151 NA
BRANCH  15  23
ATOM     21  C   UNL     1      -0.016   1.353   0.009  0.00  0.00    +0.008 A 
ATOM     22  C   UNL     1       1.178   2.041   0.002  0.00  0.00    +0.019 A 
ATOM     23  C   UNL     1       2.347   1.329  -0.013  0.00  0.00    +0.058 A 
ATOM     24  S   UNL     1       1.752  -0.354  -0.017  0.00  0.00    -0.093 S 
ATOM     25  C   UNL     1       0.002  -0.004   0.002  0.00  0.00    +0.046 A 
ENDBRANCH  15  23
ENDBRANCH  14  18
ENDBRANCH   1  14
TORSDOF 4
