REMARK  Name = ZINC41084143
REMARK  7 active torsions:
REMARK  status: ('A' for Active; 'I' for Inactive)
REMARK    1  A    between atoms: C_1  and  C_2
REMARK    2  A    between atoms: C_2  and  S_3
REMARK    3  A    between atoms: S_3  and  C_6
REMARK    4  A    between atoms: C_12  and  C_13
REMARK    5  A    between atoms: C_16  and  O_19
REMARK    6  A    between atoms: O_19  and  C_20
REMARK    7  A    between atoms: C_20  and  C_22
REMARK                            x       y       z     vdW  Elec       q    Type
REMARK                         _______ _______ _______ _____ _____    ______ ____
ROOT
ATOM      1  C   UNL     1      -3.628  -3.779  -0.505  0.00  0.00    +0.235 C 
ATOM      2  N   UNL     1      -2.881  -4.095   0.513  0.00  0.00    -0.145 NA
ATOM      3  N   UNL     1      -2.644  -5.412   0.845  0.00  0.00    -0.150 N 
ATOM      4  C   UNL     1      -1.928  -5.862   1.975  0.00  0.00    +0.153 C 
ATOM      5  N   UNL     1      -1.759  -5.142   3.052  0.00  0.00    -0.283 NA
ATOM      6  C   UNL     1      -1.383  -7.241   1.818  0.00  0.00    +0.081 C 
ATOM      7  C   UNL     1      -0.194  -7.621   2.397  0.00  0.00    +0.024 C 
ATOM      8  C   UNL     1      -2.193  -8.182   1.005  0.00  0.00    +0.273 C 
ATOM      9  O   UNL     1      -2.111  -9.388   1.172  0.00  0.00    -0.268 OA
ATOM     10  N   UNL     1      -3.022  -7.666   0.076  0.00  0.00    -0.152 NA
ATOM     11  C   UNL     1      -3.182  -6.368   0.011  0.00  0.00    +0.182 C 
ATOM     12  S   UNL     1      -4.101  -5.381  -1.141  0.00  0.00    -0.015 S 
ATOM     13  H   UNL     1      -2.135  -4.250   3.102  0.00  0.00    +0.188 HD
ENDROOT
BRANCH   7  14
ATOM     14  C   UNL     1       0.400  -8.919   2.066  0.00  0.00    -0.024 A 
ATOM     15  C   UNL     1       0.403  -9.374   0.740  0.00  0.00    +0.011 A 
ATOM     16  C   UNL     1       0.961 -10.590   0.437  0.00  0.00    +0.047 A 
ATOM     17  C   UNL     1       1.521 -11.371   1.442  0.00  0.00    +0.132 A 
ATOM     18  C   UNL     1       1.521 -10.925   2.759  0.00  0.00    +0.047 A 
ATOM     19  C   UNL     1       0.972  -9.709   3.074  0.00  0.00    +0.011 A 
BRANCH  17  20
ATOM     20  O   UNL     1       2.071 -12.574   1.135  0.00  0.00    -0.422 OA
BRANCH  20  21
ATOM     21  C   UNL     1       3.293 -12.584   0.567  0.00  0.00    +0.346 C 
ATOM     22  O   UNL     1       3.830 -11.538   0.263  0.00  0.00    -0.244 OA
BRANCH  21  23
ATOM     23  C   UNL     1       3.978 -13.867   0.315  0.00  0.00    +0.078 A 
ATOM     24  C   UNL     1       3.361 -15.072   0.659  0.00  0.00    +0.016 A 
ATOM     25  C   UNL     1       4.006 -16.267   0.420  0.00  0.00    +0.001 A 
ATOM     26  C   UNL     1       5.264 -16.275  -0.159  0.00  0.00    +0.001 A 
ATOM     27  C   UNL     1       5.882 -15.087  -0.502  0.00  0.00    +0.021 A 
ATOM     28  C   UNL     1       5.246 -13.883  -0.274  0.00  0.00    +0.055 A 
ATOM     29 CL   UNL     1       6.020 -12.392  -0.712  0.00  0.00    -0.083 Cl
ENDBRANCH  21  23
ENDBRANCH  20  21
ENDBRANCH  17  20
ENDBRANCH   7  14
BRANCH   1  30
ATOM     30  S   UNL     1      -4.066  -2.179  -1.101  0.00  0.00    +0.022 S 
ATOM     31  O   UNL     1      -3.859  -1.311   0.005  0.00  0.00    -0.167 OA
ATOM     32  O   UNL     1      -5.362  -2.343  -1.661  0.00  0.00    -0.167 OA
BRANCH  30  34
ATOM     33  C   UNL     1      -3.148  -0.443  -3.005  0.00  0.00    +0.028 C 
ATOM     34  C   UNL     1      -2.861  -1.823  -2.409  0.00  0.00    +0.171 C 
ENDBRANCH  30  34
ENDBRANCH   1  30
TORSDOF 6
