REMARK  Name = ZINC40724320
REMARK  4 active torsions:
REMARK  status: ('A' for Active; 'I' for Inactive)
REMARK    1  A    between atoms: C_1  and  C_2
REMARK    2  A    between atoms: C_9  and  N_12
REMARK    3  A    between atoms: C_14  and  N_24
REMARK    4  A    between atoms: C_15  and  N_19
REMARK                            x       y       z     vdW  Elec       q    Type
REMARK                         _______ _______ _______ _____ _____    ______ ____
ROOT
ATOM      1  N   UNL     1       0.114  -1.710   3.789  0.00  0.00    -0.296 N 
ATOM      2  C   UNL     1      -0.010  -2.518   4.913  0.00  0.00    +0.149 A 
ATOM      3  C   UNL     1      -0.142  -1.951   6.183  0.00  0.00    +0.106 A 
ATOM      4  C   UNL     1      -0.263  -2.808   7.278  0.00  0.00    +0.147 A 
ATOM      5  N   UNL     1      -0.248  -4.122   7.073  0.00  0.00    -0.219 NA
ATOM      6  C   UNL     1      -0.121  -4.617   5.858  0.00  0.00    +0.225 A 
ATOM      7  N   UNL     1      -0.010  -3.844   4.797  0.00  0.00    -0.219 NA
ATOM      8  H   UNL     1       0.202  -0.749   3.889  0.00  0.00    +0.154 HD
ENDROOT
BRANCH   1  17
ATOM      9  C   UNL     1       2.565   1.522   0.857  0.00  0.00    +0.065 C 
ATOM     10  C   UNL     1       1.905   0.191   0.608  0.00  0.00    +0.039 A 
ATOM     11  C   UNL     1       1.923  -0.346  -0.678  0.00  0.00    +0.023 A 
ATOM     12  C   UNL     1       1.329  -1.552  -0.921  0.00  0.00    +0.012 A 
ATOM     13  C   UNL     1       0.712  -2.217   0.154  0.00  0.00    +0.002 A 
ATOM     14  C   UNL     1       0.082  -3.461  -0.022  0.00  0.00    +0.010 A 
ATOM     15  C   UNL     1      -0.506  -4.080   1.038  0.00  0.00    +0.003 A 
ATOM     16  C   UNL     1      -0.496  -3.500   2.304  0.00  0.00    +0.025 A 
ATOM     17  C   UNL     1       0.111  -2.281   2.516  0.00  0.00    +0.059 A 
ATOM     18  C   UNL     1       0.730  -1.615   1.435  0.00  0.00    +0.092 A 
ATOM     19  N   UNL     1       1.333  -0.435   1.608  0.00  0.00    -0.250 NA
ENDBRANCH   1  17
BRANCH   4  20
ATOM     20  N   UNL     1      -0.397  -2.295   8.563  0.00  0.00    -0.314 N 
ATOM     21  C   UNL     1      -0.346  -0.872   8.928  0.00  0.00    +0.106 C 
ATOM     22  C   UNL     1      -0.515  -0.785  10.459  0.00  0.00    +0.020 C 
ATOM     23  C   UNL     1      -0.085  -2.197  10.937  0.00  0.00    +0.020 C 
ATOM     24  C   UNL     1      -0.619  -3.089   9.785  0.00  0.00    +0.106 C 
ENDBRANCH   4  20
BRANCH   3  25
ATOM     25  N   UNL     1      -0.153  -0.557   6.352  0.00  0.00    -0.353 N 
ATOM     26  H   UNL     1      -0.156   0.026   5.577  0.00  0.00    +0.143 HD
ATOM     27  H   UNL     1      -0.156  -0.177   7.245  0.00  0.00    +0.143 HD
ENDBRANCH   3  25
TORSDOF 3
