REMARK  Name = ZINC06884450
REMARK  6 active torsions:
REMARK  status: ('A' for Active; 'I' for Inactive)
REMARK    1  A    between atoms: C_4  and  N_24
REMARK    2  A    between atoms: C_5  and  C_7
REMARK    3  A    between atoms: N_9  and  C_10
REMARK    4  A    between atoms: C_10  and  N_12
REMARK    5  A    between atoms: N_12  and  C_13
REMARK    6  A    between atoms: C_14  and  C_21
REMARK                            x       y       z     vdW  Elec       q    Type
REMARK                         _______ _______ _______ _____ _____    ______ ____
ROOT
ATOM      1  C   UNL     1      -4.706   0.276   0.382  0.00  0.00    +0.141 C 
ATOM      2  S   UNL     1      -4.636   1.979   0.228  0.00  0.00    -0.018 S 
ENDROOT
BRANCH   1   5
ATOM      3  C   UNL     1      -2.388   0.158   0.131  0.00  0.00    +0.252 C 
ATOM      4  O   UNL     1      -2.339   1.367   0.022  0.00  0.00    -0.270 OA
ATOM      5  N   UNL     1      -3.575  -0.454   0.317  0.00  0.00    -0.263 N 
ATOM      6  H   UNL     1      -3.614  -1.419   0.405  0.00  0.00    +0.157 HD
BRANCH   3  11
ATOM      7  C   UNL     1       0.345  -2.257   1.026  0.00  0.00    +0.001 A 
ATOM      8  C   UNL     1       1.178  -2.140  -0.072  0.00  0.00    +0.002 A 
ATOM      9  C   UNL     1       0.852  -1.281  -1.107  0.00  0.00    +0.033 A 
ATOM     10  C   UNL     1      -0.303  -0.528  -1.045  0.00  0.00    +0.138 A 
ATOM     11  C   UNL     1      -1.148  -0.641   0.060  0.00  0.00    +0.067 A 
ATOM     12  C   UNL     1      -0.815  -1.514   1.099  0.00  0.00    +0.015 A 
BRANCH  10  13
ATOM     13  N   UNL     1      -0.647   0.394  -2.151  0.00  0.00    +0.057 N 
ATOM     14  O   UNL     1       0.143   0.578  -3.059  0.00  0.00    -0.126 OA
ATOM     15  O   UNL     1      -1.724   0.964  -2.155  0.00  0.00    -0.126 OA
ENDBRANCH  10  13
ENDBRANCH   3  11
ENDBRANCH   1   5
BRANCH   1  16
ATOM     16  N   UNL     1      -5.893  -0.336   0.568  0.00  0.00    -0.291 N 
ATOM     17  H   UNL     1      -5.932  -1.301   0.655  0.00  0.00    +0.154 HD
BRANCH  16  18
ATOM     18  C   UNL     1      -7.056   0.414   0.634  0.00  0.00    +0.084 A 
ATOM     19  C   UNL     1      -8.356  -0.028   0.813  0.00  0.00    +0.068 A 
ATOM     20  C   UNL     1      -9.415   0.980   0.850  0.00  0.00    -0.023 A 
ATOM     21  C   UNL     1      -9.000   2.250   0.695  0.00  0.00    -0.004 A 
ATOM     22  S   UNL     1      -7.238   2.130   0.507  0.00  0.00    -0.077 S 
ATOM     23  C   UNL     1     -10.144   3.227   0.742  0.00  0.00    +0.043 C 
ATOM     24  C   UNL     1     -11.305   2.435   1.383  0.00  0.00    +0.010 C 
ATOM     25  C   UNL     1     -10.935   0.984   1.018  0.00  0.00    +0.037 C 
BRANCH  19  26
ATOM     26  C   UNL     1      -8.659  -1.455   0.963  0.00  0.00    +0.244 C 
ATOM     27  O   UNL     1      -8.671  -1.961   2.070  0.00  0.00    -0.270 OA
ATOM     28  N   UNL     1      -8.924  -2.205  -0.124  0.00  0.00    -0.325 N 
ATOM     29  H   UNL     1      -8.915  -1.802  -1.006  0.00  0.00    +0.145 HD
ATOM     30  H   UNL     1      -9.125  -3.149  -0.025  0.00  0.00    +0.145 HD
ENDBRANCH  19  26
ENDBRANCH  16  18
ENDBRANCH   1  16
TORSDOF 6
