REMARK  Name = ZINC67287112
REMARK  4 active torsions:
REMARK  status: ('A' for Active; 'I' for Inactive)
REMARK    1  A    between atoms: N_4  and  C_6
REMARK    2  A    between atoms: C_9  and  N_13
REMARK    3  A    between atoms: N_16  and  C_17
REMARK    4  A    between atoms: C_17  and  C_18
REMARK                            x       y       z     vdW  Elec       q    Type
REMARK                         _______ _______ _______ _____ _____    ______ ____
ROOT
ATOM      1  N   UNL     1       3.119  -5.664  -0.059  0.00  0.00    -0.269 N 
ATOM      2  C   UNL     1       4.437  -5.920  -0.168  0.00  0.00    +0.304 C 
ATOM      3  O   UNL     1       5.237  -5.004  -0.167  0.00  0.00    -0.252 OA
ATOM      4  N   UNL     1       4.870  -7.192  -0.280  0.00  0.00    -0.292 N 
ATOM      5  H   UNL     1       2.487  -6.396   0.018  0.00  0.00    +0.156 HD
ATOM      6  H   UNL     1       4.232  -7.923  -0.282  0.00  0.00    +0.151 HD
ENDROOT
BRANCH   1  10
ATOM      7  C   UNL     1       1.754  -1.724  -0.044  0.00  0.00    +0.084 A 
ATOM      8  C   UNL     1       1.095  -2.690   0.704  0.00  0.00    +0.031 A 
ATOM      9  C   UNL     1       1.546  -3.994   0.699  0.00  0.00    +0.025 A 
ATOM     10  C   UNL     1       2.661  -4.341  -0.054  0.00  0.00    +0.036 A 
ATOM     11  C   UNL     1       3.321  -3.375  -0.803  0.00  0.00    +0.045 A 
ATOM     12  C   UNL     1       2.865  -2.071  -0.802  0.00  0.00    +0.068 A 
ATOM     13 CL   UNL     1       3.686  -0.865  -1.743  0.00  0.00    -0.081 Cl
BRANCH   7  17
ATOM     14  C   UNL     1       0.124   1.397   0.389  0.00  0.00    +0.041 A 
ATOM     15  C   UNL     1       1.155   1.747  -0.490  0.00  0.00    +0.135 A 
ATOM     16  N   UNL     1       1.857   0.672  -0.746  0.00  0.00    -0.175 NA
ATOM     17  N   UNL     1       1.295  -0.398  -0.038  0.00  0.00    -0.238 N 
ATOM     18  C   UNL     1       0.232   0.073   0.651  0.00  0.00    +0.114 A 
ENDBRANCH   7  17
ENDBRANCH   1  10
BRANCH   4  19
ATOM     19  C   UNL     1       6.303  -7.470  -0.400  0.00  0.00    +0.182 C 
BRANCH  19  20
ATOM     20  C   UNL     1       6.518  -8.958  -0.510  0.00  0.00    +0.151 A 
ATOM     21  N   UNL     1       6.698  -9.789   0.480  0.00  0.00    -0.133 NA
ATOM     22  N   UNL     1       6.850 -10.981   0.022  0.00  0.00    -0.134 NA
ATOM     23  C   UNL     1       6.777 -10.963  -1.283  0.00  0.00    +0.134 A 
ATOM     24  N   UNL     1       6.556  -9.682  -1.656  0.00  0.00    -0.313 N 
ATOM     25  C   UNL     1       6.445  -9.567  -3.115  0.00  0.00    +0.125 C 
ATOM     26  C   UNL     1       7.048 -10.872  -3.680  0.00  0.00    +0.029 C 
ATOM     27  C   UNL     1       6.847 -11.852  -2.505  0.00  0.00    +0.078 C 
ENDBRANCH  19  20
ENDBRANCH   4  19
TORSDOF 4
