REMARK  Name = ZINC48310403
REMARK  8 active torsions:
REMARK  status: ('A' for Active; 'I' for Inactive)
REMARK    1  A    between atoms: C_1  and  C_2
REMARK    2  A    between atoms: C_5  and  C_33
REMARK    3  A    between atoms: N_8  and  C_10
REMARK    4  A    between atoms: C_10  and  C_11
REMARK    5  A    between atoms: C_14  and  C_17
REMARK    6  A    between atoms: C_17  and  N_18
REMARK    7  A    between atoms: C_19  and  C_21
REMARK    8  A    between atoms: C_21  and  N_22
REMARK                            x       y       z     vdW  Elec       q    Type
REMARK                         _______ _______ _______ _____ _____    ______ ____
ROOT
ATOM      1  C   UNL     1       7.047  -0.825   1.821  0.00  0.00    +0.139 C 
ENDROOT
BRANCH   1   5
ATOM      2  C   UNL     1       2.971  -2.034   2.241  0.00  0.00    -0.064 A 
ATOM      3  C   UNL     1       3.870  -2.852   1.582  0.00  0.00    +0.002 A 
ATOM      4  C   UNL     1       5.189  -2.460   1.446  0.00  0.00    +0.005 A 
ATOM      5  C   UNL     1       5.609  -1.252   1.969  0.00  0.00    -0.030 A 
ATOM      6  C   UNL     1       4.710  -0.434   2.628  0.00  0.00    +0.005 A 
ATOM      7  C   UNL     1       3.390  -0.823   2.760  0.00  0.00    +0.002 A 
BRANCH   2   8
ATOM      8  C   UNL     1       1.534  -2.461   2.390  0.00  0.00    -0.043 C 
BRANCH   8  14
ATOM      9  C   UNL     1      -0.019   1.526   0.010  0.00  0.00    +0.005 C 
ATOM     10  C   UNL     1       0.002  -0.004   0.002  0.00  0.00    -0.031 C 
ATOM     11  C   UNL     1      -1.434  -0.535   0.015  0.00  0.00    +0.003 C 
ATOM     12  C   UNL     1      -1.402  -2.064   0.086  0.00  0.00    -0.031 C 
ATOM     13  C   UNL     1      -0.613  -2.496   1.324  0.00  0.00    -0.075 C 
ATOM     14  N   UNL     1       0.758  -1.980   1.239  0.00  0.00    +0.383 N 
ATOM     15  C   UNL     1       0.740  -0.512   1.242  0.00  0.00    -0.075 C 
ATOM     16  C   UNL     1      -0.728  -2.620  -1.170  0.00  0.00    +0.005 C 
ATOM     17  H   UNL     1       1.188  -2.307   0.386  0.00  0.00    -0.081 HD
ENDBRANCH   8  14
ENDBRANCH   2   8
ENDBRANCH   1   5
BRANCH   1  18
ATOM     18  N   UNL     1       7.205  -0.064   0.580  0.00  0.00    -0.310 N 
ATOM     19  C   UNL     1       8.415   0.422   0.237  0.00  0.00    +0.235 C 
ATOM     20  O   UNL     1       9.372   0.229   0.956  0.00  0.00    -0.274 OA
ATOM     21  H   UNL     1       6.440   0.090   0.004  0.00  0.00    +0.149 HD
BRANCH  19  22
ATOM     22  C   UNL     1       8.578   1.205  -1.040  0.00  0.00    +0.244 C 
BRANCH  22  23
ATOM     23  N   UNL     1       9.976   1.619  -1.184  0.00  0.00    -0.201 N 
ATOM     24  C   UNL     1      10.854   0.820  -1.834  0.00  0.00    +0.278 A 
ATOM     25  O   UNL     1      10.509  -0.246  -2.308  0.00  0.00    -0.265 OA
ATOM     26  C   UNL     1      12.243   1.292  -1.945  0.00  0.00    +0.068 A 
ATOM     27  C   UNL     1      13.222   0.542  -2.595  0.00  0.00    +0.015 A 
ATOM     28  C   UNL     1      14.509   1.026  -2.674  0.00  0.00    +0.001 A 
ATOM     29  C   UNL     1      14.837   2.252  -2.111  0.00  0.00    +0.002 A 
ATOM     30  C   UNL     1      13.886   3.009  -1.464  0.00  0.00    +0.030 A 
ATOM     31  C   UNL     1      12.573   2.539  -1.371  0.00  0.00    +0.100 A 
ATOM     32  N   UNL     1      11.610   3.258  -0.742  0.00  0.00    -0.131 NA
ATOM     33  N   UNL     1      10.399   2.841  -0.655  0.00  0.00    -0.062 NA
ENDBRANCH  22  23
ENDBRANCH  19  22
ENDBRANCH   1  18
TORSDOF 6
