REMARK  Name = ZINC35851818
REMARK  3 active torsions:
REMARK  status: ('A' for Active; 'I' for Inactive)
REMARK    1  A    between atoms: C_1  and  C_2
REMARK    2  A    between atoms: C_2  and  C_3
REMARK    3  A    between atoms: N_22  and  C_25
REMARK                            x       y       z     vdW  Elec       q    Type
REMARK                         _______ _______ _______ _____ _____    ______ ____
ROOT
ATOM      1  C   UNL     1       0.262  -0.076   1.215  0.00  0.00    -0.047 A 
ATOM      2  C   UNL     1       1.641  -0.084   1.102  0.00  0.00    +0.005 A 
ATOM      3  C   UNL     1       2.424  -0.478   2.167  0.00  0.00    +0.024 A 
ATOM      4  C   UNL     1       1.832  -0.873   3.365  0.00  0.00    +0.039 A 
ATOM      5  C   UNL     1       0.444  -0.864   3.465  0.00  0.00    +0.004 A 
ATOM      6  C   UNL     1      -0.334  -0.462   2.402  0.00  0.00    +0.011 A 
ATOM      7  C   UNL     1       0.130  -1.341   4.855  0.00  0.00    +0.138 C 
ATOM      8  C   UNL     1      -0.728  -2.612   4.828  0.00  0.00    +0.123 C 
ATOM      9  C   UNL     1      -2.179  -2.112   5.069  0.00  0.00    +0.107 C 
ATOM     10  C   UNL     1      -2.058  -0.586   5.234  0.00  0.00    +0.071 C 
ATOM     11  N   UNL     1      -0.639  -0.339   5.612  0.00  0.00    -0.281 NA
ATOM     12  C   UNL     1      -0.590  -0.656   7.059  0.00  0.00    +0.086 C 
ATOM     13  C   UNL     1      -1.931  -0.153   7.630  0.00  0.00    +0.017 C 
ATOM     14  C   UNL     1      -2.917  -0.133   6.429  0.00  0.00    +0.021 C 
ATOM     15  C   UNL     1      -2.880  -2.436   3.769  0.00  0.00    +0.232 C 
ATOM     16  O   UNL     1      -4.045  -2.206   3.525  0.00  0.00    -0.274 OA
ATOM     17  N   UNL     1      -2.014  -3.014   2.929  0.00  0.00    -0.210 N 
ATOM     18  C   UNL     1      -0.765  -3.172   3.424  0.00  0.00    +0.233 C 
ATOM     19  O   UNL     1       0.174  -3.675   2.846  0.00  0.00    -0.274 OA
ATOM     20  C   UNL     1       1.469  -1.600   5.491  0.00  0.00    +0.243 C 
ATOM     21  O   UNL     1       1.670  -1.998   6.619  0.00  0.00    -0.273 OA
ATOM     22  N   UNL     1       2.401  -1.305   4.564  0.00  0.00    -0.283 N 
ATOM     23  H   UNL     1       3.356  -1.384   4.713  0.00  0.00    +0.155 HD
ENDROOT
BRANCH  17  24
ATOM     24  C   UNL     1      -2.371  -3.430   1.638  0.00  0.00    +0.044 A 
ATOM     25  C   UNL     1      -2.765  -2.495   0.691  0.00  0.00    +0.027 A 
ATOM     26  C   UNL     1      -3.117  -2.907  -0.580  0.00  0.00    +0.040 A 
ATOM     27  C   UNL     1      -3.077  -4.251  -0.909  0.00  0.00    +0.124 A 
ATOM     28  C   UNL     1      -2.684  -5.185   0.035  0.00  0.00    +0.040 A 
ATOM     29  C   UNL     1      -2.326  -4.777   1.305  0.00  0.00    +0.027 A 
ATOM     30  F   UNL     1      -3.422  -4.652  -2.152  0.00  0.00    -0.205 F 
ENDBRANCH  17  24
BRANCH   1  32
ATOM     31  C   UNL     1      -0.825   1.867   0.124  0.00  0.00    +0.009 C 
ATOM     32  C   UNL     1      -0.588   0.357   0.049  0.00  0.00    +0.032 C 
ENDBRANCH   1  32
TORSDOF 2
