REMARK  Name = ZINC09015077
REMARK  12 active torsions:
REMARK  status: ('A' for Active; 'I' for Inactive)
REMARK    1  A    between atoms: C_1  and  C_2
REMARK    2  A    between atoms: C_2  and  C_3
REMARK    3  A    between atoms: C_3  and  C_4
REMARK    4  A    between atoms: C_4  and  N_5
REMARK    5  A    between atoms: C_16  and  C_17
REMARK    6  A    between atoms: C_16  and  O_27
REMARK    7  A    between atoms: N_32  and  C_33
REMARK    8  A    between atoms: C_33  and  C_34
REMARK    9  A    between atoms: C_34  and  C_35
REMARK   10  A    between atoms: C_35  and  N_71
REMARK   11  A    between atoms: C_36  and  N_71
REMARK   12  A    between atoms: C_37  and  N_71
REMARK                            x       y       z     vdW  Elec       q    Type
REMARK                         _______ _______ _______ _____ _____    ______ ____
ROOT
ATOM      1  N   UNL     1      -1.792   5.200   2.606  0.00  0.00    -0.269 N 
ATOM      2  C   UNL     1      -0.558   5.692   3.035  0.00  0.00    +0.042 A 
ATOM      3  C   UNL     1       0.559   5.032   3.543  0.00  0.00    +0.024 A 
ATOM      4  C   UNL     1       1.682   5.747   3.905  0.00  0.00    +0.002 A 
ATOM      5  C   UNL     1       1.708   7.123   3.769  0.00  0.00    +0.000 A 
ATOM      6  C   UNL     1       0.607   7.785   3.257  0.00  0.00    +0.008 A 
ATOM      7  C   UNL     1      -0.518   7.075   2.899  0.00  0.00    +0.011 A 
ATOM      8  C   UNL     1      -1.857   7.477   2.341  0.00  0.00    +0.174 C 
ATOM      9  C   UNL     1      -2.612   6.181   2.187  0.00  0.00    +0.253 C 
ATOM     10  O   UNL     1      -3.742   6.048   1.766  0.00  0.00    -0.272 OA
ATOM     11  C   UNL     1      -1.706   8.175   1.016  0.00  0.00    +0.083 C 
ATOM     12  C   UNL     1      -1.107   7.676  -0.125  0.00  0.00    +0.134 C 
ATOM     13  C   UNL     1      -2.301   9.437   1.176  0.00  0.00    +0.250 C 
ATOM     14  O   UNL     1      -2.381  10.303   0.324  0.00  0.00    -0.282 OA
ATOM     15  C   UNL     1      -2.815   9.534   2.570  0.00  0.00    +0.288 C 
ATOM     16  O   UNL     1      -3.386  10.498   3.036  0.00  0.00    -0.266 OA
ATOM     17  N   UNL     1      -2.554   8.394   3.237  0.00  0.00    -0.273 N 
ENDROOT
BRANCH  12  18
ATOM     18  C   UNL     1      -1.174   8.434  -1.383  0.00  0.00    +0.021 A 
ATOM     19  C   UNL     1      -2.407   8.891  -1.863  0.00  0.00    +0.015 A 
ATOM     20  C   UNL     1      -2.466   9.604  -3.039  0.00  0.00    +0.050 A 
ATOM     21  C   UNL     1      -1.305   9.864  -3.760  0.00  0.00    +0.162 A 
ATOM     22  C   UNL     1      -0.074   9.410  -3.290  0.00  0.00    +0.163 A 
ATOM     23  C   UNL     1      -0.006   8.697  -2.108  0.00  0.00    +0.061 A 
ATOM     24  O   UNL     1       1.071   9.665  -3.981  0.00  0.00    -0.485 OA
ATOM     25  C   UNL     1       0.924  10.062  -5.348  0.00  0.00    +0.270 C 
ATOM     26  C   UNL     1      -0.174  11.132  -5.422  0.00  0.00    +0.270 C 
ATOM     27  O   UNL     1      -1.389  10.563  -4.923  0.00  0.00    -0.485 OA
ENDBRANCH  12  18
BRANCH  12  28
ATOM     28  O   UNL     1      -0.459   6.492  -0.084  0.00  0.00    -0.506 OA
ATOM     29  H   UNL     1      -0.087   6.284  -0.989  0.00  0.00    +0.292 HD
ENDBRANCH  12  28
BRANCH   1  30
ATOM     30  C   UNL     1      -2.154   3.780   2.617  0.00  0.00    +0.114 C 
BRANCH  30  31
ATOM     31  C   UNL     1      -1.764   3.144   1.281  0.00  0.00    +0.019 C 
BRANCH  31  33
ATOM     32  C   UNL     1      -1.753   1.026  -0.044  0.00  0.00    +0.004 C 
ATOM     33  C   UNL     1      -2.143   1.662   1.292  0.00  0.00    -0.002 C 
ENDBRANCH  31  33
ENDBRANCH  30  31
ENDBRANCH   1  30
BRANCH  17  34
ATOM     34  C   UNL     1      -2.911   8.120   4.631  0.00  0.00    +0.108 C 
BRANCH  34  35
ATOM     35  C   UNL     1      -1.770   8.566   5.547  0.00  0.00    +0.000 C 
BRANCH  35  36
ATOM     36  C   UNL     1      -2.142   8.280   7.003  0.00  0.00    -0.078 C 
BRANCH  36  39
ATOM     37  C   UNL     1      -0.880  10.167   7.844  0.00  0.00    -0.097 C 
ATOM     38  C   UNL     1      -1.260   8.238   9.258  0.00  0.00    -0.097 C 
ATOM     39  N   UNL     1      -1.022   8.696   7.873  0.00  0.00    +0.376 N 
ATOM     40  H   UNL     1      -0.154   8.271   7.525  0.00  0.00    -0.083 HD
ENDBRANCH  36  39
ENDBRANCH  35  36
ENDBRANCH  34  35
ENDBRANCH  17  34
TORSDOF 9
