REMARK  Name = ZINC45336029
REMARK  5 active torsions:
REMARK  status: ('A' for Active; 'I' for Inactive)
REMARK    1  A    between atoms: C_1  and  C_2
REMARK    2  A    between atoms: C_9  and  C_13
REMARK    3  A    between atoms: C_13  and  S_14
REMARK    4  A    between atoms: S_14  and  C_15
REMARK    5  A    between atoms: C_25  and  C_29
REMARK                            x       y       z     vdW  Elec       q    Type
REMARK                         _______ _______ _______ _____ _____    ______ ____
ROOT
ATOM      1  C   UNL     1       1.588   1.534   6.710  0.00  0.00    +0.191 A 
ATOM      2  N   UNL     1       0.421   1.530   7.344  0.00  0.00    -0.207 NA
ATOM      3  C   UNL     1       0.188   2.299   8.394  0.00  0.00    +0.129 A 
ATOM      4  C   UNL     1       1.217   3.162   8.866  0.00  0.00    +0.051 A 
ATOM      5  C   UNL     1       1.184   4.093   9.996  0.00  0.00    -0.025 A 
ATOM      6  C   UNL     1       2.304   4.804  10.236  0.00  0.00    -0.004 A 
ATOM      7  S   UNL     1       3.455   4.287   8.991  0.00  0.00    -0.073 S 
ATOM      8  C   UNL     1       2.427   3.114   8.146  0.00  0.00    +0.115 A 
ATOM      9  N   UNL     1       2.584   2.314   7.109  0.00  0.00    -0.215 NA
ATOM     10  C   UNL     1       2.523   5.813  11.321  0.00  0.00    +0.046 C 
ATOM     11  C   UNL     1       1.158   6.200  11.907  0.00  0.00    -0.009 C 
ATOM     12  C   UNL     1       0.366   4.921  12.192  0.00  0.00    +0.008 C 
ATOM     13  C   UNL     1      -0.052   4.265  10.875  0.00  0.00    +0.037 C 
ATOM     14  C   UNL     1       1.359   6.984  13.206  0.00  0.00    +0.008 C 
ATOM     15  N   UNL     1      -1.041   2.265   9.027  0.00  0.00    -0.343 N 
ATOM     16  H   UNL     1      -1.650   1.528   8.865  0.00  0.00    +0.144 HD
ATOM     17  H   UNL     1      -1.294   2.979   9.633  0.00  0.00    +0.144 HD
ENDROOT
BRANCH   1  18
ATOM     18  S   UNL     1       1.820   0.479   5.318  0.00  0.00    -0.080 S 
BRANCH  18  19
ATOM     19  C   UNL     1       0.230  -0.378   5.148  0.00  0.00    +0.133 C 
BRANCH  19  28
ATOM     20  C   UNL     1       0.107   0.368   0.195  0.00  0.00    +0.047 C 
ATOM     21  C   UNL     1       0.232  -1.121   0.390  0.00  0.00    -0.008 A 
ATOM     22  C   UNL     1       0.293  -1.953  -0.688  0.00  0.00    +0.008 A 
ATOM     23  C   UNL     1       0.409  -3.336  -0.489  0.00  0.00    +0.019 A 
ATOM     24  C   UNL     1       0.460  -3.840   0.764  0.00  0.00    +0.096 A 
ATOM     25  N   UNL     1       0.400  -3.017   1.848  0.00  0.00    -0.268 N 
ATOM     26  C   UNL     1       0.293  -1.664   1.687  0.00  0.00    +0.143 A 
ATOM     27  N   UNL     1       0.239  -0.853   2.741  0.00  0.00    -0.233 NA
ATOM     28  C   UNL     1       0.293  -1.324   3.977  0.00  0.00    +0.059 A 
ATOM     29  C   UNL     1       0.407  -2.684   4.194  0.00  0.00    +0.094 A 
ATOM     30  C   UNL     1       0.452  -3.544   3.090  0.00  0.00    +0.259 A 
ATOM     31  O   UNL     1       0.553  -4.750   3.248  0.00  0.00    -0.267 OA
ENDBRANCH  19  28
ENDBRANCH  18  19
ENDBRANCH   1  18
TORSDOF 3
