REMARK  Name = ZINC65623236
REMARK  7 active torsions:
REMARK  status: ('A' for Active; 'I' for Inactive)
REMARK    1  A    between atoms: C_1  and  C_2
REMARK    2  A    between atoms: C_2  and  C_4
REMARK    3  A    between atoms: C_2  and  O_27
REMARK    4  A    between atoms: C_4  and  N_5
REMARK    5  A    between atoms: N_5  and  C_6
REMARK    6  A    between atoms: N_5  and  S_12
REMARK    7  A    between atoms: S_12  and  C_15
REMARK                            x       y       z     vdW  Elec       q    Type
REMARK                         _______ _______ _______ _____ _____    ______ ____
ROOT
ATOM      1  S   UNL     1      -0.738  -2.965   1.837  0.00  0.00    +0.075 S 
ATOM      2  O   UNL     1      -2.011  -2.340   1.756  0.00  0.00    -0.150 OA
ATOM      3  O   UNL     1      -0.453  -4.199   1.192  0.00  0.00    -0.150 OA
ENDROOT
BRANCH   1   4
ATOM      4  C   UNL     1      -0.400  -3.203   3.550  0.00  0.00    +0.111 A 
ATOM      5  C   UNL     1       0.374  -4.276   3.957  0.00  0.00    +0.031 A 
ATOM      6  C   UNL     1       0.644  -4.470   5.298  0.00  0.00    +0.030 A 
ATOM      7  C   UNL     1       0.137  -3.587   6.239  0.00  0.00    +0.067 A 
ATOM      8  C   UNL     1      -0.643  -2.505   5.828  0.00  0.00    +0.069 A 
ATOM      9  C   UNL     1      -0.904  -2.314   4.479  0.00  0.00    +0.056 A 
ATOM     10  N   UNL     1      -1.001  -1.806   6.979  0.00  0.00    -0.306 N 
ATOM     11  H   UNL     1      -1.546  -1.004   7.009  0.00  0.00    +0.170 HD
ATOM     12  C   UNL     1      -0.463  -2.434   8.041  0.00  0.00    +0.325 A 
ATOM     13  O   UNL     1      -0.585  -2.082   9.199  0.00  0.00    -0.247 OA
ATOM     14  N   UNL     1       0.230  -3.512   7.627  0.00  0.00    -0.306 N 
ATOM     15  H   UNL     1       0.711  -4.131   8.198  0.00  0.00    +0.170 HD
ENDBRANCH   1   4
BRANCH   1  16
ATOM     16  N   UNL     1       0.364  -1.868   1.268  0.00  0.00    -0.201 N 
BRANCH  16  17
ATOM     17  C   UNL     1       1.589  -2.308   0.760  0.00  0.00    +0.051 A 
ATOM     18  C   UNL     1       2.262  -1.549  -0.189  0.00  0.00    +0.025 A 
ATOM     19  C   UNL     1       3.473  -1.986  -0.688  0.00  0.00    +0.002 A 
ATOM     20  C   UNL     1       4.016  -3.178  -0.245  0.00  0.00    +0.000 A 
ATOM     21  C   UNL     1       3.349  -3.936   0.700  0.00  0.00    +0.002 A 
ATOM     22  C   UNL     1       2.140  -3.502   1.208  0.00  0.00    +0.025 A 
ENDBRANCH  16  17
BRANCH  16  23
ATOM     23  C   UNL     1       0.055  -0.436   1.297  0.00  0.00    +0.162 C 
BRANCH  23  25
ATOM     24  C   UNL     1      -0.665   1.514  -0.088  0.00  0.00    +0.039 C 
ATOM     25  C   UNL     1      -0.501  -0.007  -0.062  0.00  0.00    +0.130 C 
BRANCH  25  26
ATOM     26  O   UNL     1      -1.771  -0.627  -0.275  0.00  0.00    -0.390 OA
ATOM     27  H   UNL     1      -2.464  -0.319   0.325  0.00  0.00    +0.210 HD
ENDBRANCH  25  26
ENDBRANCH  23  25
ENDBRANCH  16  23
ENDBRANCH   1  16
TORSDOF 6
