REMARK  Name = ZINC65482340
REMARK  7 active torsions:
REMARK  status: ('A' for Active; 'I' for Inactive)
REMARK    1  A    between atoms: C_1  and  C_2
REMARK    2  A    between atoms: C_4  and  O_24
REMARK    3  A    between atoms: C_7  and  N_8
REMARK    4  A    between atoms: N_11  and  C_12
REMARK    5  A    between atoms: C_12  and  C_13
REMARK    6  A    between atoms: C_12  and  C_14
REMARK    7  A    between atoms: O_24  and  C_25
REMARK                            x       y       z     vdW  Elec       q    Type
REMARK                         _______ _______ _______ _____ _____    ______ ____
ROOT
ATOM      1  N   UNL     1      -0.013  -0.056   2.407  0.00  0.00    -0.269 N 
ATOM      2  C   UNL     1       0.114  -0.834   3.500  0.00  0.00    +0.304 C 
ATOM      3  O   UNL     1       0.321  -2.026   3.377  0.00  0.00    -0.252 OA
ATOM      4  N   UNL     1       0.011  -0.292   4.729  0.00  0.00    -0.293 N 
ATOM      5  H   UNL     1      -0.124   0.903   2.505  0.00  0.00    +0.156 HD
ATOM      6  H   UNL     1      -0.155   0.659   4.827  0.00  0.00    +0.151 HD
ENDROOT
BRANCH   1  13
ATOM      7  C   UNL     1      -1.345   1.302   0.292  0.00  0.00    +0.046 C 
ATOM      8  C   UNL     1      -0.623  -0.001   0.070  0.00  0.00    -0.026 A 
ATOM      9  C   UNL     1      -0.590  -0.566  -1.190  0.00  0.00    +0.051 A 
ATOM     10  C   UNL     1       0.075  -1.766  -1.395  0.00  0.00    +0.132 A 
ATOM     11  C   UNL     1       0.708  -2.400  -0.335  0.00  0.00    +0.048 A 
ATOM     12  C   UNL     1       0.676  -1.836   0.925  0.00  0.00    +0.027 A 
ATOM     13  C   UNL     1       0.015  -0.632   1.130  0.00  0.00    +0.038 A 
BRANCH  10  14
ATOM     14  O   UNL     1       0.106  -2.323  -2.635  0.00  0.00    -0.424 OA
BRANCH  14  15
ATOM     15  C   UNL     1       0.772  -1.662  -3.612  0.00  0.00    +0.323 A 
ATOM     16  N   UNL     1       1.282  -0.469  -3.352  0.00  0.00    -0.203 NA
ATOM     17  C   UNL     1       1.939   0.204  -4.283  0.00  0.00    +0.118 A 
ATOM     18  C   UNL     1       2.089  -0.356  -5.542  0.00  0.00    +0.040 A 
ATOM     19  C   UNL     1       1.542  -1.607  -5.779  0.00  0.00    +0.118 A 
ATOM     20  N   UNL     1       0.902  -2.228  -4.802  0.00  0.00    -0.203 NA
ENDBRANCH  14  15
ENDBRANCH  10  14
ENDBRANCH   1  13
BRANCH   4  21
ATOM     21  C   UNL     1       0.148  -1.138   5.917  0.00  0.00    +0.102 C 
ATOM     22  C   UNL     1       1.630  -1.287   6.268  0.00  0.00    +0.033 C 
BRANCH  21  23
ATOM     23  C   UNL     1      -0.579  -0.502   7.074  0.00  0.00    -0.027 A 
ATOM     24  C   UNL     1      -0.517   0.879   7.248  0.00  0.00    +0.006 A 
ATOM     25  C   UNL     1      -1.163   1.485   8.282  0.00  0.00    +0.009 A 
ATOM     26  C   UNL     1      -1.904   0.709   9.189  0.00  0.00    -0.018 A 
ATOM     27  C   UNL     1      -2.584   1.298  10.269  0.00  0.00    +0.008 A 
ATOM     28  C   UNL     1      -3.292   0.515  11.127  0.00  0.00    +0.001 A 
ATOM     29  C   UNL     1      -3.354  -0.867  10.953  0.00  0.00    +0.001 A 
ATOM     30  C   UNL     1      -2.708  -1.472   9.919  0.00  0.00    +0.008 A 
ATOM     31  C   UNL     1      -1.967  -0.696   9.012  0.00  0.00    -0.018 A 
ATOM     32  C   UNL     1      -1.292  -1.285   7.929  0.00  0.00    +0.014 A 
ENDBRANCH  21  23
ENDBRANCH   4  21
TORSDOF 5
