REMARK  Name = ZINC64215554
REMARK  8 active torsions:
REMARK  status: ('A' for Active; 'I' for Inactive)
REMARK    1  A    between atoms: C_1  and  C_2
REMARK    2  A    between atoms: C_5  and  C_30
REMARK    3  A    between atoms: C_6  and  C_8
REMARK    4  A    between atoms: C_8  and  C_9
REMARK    5  A    between atoms: N_11  and  C_12
REMARK    6  A    between atoms: C_12  and  C_13
REMARK    7  A    between atoms: C_13  and  C_15
REMARK    8  A    between atoms: C_13  and  C_21
REMARK                            x       y       z     vdW  Elec       q    Type
REMARK                         _______ _______ _______ _____ _____    ______ ____
ROOT
ATOM      1  C   UNL     1       1.235  -3.493   6.185  0.00  0.00    +0.116 C 
ENDROOT
BRANCH   1   4
ATOM      2  C   UNL     1       0.273  -2.709   4.088  0.00  0.00    +0.214 C 
ATOM      3  O   UNL     1       1.288  -3.060   3.525  0.00  0.00    -0.276 OA
ATOM      4  N   UNL     1       0.146  -2.882   5.419  0.00  0.00    -0.314 N 
ATOM      5  H   UNL     1      -0.666  -2.601   5.869  0.00  0.00    +0.149 HD
BRANCH   2   6
ATOM      6  C   UNL     1      -0.848  -2.081   3.300  0.00  0.00    +0.116 C 
BRANCH   6  11
ATOM      7  C   UNL     1      -0.019   1.526   0.010  0.00  0.00    +0.044 C 
ATOM      8  C   UNL     1       0.002  -0.004   0.002  0.00  0.00    +0.160 C 
ATOM      9  N   UNL     1      -1.361  -0.556   0.131  0.00  0.00    -0.272 NA
ATOM     10  C   UNL     1      -1.600  -1.487   0.970  0.00  0.00    +0.064 C 
ATOM     11  C   UNL     1      -0.451  -2.003   1.824  0.00  0.00    +0.106 C 
ATOM     12  S   UNL     1       0.793  -0.668   1.532  0.00  0.00    -0.124 S 
BRANCH  10  13
ATOM     13  C   UNL     1      -2.947  -2.045   1.108  0.00  0.00    +0.034 A 
ATOM     14  C   UNL     1      -4.105  -1.712   0.423  0.00  0.00    +0.017 A 
ATOM     15  C   UNL     1      -5.232  -2.419   0.776  0.00  0.00    +0.008 A 
ATOM     16  C   UNL     1      -5.140  -3.365   1.741  0.00  0.00    +0.046 A 
ATOM     17  S   UNL     1      -3.523  -3.334   2.196  0.00  0.00    -0.095 S 
ENDBRANCH  10  13
ENDBRANCH   6  11
ENDBRANCH   2   6
ENDBRANCH   1   4
BRANCH   1  18
ATOM     18  C   UNL     1       0.838  -3.571   7.661  0.00  0.00    +0.064 C 
BRANCH  18  19
ATOM     19  C   UNL     1       2.003  -4.085   8.467  0.00  0.00    -0.033 C 
ATOM     20  C   UNL     1       2.631  -3.452   9.483  0.00  0.00    -0.000 A 
ATOM     21  C   UNL     1       2.427  -2.144  10.117  0.00  0.00    +0.010 A 
ATOM     22  C   UNL     1       3.235  -1.776  11.138  0.00  0.00    +0.001 A 
ATOM     23  C   UNL     1       4.260  -2.611  11.604  0.00  0.00    +0.002 A 
ATOM     24  C   UNL     1       4.509  -3.826  11.072  0.00  0.00    +0.026 A 
ATOM     25  C   UNL     1       3.720  -4.315   9.995  0.00  0.00    +0.043 A 
ATOM     26  N   UNL     1       3.763  -5.438   9.320  0.00  0.00    -0.380 N 
ATOM     27  C   UNL     1       2.701  -5.417   8.308  0.00  0.00    +0.145 C 
ATOM     28  H   UNL     1       4.389  -6.164   9.469  0.00  0.00    +0.160 HD
ENDBRANCH  18  19
BRANCH  18  29
ATOM     29  C   UNL     1      -0.333  -4.506   7.817  0.00  0.00    -0.039 A 
ATOM     30  C   UNL     1      -0.217  -5.830   7.437  0.00  0.00    +0.004 A 
ATOM     31  C   UNL     1      -1.291  -6.688   7.581  0.00  0.00    +0.000 A 
ATOM     32  C   UNL     1      -2.482  -6.221   8.105  0.00  0.00    +0.000 A 
ATOM     33  C   UNL     1      -2.599  -4.898   8.486  0.00  0.00    +0.000 A 
ATOM     34  C   UNL     1      -1.523  -4.041   8.347  0.00  0.00    +0.004 A 
ENDBRANCH  18  29
ENDBRANCH   1  18
TORSDOF 7
