REMARK  Name = ZINC04232579
REMARK  13 active torsions:
REMARK  status: ('A' for Active; 'I' for Inactive)
REMARK    1  A    between atoms: C_1  and  C_2
REMARK    2  A    between atoms: C_2  and  O_3
REMARK    3  A    between atoms: O_3  and  C_4
REMARK    4  A    between atoms: C_4  and  C_6
REMARK    5  A    between atoms: C_10  and  N_11
REMARK    6  A    between atoms: C_12  and  C_14
REMARK    7  A    between atoms: C_17  and  N_20
REMARK    8  A    between atoms: N_20  and  C_21
REMARK    9  A    between atoms: N_20  and  C_22
REMARK   10  A    between atoms: C_23  and  C_28
REMARK   11  A    between atoms: C_23  and  C_29
REMARK   12  A    between atoms: C_24  and  C_26
REMARK   13  A    between atoms: C_24  and  C_27
REMARK                            x       y       z     vdW  Elec       q    Type
REMARK                         _______ _______ _______ _____ _____    ______ ____
ROOT
ATOM      1  C   UNL     1       1.316  -0.610  -0.042  0.00  0.00    +0.091 A 
ATOM      2  C   UNL     1       0.002  -0.003  -0.015  0.00  0.00    -0.024 A 
ATOM      3  C   UNL     1      -0.016   1.350   0.010  0.00  0.00    -0.016 A 
ATOM      4  S   UNL     1       1.690   1.819   0.005  0.00  0.00    -0.079 S 
ATOM      5  C   UNL     1       2.414   0.245  -0.033  0.00  0.00    +0.086 A 
ATOM      6  C   UNL     1      -1.228   2.223   0.027  0.00  0.00    -0.041 C 
ATOM      7  C   UNL     1      -2.331   0.110   0.773  0.00  0.00    -0.069 C 
ATOM      8  C   UNL     1      -1.326  -0.748  -0.005  0.00  0.00    +0.024 C 
ATOM      9  C   UNL     1      -3.705  -0.580   0.688  0.00  0.00    -0.010 C 
ATOM     10  C   UNL     1      -1.920   0.159   2.247  0.00  0.00    -0.010 C 
ATOM     11  C   UNL     1      -1.082   3.275   1.136  0.00  0.00    -0.005 C 
ATOM     12  C   UNL     1      -1.312   2.964  -1.321  0.00  0.00    -0.005 C 
ATOM     13  N   UNL     1      -2.504   1.472   0.205  0.00  0.00    +0.389 N 
ATOM     14  H   UNL     1      -2.957   1.384  -0.712  0.00  0.00    -0.084 HD
ATOM     15  H   UNL     1      -3.110   2.010   0.836  0.00  0.00    -0.084 HD
ENDROOT
BRANCH   5  16
ATOM     16  N   UNL     1       3.759  -0.085  -0.052  0.00  0.00    -0.275 N 
ATOM     17  C   UNL     1       4.691   0.888  -0.039  0.00  0.00    +0.249 C 
ATOM     18  O   UNL     1       4.352   2.055  -0.011  0.00  0.00    -0.270 OA
ATOM     19  H   UNL     1       4.029  -1.016  -0.075  0.00  0.00    +0.156 HD
BRANCH  17  20
ATOM     20  C   UNL     1       6.124   0.537  -0.059  0.00  0.00    +0.037 A 
ATOM     21  C   UNL     1       6.516  -0.805  -0.086  0.00  0.00    +0.015 A 
ATOM     22  C   UNL     1       7.853  -1.129  -0.111  0.00  0.00    +0.024 A 
ATOM     23  C   UNL     1       8.815  -0.123  -0.097  0.00  0.00    +0.029 A 
ATOM     24  C   UNL     1       8.428   1.214  -0.065  0.00  0.00    +0.024 A 
ATOM     25  C   UNL     1       7.092   1.545  -0.046  0.00  0.00    +0.015 A 
BRANCH  23  26
ATOM     26  N   UNL     1      10.165  -0.454  -0.115  0.00  0.00    -0.336 N 
ATOM     27  C   UNL     1      11.176   0.600  -0.228  0.00  0.00    +0.129 C 
ATOM     28  C   UNL     1      10.576  -1.857  -0.022  0.00  0.00    +0.129 C 
ENDBRANCH  23  26
ENDBRANCH  17  20
ENDBRANCH   5  16
BRANCH   1  29
ATOM     29  C   UNL     1       1.496  -2.063  -0.082  0.00  0.00    +0.342 C 
ATOM     30  O   UNL     1       1.562  -2.639  -1.151  0.00  0.00    -0.245 OA
BRANCH  29  31
ATOM     31  O   UNL     1       1.590  -2.762   1.068  0.00  0.00    -0.461 OA
BRANCH  31  33
ATOM     32  C   UNL     1       1.852  -4.816   2.350  0.00  0.00    +0.048 C 
ATOM     33  C   UNL     1       1.767  -4.199   0.953  0.00  0.00    +0.229 C 
ENDBRANCH  31  33
ENDBRANCH  29  31
ENDBRANCH   1  29
TORSDOF 6
