REMARK  Name = ZINC16937206
REMARK  8 active torsions:
REMARK  status: ('A' for Active; 'I' for Inactive)
REMARK    1  A    between atoms: C_1  and  C_2
REMARK    2  A    between atoms: C_2  and  C_4
REMARK    3  A    between atoms: C_2  and  O_7
REMARK    4  A    between atoms: O_7  and  C_8
REMARK    5  A    between atoms: C_13  and  C_14
REMARK    6  A    between atoms: N_18  and  C_29
REMARK    7  A    between atoms: N_20  and  C_21
REMARK    8  A    between atoms: C_25  and  O_27
REMARK                            x       y       z     vdW  Elec       q    Type
REMARK                         _______ _______ _______ _____ _____    ______ ____
ROOT
ATOM      1  C   UNL     1       2.039  -1.256   3.633  0.00  0.00    +0.032 C 
ATOM      2  C   UNL     1       2.628  -1.699   4.773  0.00  0.00    +0.078 C 
ATOM      3  C   UNL     1       4.029  -2.097   5.009  0.00  0.00    +0.259 C 
ATOM      4  O   UNL     1       4.859  -2.059   4.120  0.00  0.00    -0.269 OA
ATOM      5  N   UNL     1       4.341  -2.496   6.231  0.00  0.00    -0.249 N 
ATOM      6  C   UNL     1       3.387  -2.531   7.224  0.00  0.00    +0.168 C 
ATOM      7  N   UNL     1       3.527  -2.897   8.478  0.00  0.00    -0.225 NA
ATOM      8  S   UNL     1       1.917  -1.951   6.393  0.00  0.00    -0.049 S 
ATOM      9  C   UNL     1       5.716  -2.904   6.530  0.00  0.00    +0.140 C 
ENDROOT
BRANCH   1  15
ATOM     10  C   UNL     1       0.003  -0.279   2.582  0.00  0.00    +0.129 A 
ATOM     11  C   UNL     1      -1.373  -0.125   2.540  0.00  0.00    +0.046 A 
ATOM     12  C   UNL     1      -2.171  -0.750   3.479  0.00  0.00    +0.004 A 
ATOM     13  C   UNL     1      -1.604  -1.536   4.469  0.00  0.00    +0.001 A 
ATOM     14  C   UNL     1      -0.238  -1.703   4.528  0.00  0.00    +0.011 A 
ATOM     15  C   UNL     1       0.582  -1.079   3.581  0.00  0.00    +0.018 A 
BRANCH  10  16
ATOM     16  O   UNL     1       0.787   0.335   1.660  0.00  0.00    -0.477 OA
BRANCH  16  18
ATOM     17  C   UNL     1      -0.155   2.532   1.306  0.00  0.00    +0.064 C 
ATOM     18  C   UNL     1       0.130   1.159   0.695  0.00  0.00    +0.282 C 
BRANCH  18  19
ATOM     19  C   UNL     1       1.015   1.320  -0.514  0.00  0.00    +0.395 C 
ATOM     20  O   UNL     1       2.143   0.857  -0.509  0.00  0.00    -0.242 OA
ATOM     21  O   UNL     1       0.604   1.914  -1.496  0.00  0.00    -0.242 OA
ENDBRANCH  18  19
ENDBRANCH  16  18
ENDBRANCH  10  16
ENDBRANCH   1  15
BRANCH   7  22
ATOM     22  C   UNL     1       2.451  -2.864   9.324  0.00  0.00    +0.070 A 
ATOM     23  C   UNL     1       1.597  -1.759   9.330  0.00  0.00    +0.028 A 
ATOM     24  C   UNL     1       0.514  -1.730  10.183  0.00  0.00    +0.006 A 
ATOM     25  C   UNL     1       0.270  -2.792  11.035  0.00  0.00    +0.045 A 
ATOM     26  C   UNL     1       1.114  -3.895  11.036  0.00  0.00    +0.119 A 
ATOM     27  C   UNL     1       2.201  -3.938  10.180  0.00  0.00    +0.073 A 
BRANCH  26  28
ATOM     28  O   UNL     1       0.869  -4.936  11.876  0.00  0.00    -0.507 OA
ATOM     29  H   UNL     1       0.299  -5.620  11.498  0.00  0.00    +0.292 HD
ENDBRANCH  26  28
ENDBRANCH   7  22
TORSDOF 6
