REMARK  Name = ZINC66587671
REMARK  7 active torsions:
REMARK  status: ('A' for Active; 'I' for Inactive)
REMARK    1  A    between atoms: C_1  and  C_2
REMARK    2  A    between atoms: C_2  and  C_4
REMARK    3  A    between atoms: C_4  and  O_5
REMARK    4  A    between atoms: O_5  and  C_6
REMARK    5  A    between atoms: C_10  and  N_12
REMARK    6  A    between atoms: N_12  and  S_13
REMARK    7  A    between atoms: S_13  and  C_16
REMARK                            x       y       z     vdW  Elec       q    Type
REMARK                         _______ _______ _______ _____ _____    ______ ____
ROOT
ATOM      1  S   UNL     1       0.977  -7.524  -3.894  0.00  0.00    +0.073 S 
ATOM      2  O   UNL     1       0.740  -8.899  -3.628  0.00  0.00    -0.150 OA
ATOM      3  O   UNL     1       0.756  -6.946  -5.174  0.00  0.00    -0.150 OA
ENDROOT
BRANCH   1   4
ATOM      4  C   UNL     1       2.664  -7.215  -3.488  0.00  0.00    +0.116 A 
ATOM      5  C   UNL     1       3.481  -6.541  -4.354  0.00  0.00    +0.031 A 
ATOM      6  C   UNL     1       4.822  -6.269  -4.085  0.00  0.00    +0.026 A 
ATOM      7  C   UNL     1       5.386  -6.686  -2.895  0.00  0.00    +0.042 A 
ATOM      8  C   UNL     1       4.544  -7.370  -2.024  0.00  0.00    +0.017 A 
ATOM      9  C   UNL     1       3.198  -7.652  -2.264  0.00  0.00    +0.011 A 
ATOM     10  C   UNL     1       2.499  -8.349  -1.264  0.00  0.00    +0.010 A 
ATOM     11  C   UNL     1       3.162  -8.707  -0.120  0.00  0.00    +0.001 A 
ATOM     12  C   UNL     1       4.506  -8.413   0.107  0.00  0.00    +0.014 A 
ATOM     13  C   UNL     1       5.232  -7.737  -0.858  0.00  0.00    +0.047 A 
ATOM     14  C   UNL     1       6.592  -7.225  -1.065  0.00  0.00    +0.249 C 
ATOM     15  O   UNL     1       7.522  -7.329  -0.287  0.00  0.00    -0.270 OA
ATOM     16  N   UNL     1       6.630  -6.615  -2.280  0.00  0.00    -0.281 N 
ATOM     17  H   UNL     1       7.413  -6.190  -2.662  0.00  0.00    +0.155 HD
ENDBRANCH   1   4
BRANCH   1  18
ATOM     18  N   UNL     1       0.050  -6.667  -2.822  0.00  0.00    -0.216 N 
ATOM     19  H   UNL     1      -0.545  -7.134  -2.215  0.00  0.00    +0.174 HD
BRANCH  18  24
ATOM     20  C   UNL     1       0.289  -3.224  -1.552  0.00  0.00    +0.123 A 
ATOM     21  C   UNL     1       0.274  -2.507  -2.741  0.00  0.00    +0.046 A 
ATOM     22  C   UNL     1       0.185  -3.171  -3.949  0.00  0.00    +0.005 A 
ATOM     23  C   UNL     1       0.111  -4.550  -3.979  0.00  0.00    +0.025 A 
ATOM     24  C   UNL     1       0.126  -5.273  -2.792  0.00  0.00    +0.052 A 
ATOM     25  C   UNL     1       0.221  -4.607  -1.578  0.00  0.00    +0.070 A 
BRANCH  20  26
ATOM     26  O   UNL     1       0.377  -2.569  -0.364  0.00  0.00    -0.488 OA
BRANCH  26  27
ATOM     27  C   UNL     1       0.444  -1.143  -0.413  0.00  0.00    +0.259 C 
BRANCH  27  29
ATOM     28  C   UNL     1       0.620   0.892   1.212  0.00  0.00    +0.042 C 
ATOM     29  C   UNL     1       0.537  -0.596   0.988  0.00  0.00    -0.043 C 
ATOM     30  C   UNL     1       0.545  -1.414   2.011  0.00  0.00    +0.011 C 
ENDBRANCH  27  29
ENDBRANCH  26  27
ENDBRANCH  20  26
ENDBRANCH  18  24
ENDBRANCH   1  18
TORSDOF 6
