REMARK  Name = ZINC33810062
REMARK  6 active torsions:
REMARK  status: ('A' for Active; 'I' for Inactive)
REMARK    1  A    between atoms: C_1  and  C_2
REMARK    2  A    between atoms: C_5  and  C_7
REMARK    3  A    between atoms: C_12  and  S_16
REMARK    4  A    between atoms: S_16  and  C_17
REMARK    5  A    between atoms: C_17  and  C_18
REMARK    6  A    between atoms: C_17  and  C_19
REMARK                            x       y       z     vdW  Elec       q    Type
REMARK                         _______ _______ _______ _____ _____    ______ ____
ROOT
ATOM      1  C   UNL     1      -3.672   2.610   3.127  0.00  0.00    +0.128 C 
ATOM      2  C   UNL     1      -4.572   1.413   3.056  0.00  0.00    +0.072 A 
ATOM      3  C   UNL     1      -5.859   1.530   2.633  0.00  0.00    +0.135 A 
ATOM      4  N   UNL     1      -6.655   0.415   2.589  0.00  0.00    -0.208 NA
ATOM      5  C   UNL     1      -6.156  -0.796   2.965  0.00  0.00    +0.171 A 
ATOM      6  N   UNL     1      -4.910  -0.922   3.373  0.00  0.00    -0.302 N 
ATOM      7  C   UNL     1      -4.092   0.140   3.433  0.00  0.00    +0.258 A 
ATOM      8  O   UNL     1      -2.938   0.006   3.812  0.00  0.00    -0.267 OA
ATOM      9  N   UNL     1      -6.355   2.755   2.254  0.00  0.00    -0.302 N 
ATOM     10  C   UNL     1      -5.509   3.779   1.924  0.00  0.00    +0.017 C 
ATOM     11  C   UNL     1      -4.216   3.754   2.310  0.00  0.00    +0.027 C 
ATOM     12  C   UNL     1      -3.336   4.794   1.962  0.00  0.00    +0.162 C 
ATOM     13  O   UNL     1      -2.179   4.745   2.330  0.00  0.00    -0.292 OA
ATOM     14  C   UNL     1      -3.800   5.968   1.143  0.00  0.00    +0.080 C 
ATOM     15  C   UNL     1      -4.956   5.521   0.242  0.00  0.00    +0.014 C 
ATOM     16  C   UNL     1      -6.059   4.934   1.124  0.00  0.00    +0.051 C 
ATOM     17  H   UNL     1      -7.442   2.921   2.214  0.00  0.00    +0.153 HD
ATOM     18  H   UNL     1      -4.526  -1.909   3.671  0.00  0.00    +0.171 HD
ENDROOT
BRANCH   1  23
ATOM     19  C   UNL     1      -0.013   1.086   0.008  0.00  0.00    +0.086 C 
ATOM     20  C   UNL     1      -0.718   1.572   1.248  0.00  0.00    +0.102 A 
ATOM     21  C   UNL     1      -0.136   1.835   2.432  0.00  0.00    +0.044 A 
ATOM     22  C   UNL     1      -1.162   2.263   3.306  0.00  0.00    +0.046 A 
ATOM     23  C   UNL     1      -2.309   2.234   2.604  0.00  0.00    +0.117 A 
ATOM     24  O   UNL     1      -2.033   1.821   1.357  0.00  0.00    -0.464 OA
ENDBRANCH   1  23
BRANCH   5  25
ATOM     25  S   UNL     1      -7.195  -2.217   2.903  0.00  0.00    -0.085 S 
BRANCH  25  26
ATOM     26  C   UNL     1      -6.037  -3.479   3.491  0.00  0.00    +0.048 C 
ATOM     27  C   UNL     1      -6.770  -4.813   3.642  0.00  0.00    +0.019 C 
ATOM     28  C   UNL     1      -4.897  -3.634   2.483  0.00  0.00    +0.019 C 
ENDBRANCH  25  26
ENDBRANCH   5  25
TORSDOF 3
