REMARK  Name = ZINC45008730
REMARK  5 active torsions:
REMARK  status: ('A' for Active; 'I' for Inactive)
REMARK    1  A    between atoms: C_1  and  C_2
REMARK    2  A    between atoms: C_3  and  O_21
REMARK    3  A    between atoms: C_10  and  C_11
REMARK    4  A    between atoms: C_16  and  O_17
REMARK    5  A    between atoms: O_17  and  C_18
REMARK                            x       y       z     vdW  Elec       q    Type
REMARK                         _______ _______ _______ _____ _____    ______ ____
ROOT
ATOM      1  C   UNL     1       0.557   1.436  -0.003  0.00  0.00    +0.051 C 
ATOM      2  C   UNL     1       0.890  -0.032   0.068  0.00  0.00    +0.034 A 
ATOM      3  C   UNL     1       1.327  -0.698  -1.066  0.00  0.00    +0.123 A 
ATOM      4  C   UNL     1       1.638  -2.054  -1.015  0.00  0.00    +0.046 A 
ATOM      5  C   UNL     1       1.516  -2.742   0.159  0.00  0.00    +0.019 A 
ATOM      6  C   UNL     1       1.078  -2.084   1.308  0.00  0.00    +0.068 A 
ATOM      7  C   UNL     1       0.766  -0.716   1.270  0.00  0.00    +0.146 A 
ATOM      8  O   UNL     1       0.374  -0.304   2.496  0.00  0.00    -0.451 OA
ATOM      9  C   UNL     1       0.399  -1.313   3.398  0.00  0.00    +0.176 C 
ATOM     10  C   UNL     1       0.064  -1.224   4.711  0.00  0.00    +0.061 C 
ATOM     11  C   UNL     1       0.843  -2.525   2.695  0.00  0.00    +0.231 C 
ATOM     12  O   UNL     1       0.996  -3.642   3.159  0.00  0.00    -0.283 OA
ENDROOT
BRANCH  10  13
ATOM     13  C   UNL     1      -0.023  -2.438   5.530  0.00  0.00    +0.020 A 
ATOM     14  C   UNL     1      -0.622  -3.594   5.015  0.00  0.00    +0.011 A 
ATOM     15  C   UNL     1      -0.700  -4.730   5.790  0.00  0.00    +0.001 A 
ATOM     16  C   UNL     1      -0.187  -4.735   7.078  0.00  0.00    +0.004 A 
ATOM     17  C   UNL     1       0.407  -3.602   7.599  0.00  0.00    +0.046 A 
ATOM     18  C   UNL     1       0.500  -2.450   6.834  0.00  0.00    +0.127 A 
BRANCH  18  19
ATOM     19  O   UNL     1       1.089  -1.339   7.343  0.00  0.00    -0.495 OA
ATOM     20  C   UNL     1       1.598  -1.427   8.675  0.00  0.00    +0.277 C 
ENDBRANCH  18  19
ENDBRANCH  10  13
BRANCH   3  21
ATOM     21  O   UNL     1       1.452  -0.023  -2.237  0.00  0.00    -0.506 OA
ATOM     22  H   UNL     1       2.324   0.373  -2.372  0.00  0.00    +0.292 HD
ENDBRANCH   3  21
TORSDOF 3
