REMARK  Name = ZINC67400736
REMARK  10 active torsions:
REMARK  status: ('A' for Active; 'I' for Inactive)
REMARK    1  A    between atoms: C_1  and  C_2
REMARK    2  A    between atoms: C_5  and  O_8
REMARK    3  A    between atoms: O_8  and  C_9
REMARK    4  A    between atoms: C_9  and  C_10
REMARK    5  A    between atoms: C_10  and  C_12
REMARK    6  A    between atoms: C_10  and  O_29
REMARK    7  A    between atoms: C_12  and  N_13
REMARK    8  A    between atoms: C_16  and  C_19
REMARK    9  A    between atoms: C_19  and  C_21
REMARK   10  A    between atoms: C_19  and  O_28
REMARK                            x       y       z     vdW  Elec       q    Type
REMARK                         _______ _______ _______ _____ _____    ______ ____
ROOT
ATOM      1  N   UNL     1       0.370  -8.447   2.184  0.00  0.00    +0.381 N 
ATOM      2  C   UNL     1       1.620  -8.719   1.464  0.00  0.00    -0.078 C 
ATOM      3  C   UNL     1       1.729 -10.217   1.173  0.00  0.00    -0.012 C 
ATOM      4  C   UNL     1       1.721 -10.991   2.494  0.00  0.00    +0.019 C 
ATOM      5  C   UNL     1       0.448 -10.643   3.270  0.00  0.00    -0.012 C 
ATOM      6  C   UNL     1       0.386  -9.129   3.484  0.00  0.00    -0.078 C 
ATOM      7  H   UNL     1      -0.410  -8.783   1.639  0.00  0.00    -0.082 HD
ENDROOT
BRANCH   1   8
ATOM      8  C   UNL     1       0.232  -7.000   2.393  0.00  0.00    -0.044 C 
BRANCH   8   9
ATOM      9  C   UNL     1       0.090  -6.300   1.040  0.00  0.00    +0.135 C 
BRANCH   9  10
ATOM     10  O   UNL     1      -1.129  -6.710   0.417  0.00  0.00    -0.390 OA
ATOM     11  H   UNL     1      -1.922  -6.503   0.930  0.00  0.00    +0.210 HD
ENDBRANCH   9  10
BRANCH   9  12
ATOM     12  C   UNL     1       0.072  -4.785   1.249  0.00  0.00    +0.258 C 
BRANCH  12  13
ATOM     13  O   UNL     1       0.057  -4.129  -0.021  0.00  0.00    -0.489 OA
BRANCH  13  18
ATOM     14  C   UNL     1      -0.018   1.503   0.010  0.00  0.00    +0.044 C 
ATOM     15  C   UNL     1       0.002  -0.004   0.002  0.00  0.00    -0.050 A 
ATOM     16  C   UNL     1       0.006  -0.688  -1.200  0.00  0.00    +0.007 A 
ATOM     17  C   UNL     1       0.024  -2.069  -1.210  0.00  0.00    +0.046 A 
ATOM     18  C   UNL     1       0.039  -2.770  -0.013  0.00  0.00    +0.121 A 
ATOM     19  C   UNL     1       0.036  -2.082   1.191  0.00  0.00    +0.046 A 
ATOM     20  C   UNL     1       0.023  -0.701   1.196  0.00  0.00    +0.007 A 
ENDBRANCH  13  18
ENDBRANCH  12  13
ENDBRANCH   9  12
ENDBRANCH   8   9
ENDBRANCH   1   8
BRANCH   4  21
ATOM     21  C   UNL     1       1.750 -12.494   2.207  0.00  0.00    +0.147 C 
BRANCH  21  22
ATOM     22  C   UNL     1       1.742 -13.254   3.509  0.00  0.00    -0.019 A 
ATOM     23  C   UNL     1       2.911 -13.399   4.232  0.00  0.00    +0.007 A 
ATOM     24  C   UNL     1       2.904 -14.095   5.425  0.00  0.00    +0.020 A 
ATOM     25  C   UNL     1       1.726 -14.648   5.896  0.00  0.00    +0.041 A 
ATOM     26  C   UNL     1       0.556 -14.503   5.172  0.00  0.00    +0.020 A 
ATOM     27  C   UNL     1       0.564 -13.801   3.982  0.00  0.00    +0.007 A 
ATOM     28 CL   UNL     1       1.717 -15.524   7.395  0.00  0.00    -0.084 Cl
ENDBRANCH  21  22
BRANCH  21  29
ATOM     29  O   UNL     1       2.934 -12.816   1.475  0.00  0.00    -0.387 OA
ATOM     30  H   UNL     1       3.755 -12.598   1.938  0.00  0.00    +0.210 HD
ENDBRANCH  21  29
ENDBRANCH   4  21
TORSDOF 9
