REMARK  Name = ZINC24308387
REMARK  6 active torsions:
REMARK  status: ('A' for Active; 'I' for Inactive)
REMARK    1  A    between atoms: C_1  and  C_2
REMARK    2  A    between atoms: C_9  and  C_11
REMARK    3  A    between atoms: N_13  and  N_14
REMARK    4  A    between atoms: C_15  and  C_17
REMARK    5  A    between atoms: C_17  and  O_18
REMARK    6  A    between atoms: O_18  and  C_19
REMARK                            x       y       z     vdW  Elec       q    Type
REMARK                         _______ _______ _______ _____ _____    ______ ____
ROOT
ATOM      1  N   UNL     1      -1.065   2.703   7.300  0.00  0.00    -0.231 N 
ATOM      2  C   UNL     1      -0.101   2.459   8.210  0.00  0.00    +0.267 C 
ATOM      3  O   UNL     1       0.954   1.973   7.860  0.00  0.00    -0.271 OA
ATOM      4  H   UNL     1      -2.022   3.143   7.617  0.00  0.00    +0.173 HD
ENDROOT
BRANCH   1   7
ATOM      5  C   UNL     1      -1.813   2.638   5.041  0.00  0.00    +0.267 C 
ATOM      6  O   UNL     1      -2.872   3.125   5.392  0.00  0.00    -0.268 OA
ATOM      7  N   UNL     1      -0.849   2.394   5.950  0.00  0.00    -0.230 N 
ATOM      8  H   UNL     1       0.108   1.954   5.633  0.00  0.00    +0.173 HD
BRANCH   5  16
ATOM      9  C   UNL     1      -2.989   1.574  -2.366  0.00  0.00    +0.008 C 
ATOM     10  C   UNL     1      -2.260   1.319  -1.046  0.00  0.00    -0.009 C 
ATOM     11  C   UNL     1      -0.766   1.600  -1.228  0.00  0.00    +0.009 C 
ATOM     12  C   UNL     1      -0.013   1.086   0.008  0.00  0.00    +0.043 C 
ATOM     13  C   UNL     1      -0.724   1.574   1.232  0.00  0.00    -0.006 A 
ATOM     14  C   UNL     1      -1.985   2.096   1.298  0.00  0.00    -0.036 A 
ATOM     15  C   UNL     1      -2.435   2.483   2.550  0.00  0.00    +0.024 A 
ATOM     16  C   UNL     1      -1.587   2.315   3.629  0.00  0.00    +0.076 A 
ATOM     17  S   UNL     1      -0.146   1.603   2.854  0.00  0.00    -0.088 S 
ATOM     18  C   UNL     1      -2.834   2.233   0.037  0.00  0.00    +0.039 C 
ENDBRANCH   5  16
ENDBRANCH   1   7
BRANCH   2  19
ATOM     19  C   UNL     1      -0.333   2.791   9.661  0.00  0.00    +0.326 C 
BRANCH  19  20
ATOM     20  O   UNL     1       0.827   2.444  10.421  0.00  0.00    -0.483 OA
BRANCH  20  21
ATOM     21  C   UNL     1       0.782   2.680  11.757  0.00  0.00    +0.125 A 
ATOM     22  C   UNL     1      -0.361   3.243  12.321  0.00  0.00    +0.046 A 
ATOM     23  C   UNL     1      -0.424   3.481  13.663  0.00  0.00    +0.015 A 
ATOM     24  C   UNL     1       0.672   3.170  14.476  0.00  0.00    +0.018 A 
ATOM     25  C   UNL     1       0.635   3.420  15.919  0.00  0.00    +0.018 A 
ATOM     26  C   UNL     1       1.730   3.095  16.655  0.00  0.00    +0.092 A 
ATOM     27  C   UNL     1       2.858   2.534  16.023  0.00  0.00    +0.337 A 
ATOM     28  O   UNL     1       3.833   2.247  16.694  0.00  0.00    -0.245 OA
ATOM     29  O   UNL     1       2.885   2.306  14.700  0.00  0.00    -0.422 OA
ATOM     30  C   UNL     1       1.831   2.606  13.912  0.00  0.00    +0.143 A 
ATOM     31  C   UNL     1       1.875   2.365  12.547  0.00  0.00    +0.092 A 
ENDBRANCH  20  21
ENDBRANCH  19  20
ENDBRANCH   2  19
TORSDOF 5
