REMARK  Name = ZINC43381314
REMARK  10 active torsions:
REMARK  status: ('A' for Active; 'I' for Inactive)
REMARK    1  A    between atoms: C_1  and  C_2
REMARK    2  A    between atoms: N_5  and  S_11
REMARK    3  A    between atoms: C_7  and  C_10
REMARK    4  A    between atoms: S_11  and  C_14
REMARK    5  A    between atoms: C_17  and  N_20
REMARK    6  A    between atoms: N_23  and  C_24
REMARK    7  A    between atoms: C_24  and  C_26
REMARK    8  A    between atoms: C_24  and  C_27
REMARK    9  A    between atoms: C_27  and  C_28
REMARK   10  A    between atoms: C_27  and  C_29
REMARK                            x       y       z     vdW  Elec       q    Type
REMARK                         _______ _______ _______ _____ _____    ______ ____
ROOT
ATOM      1  C   UNL     1       2.730   2.382  -2.128  0.00  0.00    +0.106 A 
ATOM      2  C   UNL     1       1.740   3.089  -2.785  0.00  0.00    +0.030 A 
ATOM      3  C   UNL     1       1.590   4.443  -2.560  0.00  0.00    +0.025 A 
ATOM      4  C   UNL     1       2.436   5.095  -1.672  0.00  0.00    +0.035 A 
ATOM      5  C   UNL     1       3.429   4.383  -1.013  0.00  0.00    +0.025 A 
ATOM      6  C   UNL     1       3.570   3.028  -1.239  0.00  0.00    +0.030 A 
ENDROOT
BRANCH   4   7
ATOM      7  N   UNL     1       2.287   6.468  -1.441  0.00  0.00    -0.269 N 
ATOM      8  C   UNL     1       1.062   7.029  -1.479  0.00  0.00    +0.304 C 
ATOM      9  O   UNL     1       0.077   6.329  -1.618  0.00  0.00    -0.253 OA
ATOM     10  N   UNL     1       0.928   8.365  -1.364  0.00  0.00    -0.296 N 
ATOM     11  H   UNL     1       3.065   7.015  -1.254  0.00  0.00    +0.156 HD
ATOM     12  H   UNL     1       1.714   8.923  -1.254  0.00  0.00    +0.151 HD
BRANCH  10  13
ATOM     13  C   UNL     1      -0.403   8.974  -1.406  0.00  0.00    +0.074 C 
ATOM     14  C   UNL     1      -1.024   8.939  -0.008  0.00  0.00    +0.028 C 
BRANCH  13  15
ATOM     15  C   UNL     1      -0.285  10.426  -1.875  0.00  0.00    +0.003 C 
ATOM     16  C   UNL     1       0.336  10.461  -3.273  0.00  0.00    +0.009 C 
ATOM     17  C   UNL     1      -1.676  11.062  -1.919  0.00  0.00    +0.009 C 
ENDBRANCH  13  15
ENDBRANCH  10  13
ENDBRANCH   4   7
BRANCH   1  18
ATOM     18  S   UNL     1       2.918   0.655  -2.419  0.00  0.00    +0.061 S 
ATOM     19  O   UNL     1       4.262   0.331  -2.090  0.00  0.00    -0.153 OA
ATOM     20  O   UNL     1       2.364   0.396  -3.702  0.00  0.00    -0.153 OA
BRANCH  18  24
ATOM     21  C   UNL     1      -0.310   1.558  -0.443  0.00  0.00    +0.039 C 
ATOM     22  C   UNL     1      -0.322   0.029  -0.482  0.00  0.00    +0.131 C 
ATOM     23  C   UNL     1       0.560  -0.461  -1.636  0.00  0.00    +0.140 C 
ATOM     24  N   UNL     1       1.960  -0.133  -1.322  0.00  0.00    -0.172 NA
ATOM     25  C   UNL     1       2.483  -0.527  -0.004  0.00  0.00    +0.140 C 
ATOM     26  C   UNL     1       1.508  -0.034   1.071  0.00  0.00    +0.131 C 
ATOM     27  O   UNL     1       0.188  -0.484   0.751  0.00  0.00    -0.371 OA
ATOM     28  C   UNL     1       1.923  -0.593   2.433  0.00  0.00    +0.039 C 
ENDBRANCH  18  24
ENDBRANCH   1  18
TORSDOF 5
