REMARK  Name = ZINC58679362
REMARK  6 active torsions:
REMARK  status: ('A' for Active; 'I' for Inactive)
REMARK    1  A    between atoms: C_1  and  C_2
REMARK    2  A    between atoms: C_5  and  C_7
REMARK    3  A    between atoms: N_9  and  C_10
REMARK    4  A    between atoms: N_9  and  C_11
REMARK    5  A    between atoms: C_11  and  C_13
REMARK    6  A    between atoms: C_11  and  C_14
REMARK                            x       y       z     vdW  Elec       q    Type
REMARK                         _______ _______ _______ _____ _____    ______ ____
ROOT
ATOM      1  C   UNL     1       1.074  -4.046   0.225  0.00  0.00    +0.253 C 
ATOM      2  O   UNL     1       0.342  -5.015   0.151  0.00  0.00    -0.269 OA
ATOM      3  N   UNL     1       2.385  -4.168  -0.064  0.00  0.00    -0.293 N 
ATOM      4  C   UNL     1       3.272  -3.008   0.058  0.00  0.00    +0.133 C 
ENDROOT
BRANCH   1   9
ATOM      5  C   UNL     1       0.084   1.200   1.756  0.00  0.00    +0.051 C 
ATOM      6  C   UNL     1       0.076  -0.252   1.353  0.00  0.00    -0.013 A 
ATOM      7  C   UNL     1      -0.995  -1.070   1.205  0.00  0.00    +0.011 A 
ATOM      8  C   UNL     1      -0.792  -2.375   0.827  0.00  0.00    +0.021 A 
ATOM      9  C   UNL     1       0.529  -2.745   0.626  0.00  0.00    +0.074 A 
ATOM     10  S   UNL     1       1.393  -1.226   0.978  0.00  0.00    -0.089 S 
ENDBRANCH   1   9
BRANCH   3  11
ATOM     11  C   UNL     1       2.922  -5.459  -0.498  0.00  0.00    +0.105 C 
ATOM     12  C   UNL     1       3.406  -5.349  -1.945  0.00  0.00    +0.033 C 
BRANCH  11  13
ATOM     13  C   UNL     1       4.076  -5.847   0.390  0.00  0.00    -0.009 A 
ATOM     14  C   UNL     1       5.375  -5.712  -0.066  0.00  0.00    +0.008 A 
ATOM     15  C   UNL     1       6.434  -6.067   0.748  0.00  0.00    +0.020 A 
ATOM     16  C   UNL     1       6.195  -6.559   2.019  0.00  0.00    +0.042 A 
ATOM     17  C   UNL     1       4.897  -6.694   2.476  0.00  0.00    +0.040 A 
ATOM     18  C   UNL     1       3.837  -6.333   1.663  0.00  0.00    +0.047 A 
ATOM     19 CL   UNL     1       2.207  -6.497   2.237  0.00  0.00    -0.083 Cl
ATOM     20 CL   UNL     1       7.526  -7.006   3.041  0.00  0.00    -0.083 Cl
ENDBRANCH  11  13
ENDBRANCH   3  11
TORSDOF 3
