REMARK  Name = ZINC66474418
REMARK  9 active torsions:
REMARK  status: ('A' for Active; 'I' for Inactive)
REMARK    1  A    between atoms: C_1  and  C_2
REMARK    2  A    between atoms: C_2  and  C_3
REMARK    3  A    between atoms: C_3  and  C_4
REMARK    4  A    between atoms: C_4  and  N_5
REMARK    5  A    between atoms: C_6  and  C_8
REMARK    6  A    between atoms: C_12  and  C_30
REMARK    7  A    between atoms: N_14  and  C_16
REMARK    8  A    between atoms: C_16  and  C_17
REMARK    9  A    between atoms: N_19  and  C_20
REMARK                            x       y       z     vdW  Elec       q    Type
REMARK                         _______ _______ _______ _____ _____    ______ ____
ROOT
ATOM      1  C   UNL     1       2.343  -4.350   3.846  0.00  0.00    +0.058 C 
ATOM      2  C   UNL     1       3.781  -3.822   3.834  0.00  0.00    +0.009 C 
ATOM      3  C   UNL     1       4.535  -4.398   5.037  0.00  0.00    -0.015 C 
ATOM      4  C   UNL     1       4.478  -5.926   4.983  0.00  0.00    -0.071 C 
ATOM      5  N   UNL     1       3.079  -6.369   5.024  0.00  0.00    +0.388 N 
ATOM      6  C   UNL     1       2.366  -5.880   3.837  0.00  0.00    -0.065 C 
ATOM      7  C   UNL     1       5.230  -6.506   6.183  0.00  0.00    -0.013 C 
ATOM      8  H   UNL     1       2.636  -6.005   5.854  0.00  0.00    -0.081 HD
ENDROOT
BRANCH   1  10
ATOM      9  N   UNL     1       1.471  -2.526   2.420  0.00  0.00    -0.315 N 
ATOM     10  C   UNL     1       1.615  -3.850   2.625  0.00  0.00    +0.214 C 
ATOM     11  O   UNL     1       1.157  -4.641   1.827  0.00  0.00    -0.276 OA
ATOM     12  H   UNL     1       1.837  -1.894   3.058  0.00  0.00    +0.149 HD
BRANCH   9  13
ATOM     13  C   UNL     1       0.763  -2.041   1.233  0.00  0.00    +0.104 C 
BRANCH  13  14
ATOM     14  C   UNL     1       0.742  -0.511   1.242  0.00  0.00    +0.018 C 
BRANCH  14  16
ATOM     15  C   UNL     1      -0.019   1.526   0.010  0.00  0.00    +0.004 C 
ATOM     16  C   UNL     1       0.002  -0.004   0.002  0.00  0.00    -0.002 C 
ENDBRANCH  14  16
ENDBRANCH  13  14
ENDBRANCH   9  13
ENDBRANCH   1  10
BRANCH   5  17
ATOM     17  C   UNL     1       3.032  -7.837   5.051  0.00  0.00    +0.019 C 
BRANCH  17  18
ATOM     18  C   UNL     1       1.605  -8.291   5.216  0.00  0.00    +0.197 C 
ATOM     19  O   UNL     1       0.714  -7.472   5.302  0.00  0.00    -0.278 OA
ATOM     20  N   UNL     1       1.318  -9.606   5.267  0.00  0.00    -0.314 N 
ATOM     21  H   UNL     1       2.030 -10.261   5.198  0.00  0.00    +0.149 HD
BRANCH  20  22
ATOM     22  C   UNL     1      -0.070 -10.048   5.428  0.00  0.00    +0.073 C 
ATOM     23  C   UNL     1      -0.433 -10.059   6.914  0.00  0.00    +0.027 C 
ATOM     24  C   UNL     1      -1.883 -10.516   7.081  0.00  0.00    +0.067 C 
ATOM     25  C   UNL     1      -2.043 -11.923   6.502  0.00  0.00    +0.170 C 
ATOM     26  C   UNL     1      -1.677 -11.917   5.017  0.00  0.00    +0.067 C 
ATOM     27  C   UNL     1      -0.227 -11.457   4.853  0.00  0.00    +0.027 C 
ATOM     28  O   UNL     1      -1.177 -12.830   7.204  0.00  0.00    -0.346 OA
ATOM     29  C   UNL     1      -2.015 -13.426   8.224  0.00  0.00    +0.191 C 
ATOM     30  C   UNL     1      -3.373 -13.541   7.488  0.00  0.00    +0.191 C 
ATOM     31  O   UNL     1      -3.399 -12.359   6.662  0.00  0.00    -0.346 OA
ENDBRANCH  20  22
ENDBRANCH  17  18
ENDBRANCH   5  17
TORSDOF 7
