REMARK  Name = ZINC39747207
REMARK  9 active torsions:
REMARK  status: ('A' for Active; 'I' for Inactive)
REMARK    1  A    between atoms: C_1  and  C_2
REMARK    2  A    between atoms: C_2  and  C_3
REMARK    3  A    between atoms: C_2  and  C_4
REMARK    4  A    between atoms: C_2  and  C_5
REMARK    5  A    between atoms: C_8  and  O_11
REMARK    6  A    between atoms: O_11  and  C_12
REMARK    7  A    between atoms: C_14  and  C_25
REMARK    8  A    between atoms: C_26  and  C_27
REMARK    9  A    between atoms: C_26  and  C_29
REMARK                            x       y       z     vdW  Elec       q    Type
REMARK                         _______ _______ _______ _____ _____    ______ ____
ROOT
ATOM      1  C   UNL     1       4.000  -1.423  -4.801  0.00  0.00    +0.308 C 
ATOM      2  C   UNL     1       4.426  -1.674  -6.249  0.00  0.00    +0.163 C 
ATOM      3  C   UNL     1       4.614  -3.156  -6.458  0.00  0.00    +0.237 C 
ATOM      4  O   UNL     1       4.316  -3.665  -7.517  0.00  0.00    -0.274 OA
ATOM      5  N   UNL     1       5.117  -3.910  -5.461  0.00  0.00    -0.231 N 
ATOM      6  C   UNL     1       5.428  -5.226  -5.697  0.00  0.00    +0.085 C 
ATOM      7  C   UNL     1       6.048  -5.964  -4.757  0.00  0.00    +0.016 C 
ATOM      8  C   UNL     1       6.387  -5.397  -3.513  0.00  0.00    +0.005 C 
ATOM      9  C   UNL     1       6.034  -4.116  -3.237  0.00  0.00    +0.044 C 
ATOM     10  C   UNL     1       5.327  -3.365  -4.211  0.00  0.00    +0.130 C 
ATOM     11  N   UNL     1       4.848  -2.192  -3.892  0.00  0.00    -0.225 NA
ENDROOT
BRANCH   2  12
ATOM     12  C   UNL     1       5.721  -0.956  -6.525  0.00  0.00    +0.010 C 
ATOM     13  C   UNL     1       5.778  -0.029  -7.478  0.00  0.00    +0.068 C 
BRANCH  13  14
ATOM     14  C   UNL     1       7.073   0.689  -7.755  0.00  0.00    +0.216 C 
ATOM     15  N   UNL     1       6.885   2.139  -7.617  0.00  0.00    -0.359 N 
ATOM     16  C   UNL     1       7.158   2.679  -8.770  0.00  0.00    +0.060 A 
ATOM     17  C   UNL     1       7.152   4.069  -9.248  0.00  0.00    +0.027 A 
ATOM     18  C   UNL     1       7.489   4.333 -10.526  0.00  0.00    +0.002 A 
ATOM     19  C   UNL     1       7.852   3.326 -11.439  0.00  0.00    +0.002 A 
ATOM     20  C   UNL     1       7.890   2.021 -11.104  0.00  0.00    +0.027 A 
ATOM     21  C   UNL     1       7.543   1.614  -9.735  0.00  0.00    +0.060 A 
ATOM     22  N   UNL     1       7.493   0.456  -9.142  0.00  0.00    -0.359 N 
ATOM     23  H   UNL     1       6.608   2.608  -6.815  0.00  0.00    +0.162 HD
ATOM     24  H   UNL     1       7.696  -0.404  -9.543  0.00  0.00    +0.162 HD
ENDBRANCH  13  14
BRANCH  13  25
ATOM     25  C   UNL     1       4.608   0.286  -8.241  0.00  0.00    +0.098 C 
ATOM     26  N   UNL     1       3.679   0.535  -8.846  0.00  0.00    -0.191 NA
ENDBRANCH  13  25
ENDBRANCH   2  12
BRANCH   1  27
ATOM     27  O   UNL     1       2.639  -1.822  -4.631  0.00  0.00    -0.466 OA
BRANCH  27  31
ATOM     28  C   UNL     1       0.707  -0.490  -1.238  0.00  0.00    -0.042 A 
ATOM     29  C   UNL     1       0.035  -1.284  -2.148  0.00  0.00    +0.008 A 
ATOM     30  C   UNL     1       0.679  -1.732  -3.285  0.00  0.00    +0.046 A 
ATOM     31  C   UNL     1       2.002  -1.383  -3.514  0.00  0.00    +0.123 A 
ATOM     32  C   UNL     1       2.675  -0.585  -2.599  0.00  0.00    +0.046 A 
ATOM     33  C   UNL     1       2.024  -0.136  -1.466  0.00  0.00    +0.008 A 
BRANCH  28  35
ATOM     34  C   UNL     1      -0.019   1.526   0.010  0.00  0.00    +0.015 C 
ATOM     35  C   UNL     1       0.002  -0.004   0.002  0.00  0.00    -0.013 C 
ATOM     36  C   UNL     1       0.742  -0.511   1.242  0.00  0.00    +0.015 C 
ATOM     37  C   UNL     1      -1.433  -0.534   0.013  0.00  0.00    +0.015 C 
ENDBRANCH  28  35
ENDBRANCH  27  31
ENDBRANCH   1  27
TORSDOF 6
