REMARK  Name = ZINC59213060
REMARK  11 active torsions:
REMARK  status: ('A' for Active; 'I' for Inactive)
REMARK    1  A    between atoms: C_1  and  C_2
REMARK    2  A    between atoms: C_2  and  O_3
REMARK    3  A    between atoms: O_3  and  C_4
REMARK    4  A    between atoms: C_4  and  C_6
REMARK    5  A    between atoms: C_7  and  C_28
REMARK    6  A    between atoms: C_10  and  N_11
REMARK    7  A    between atoms: C_12  and  C_14
REMARK    8  A    between atoms: C_14  and  S_15
REMARK    9  A    between atoms: S_15  and  C_16
REMARK   10  A    between atoms: C_19  and  C_21
REMARK   11  A    between atoms: C_24  and  C_27
REMARK                            x       y       z     vdW  Elec       q    Type
REMARK                         _______ _______ _______ _____ _____    ______ ____
ROOT
ATOM      1  N   UNL     1      -3.041  -2.526   2.495  0.00  0.00    -0.279 N 
ATOM      2  C   UNL     1      -3.818  -2.870   3.540  0.00  0.00    +0.228 C 
ATOM      3  O   UNL     1      -4.919  -3.342   3.348  0.00  0.00    -0.275 OA
ATOM      4  H   UNL     1      -2.160  -2.149   2.648  0.00  0.00    +0.155 HD
ENDROOT
BRANCH   1   9
ATOM      5  C   UNL     1      -2.841  -2.416   0.016  0.00  0.00    +0.096 A 
ATOM      6  C   UNL     1      -3.552  -2.716  -1.215  0.00  0.00    +0.012 A 
ATOM      7  C   UNL     1      -4.793  -3.250  -1.055  0.00  0.00    +0.057 A 
ATOM      8  S   UNL     1      -4.976  -3.337   0.713  0.00  0.00    -0.080 S 
ATOM      9  C   UNL     1      -3.499  -2.710   1.200  0.00  0.00    +0.086 A 
BRANCH   6  10
ATOM     10  C   UNL     1      -2.969  -2.458  -2.547  0.00  0.00    +0.021 A 
ATOM     11  C   UNL     1      -2.878  -3.297  -3.627  0.00  0.00    +0.016 A 
ATOM     12  C   UNL     1      -2.284  -2.829  -4.780  0.00  0.00    +0.008 A 
ATOM     13  C   UNL     1      -1.810  -1.558  -4.811  0.00  0.00    +0.046 A 
ATOM     14  S   UNL     1      -2.206  -0.970  -3.173  0.00  0.00    -0.097 S 
ENDBRANCH   6  10
BRANCH   5  15
ATOM     15  C   UNL     1      -1.497  -1.838   0.006  0.00  0.00    +0.342 C 
ATOM     16  O   UNL     1      -0.522  -2.566  -0.007  0.00  0.00    -0.245 OA
BRANCH  15  17
ATOM     17  O   UNL     1      -1.339  -0.499   0.012  0.00  0.00    -0.461 OA
BRANCH  17  19
ATOM     18  C   UNL     1      -0.019   1.526   0.010  0.00  0.00    +0.048 C 
ATOM     19  C   UNL     1       0.002  -0.004   0.002  0.00  0.00    +0.229 C 
ENDBRANCH  17  19
ENDBRANCH  15  17
ENDBRANCH   5  15
ENDBRANCH   1   9
BRANCH   2  20
ATOM     20  C   UNL     1      -3.320  -2.670   4.948  0.00  0.00    +0.175 C 
BRANCH  20  21
ATOM     21  S   UNL     1      -4.586  -3.225   6.123  0.00  0.00    -0.056 S 
BRANCH  21  22
ATOM     22  C   UNL     1      -3.861  -2.929   7.702  0.00  0.00    +0.278 A 
ATOM     23  N   UNL     1      -2.675  -2.415   7.928  0.00  0.00    -0.101 NA
ATOM     24  N   UNL     1      -2.474  -2.343   9.197  0.00  0.00    -0.106 NA
ATOM     25  C   UNL     1      -3.523  -2.808   9.831  0.00  0.00    +0.249 A 
ATOM     26  O   UNL     1      -4.426  -3.184   8.898  0.00  0.00    -0.411 OA
BRANCH  25  27
ATOM     27  C   UNL     1      -3.691  -2.899  11.296  0.00  0.00    +0.039 A 
ATOM     28  C   UNL     1      -4.866  -3.424  11.836  0.00  0.00    +0.013 A 
ATOM     29  C   UNL     1      -5.016  -3.506  13.205  0.00  0.00    +0.004 A 
ATOM     30  C   UNL     1      -4.005  -3.069  14.042  0.00  0.00    -0.050 A 
ATOM     31  C   UNL     1      -2.837  -2.547  13.513  0.00  0.00    +0.004 A 
ATOM     32  C   UNL     1      -2.672  -2.465  12.146  0.00  0.00    +0.013 A 
ATOM     33  C   UNL     1      -4.176  -3.161  15.537  0.00  0.00    +0.044 C 
ENDBRANCH  25  27
ENDBRANCH  21  22
ENDBRANCH  20  21
ENDBRANCH   2  20
TORSDOF 9
