REMARK  Name = ZINC61539618
REMARK  0 active torsions:
REMARK  status: ('A' for Active; 'I' for Inactive)
REMARK                            x       y       z     vdW  Elec       q    Type
REMARK                         _______ _______ _______ _____ _____    ______ ____
ROOT
ATOM      1  C   UNL     1      -0.019   1.526   0.010  0.00  0.00    +0.003 C 
ATOM      2  C   UNL     1       1.417   2.058  -0.000  0.00  0.00    +0.019 C 
ATOM      3  C   UNL     1       2.144   1.577   1.259  0.00  0.00    +0.108 C 
ATOM      4  N   UNL     1       2.043   0.113   1.334  0.00  0.00    -0.299 N 
ATOM      5  C   UNL     1       0.714  -0.508   1.262  0.00  0.00    +0.108 C 
ATOM      6  C   UNL     1       0.002  -0.004   0.002  0.00  0.00    +0.019 C 
ATOM      7  C   UNL     1       3.176  -0.664   1.469  0.00  0.00    +0.223 A 
ATOM      8  N   UNL     1       3.071  -1.987   1.530  0.00  0.00    -0.181 NA
ATOM      9  C   UNL     1       4.164  -2.732   1.660  0.00  0.00    +0.224 A 
ATOM     10  N   UNL     1       5.359  -2.150   1.729  0.00  0.00    -0.184 NA
ATOM     11  C   UNL     1       5.460  -0.833   1.668  0.00  0.00    +0.229 A 
ATOM     12  N   UNL     1       4.374  -0.089   1.533  0.00  0.00    -0.184 NA
ATOM     13 CL   UNL     1       7.021  -0.078   1.758  0.00  0.00    -0.041 Cl
ATOM     14  N   UNL     1       4.060  -4.106   1.724  0.00  0.00    -0.296 N 
ATOM     15  C   UNL     1       2.815  -4.901   1.657  0.00  0.00    +0.112 C 
ATOM     16  C   UNL     1       3.269  -6.387   1.800  0.00  0.00    +0.008 C 
ATOM     17  C   UNL     1       3.975  -6.697   0.443  0.00  0.00    +0.007 C 
ATOM     18  C   UNL     1       5.243  -5.812   0.466  0.00  0.00    +0.023 C 
ATOM     19  C   UNL     1       5.181  -5.078   1.869  0.00  0.00    +0.077 C 
ATOM     20  C   UNL     1       4.504  -6.189   2.752  0.00  0.00    +0.027 C 
ENDROOT
TORSDOF 0
