REMARK  Name = ZINC60349407
REMARK  9 active torsions:
REMARK  status: ('A' for Active; 'I' for Inactive)
REMARK    1  A    between atoms: C_1  and  C_2
REMARK    2  A    between atoms: C_2  and  C_3
REMARK    3  A    between atoms: C_2  and  C_4
REMARK    4  A    between atoms: C_7  and  C_10
REMARK    5  A    between atoms: C_10  and  C_12
REMARK    6  A    between atoms: C_10  and  N_17
REMARK    7  A    between atoms: C_18  and  C_20
REMARK    8  A    between atoms: C_20  and  C_21
REMARK    9  A    between atoms: C_26  and  O_27
REMARK                            x       y       z     vdW  Elec       q    Type
REMARK                         _______ _______ _______ _____ _____    ______ ____
ROOT
ATOM      1  C   UNL     1      -5.419  -2.005   0.043  0.00  0.00    +0.140 C 
ENDROOT
BRANCH   1   5
ATOM      2  C   UNL     1      -1.412  -0.526   0.013  0.00  0.00    -0.045 A 
ATOM      3  C   UNL     1      -2.259  -0.204   1.056  0.00  0.00    +0.004 A 
ATOM      4  C   UNL     1      -3.556  -0.683   1.066  0.00  0.00    +0.006 A 
ATOM      5  C   UNL     1      -4.006  -1.482   0.032  0.00  0.00    -0.022 A 
ATOM      6  C   UNL     1      -3.159  -1.803  -1.012  0.00  0.00    +0.006 A 
ATOM      7  C   UNL     1      -1.863  -1.321  -1.024  0.00  0.00    +0.004 A 
BRANCH   2   9
ATOM      8  C   UNL     1      -0.019   1.526   0.010  0.00  0.00    +0.012 C 
ATOM      9  C   UNL     1       0.002  -0.004   0.002  0.00  0.00    +0.013 C 
ATOM     10  C   UNL     1       0.742  -0.511   1.242  0.00  0.00    +0.012 C 
ENDBRANCH   2   9
ENDBRANCH   1   5
BRANCH   1  11
ATOM     11  C   UNL     1      -6.275  -1.157  -0.862  0.00  0.00    +0.014 A 
ATOM     12  C   UNL     1      -7.126  -0.152  -0.537  0.00  0.00    +0.013 A 
ATOM     13  C   UNL     1      -7.815   0.495  -1.546  0.00  0.00    +0.008 A 
ATOM     14  C   UNL     1      -7.620   0.105  -2.829  0.00  0.00    +0.045 A 
ATOM     15  S   UNL     1      -6.427  -1.209  -2.639  0.00  0.00    -0.099 S 
ENDBRANCH   1  11
BRANCH   1  16
ATOM     16  N   UNL     1      -5.431  -3.391  -0.431  0.00  0.00    -0.304 N 
ATOM     17  C   UNL     1      -6.424  -4.222  -0.057  0.00  0.00    +0.218 C 
ATOM     18  O   UNL     1      -7.307  -3.823   0.672  0.00  0.00    -0.275 OA
ATOM     19  H   UNL     1      -4.725  -3.710  -1.014  0.00  0.00    +0.150 HD
BRANCH  17  20
ATOM     20  C   UNL     1      -6.436  -5.648  -0.545  0.00  0.00    +0.134 C 
BRANCH  20  21
ATOM     21  C   UNL     1      -7.642  -6.360   0.013  0.00  0.00    +0.003 A 
ATOM     22  C   UNL     1      -7.531  -7.100   1.175  0.00  0.00    +0.008 A 
ATOM     23  C   UNL     1      -8.637  -7.753   1.687  0.00  0.00    +0.001 A 
ATOM     24  C   UNL     1      -9.855  -7.667   1.039  0.00  0.00    +0.004 A 
ATOM     25  C   UNL     1      -9.971  -6.928  -0.122  0.00  0.00    +0.046 A 
ATOM     26  C   UNL     1      -8.864  -6.267  -0.635  0.00  0.00    +0.120 A 
BRANCH  26  27
ATOM     27  O   UNL     1      -8.977  -5.535  -1.774  0.00  0.00    -0.506 OA
ATOM     28  H   UNL     1      -8.809  -6.037  -2.583  0.00  0.00    +0.292 HD
ENDBRANCH  26  27
ENDBRANCH  20  21
ENDBRANCH  17  20
ENDBRANCH   1  16
TORSDOF 7
