REMARK  Name = ZINC66570618
REMARK  5 active torsions:
REMARK  status: ('A' for Active; 'I' for Inactive)
REMARK    1  A    between atoms: C_6  and  N_7
REMARK    2  A    between atoms: C_9  and  C_12
REMARK    3  A    between atoms: N_14  and  N_15
REMARK    4  A    between atoms: C_16  and  C_18
REMARK    5  A    between atoms: C_18  and  C_19
REMARK                            x       y       z     vdW  Elec       q    Type
REMARK                         _______ _______ _______ _____ _____    ______ ____
ROOT
ATOM      1  C   UNL     1      -3.298  -3.667   0.022  0.00  0.00    +0.282 C 
ATOM      2  O   UNL     1      -2.596  -4.660   0.016  0.00  0.00    -0.267 OA
ATOM      3  N   UNL     1      -4.640  -3.790   0.032  0.00  0.00    -0.229 N 
ATOM      4  H   UNL     1      -5.200  -2.997   0.037  0.00  0.00    +0.173 HD
ENDROOT
BRANCH   1   7
ATOM      5  N   UNL     1      -1.203  -0.723   0.010  0.00  0.00    -0.219 N 
ATOM      6  C   UNL     1      -1.339  -2.067   0.010  0.00  0.00    +0.149 A 
ATOM      7  C   UNL     1      -2.680  -2.327   0.019  0.00  0.00    +0.169 A 
ATOM      8  N   UNL     1      -3.341  -1.157   0.025  0.00  0.00    -0.124 NA
ATOM      9  N   UNL     1      -2.497  -0.185   0.026  0.00  0.00    -0.060 NA
BRANCH   5  15
ATOM     10  C   UNL     1      -0.017   1.384   0.010  0.00  0.00    +0.030 A 
ATOM     11  C   UNL     1       1.170   2.090   0.002  0.00  0.00    +0.040 A 
ATOM     12  C   UNL     1       2.379   1.414  -0.013  0.00  0.00    +0.124 A 
ATOM     13  C   UNL     1       2.400   0.029  -0.021  0.00  0.00    +0.040 A 
ATOM     14  C   UNL     1       1.214  -0.680  -0.014  0.00  0.00    +0.030 A 
ATOM     15  C   UNL     1       0.002  -0.004   0.002  0.00  0.00    +0.067 A 
ATOM     16  F   UNL     1       3.539   2.106  -0.020  0.00  0.00    -0.205 F 
ENDBRANCH   5  15
ENDBRANCH   1   7
BRANCH   3  17
ATOM     17  N   UNL     1      -5.227  -5.062   0.035  0.00  0.00    -0.234 N 
ATOM     18  C   UNL     1      -6.569  -5.185   0.045  0.00  0.00    +0.229 C 
ATOM     19  O   UNL     1      -7.269  -4.194   0.051  0.00  0.00    -0.274 OA
ATOM     20  H   UNL     1      -4.667  -5.854   0.030  0.00  0.00    +0.173 HD
BRANCH  18  21
ATOM     21  C   UNL     1      -7.200  -6.553   0.048  0.00  0.00    +0.101 C 
BRANCH  21  22
ATOM     22  C   UNL     1      -8.724  -6.412   0.059  0.00  0.00    -0.002 C 
ATOM     23  C   UNL     1      -9.166  -5.759   1.371  0.00  0.00    +0.004 C 
ATOM     24  C   UNL     1     -10.689  -5.618   1.382  0.00  0.00    +0.000 C 
ATOM     25  C   UNL     1     -11.331  -7.002   1.260  0.00  0.00    +0.000 C 
ATOM     26  C   UNL     1     -10.889  -7.654  -0.052  0.00  0.00    +0.000 C 
ATOM     27  C   UNL     1      -9.365  -7.796  -0.063  0.00  0.00    +0.004 C 
ENDBRANCH  21  22
ENDBRANCH  18  21
ENDBRANCH   3  17
TORSDOF 5
