REMARK  Name = ZINC25784854
REMARK  9 active torsions:
REMARK  status: ('A' for Active; 'I' for Inactive)
REMARK    1  A    between atoms: C_1  and  C_2
REMARK    2  A    between atoms: C_9  and  C_16
REMARK    3  A    between atoms: C_11  and  O_12
REMARK    4  A    between atoms: C_16  and  O_17
REMARK    5  A    between atoms: O_17  and  C_18
REMARK    6  A    between atoms: C_18  and  C_20
REMARK    7  A    between atoms: C_23  and  S_29
REMARK    8  A    between atoms: C_24  and  N_26
REMARK    9  A    between atoms: S_29  and  C_30
REMARK                            x       y       z     vdW  Elec       q    Type
REMARK                         _______ _______ _______ _____ _____    ______ ____
ROOT
ATOM      1  O   UNL     1      -0.306  -8.457   0.165  0.00  0.00    -0.456 OA
ENDROOT
BRANCH   1   2
ATOM      2  C   UNL     1      -0.532  -9.265   1.220  0.00  0.00    +0.340 C 
ATOM      3  O   UNL     1      -0.684  -8.789   2.328  0.00  0.00    -0.245 OA
BRANCH   2   4
ATOM      4  C   UNL     1      -0.595 -10.725   1.029  0.00  0.00    +0.061 A 
ATOM      5  C   UNL     1      -0.426 -11.273  -0.247  0.00  0.00    +0.016 A 
ATOM      6  C   UNL     1      -0.478 -12.627  -0.419  0.00  0.00    +0.018 A 
ATOM      7  C   UNL     1      -0.712 -13.461   0.673  0.00  0.00    +0.043 A 
ATOM      8  C   UNL     1      -0.886 -12.917   1.944  0.00  0.00    +0.141 A 
ATOM      9  C   UNL     1      -0.829 -11.564   2.123  0.00  0.00    +0.048 A 
BRANCH   8  10
ATOM     10  N   UNL     1      -1.135 -13.807   3.100  0.00  0.00    +0.058 N 
ATOM     11  O   UNL     1      -1.288 -13.332   4.212  0.00  0.00    -0.126 OA
ATOM     12  O   UNL     1      -1.186 -15.013   2.941  0.00  0.00    -0.126 OA
ENDBRANCH   8  10
BRANCH   7  13
ATOM     13  S   UNL     1      -0.786 -15.207   0.446  0.00  0.00    -0.087 S 
BRANCH  13  14
ATOM     14  C   UNL     1       0.774 -15.779   1.031  0.00  0.00    +0.013 A 
ATOM     15  C   UNL     1       1.753 -14.869   1.409  0.00  0.00    +0.015 A 
ATOM     16  C   UNL     1       2.972 -15.321   1.874  0.00  0.00    +0.001 A 
ATOM     17  C   UNL     1       3.224 -16.679   1.952  0.00  0.00    +0.000 A 
ATOM     18  C   UNL     1       2.254 -17.588   1.570  0.00  0.00    +0.001 A 
ATOM     19  C   UNL     1       1.030 -17.143   1.111  0.00  0.00    +0.015 A 
ENDBRANCH  13  14
ENDBRANCH   7  13
ENDBRANCH   2   4
ENDBRANCH   1   2
BRANCH   1  20
ATOM     20  C   UNL     1      -0.258  -7.029   0.426  0.00  0.00    +0.269 C 
BRANCH  20  29
ATOM     21  C   UNL     1      -0.082   1.508  -2.062  0.00  0.00    +0.109 C 
ATOM     22  C   UNL     1      -0.087   0.001  -2.070  0.00  0.00    +0.214 C 
ATOM     23  O   UNL     1      -0.512  -0.598  -3.034  0.00  0.00    -0.276 OA
ATOM     24  N   UNL     1       0.382  -0.680  -1.006  0.00  0.00    -0.286 N 
ATOM     25  C   UNL     1       0.288  -2.072  -0.972  0.00  0.00    +0.037 A 
ATOM     26  C   UNL     1       0.053  -2.720   0.240  0.00  0.00    +0.024 A 
ATOM     27  C   UNL     1      -0.047  -4.080   0.288  0.00  0.00    +0.014 A 
ATOM     28  C   UNL     1       0.099  -4.830  -0.885  0.00  0.00    +0.024 A 
ATOM     29  C   UNL     1       0.002  -6.291  -0.862  0.00  0.00    +0.007 A 
ATOM     30  C   UNL     1       0.152  -6.963  -2.033  0.00  0.00    +0.095 A 
ATOM     31  C   UNL     1       0.394  -6.250  -3.225  0.00  0.00    +0.285 A 
ATOM     32  O   UNL     1       0.481  -4.910  -3.239  0.00  0.00    -0.425 OA
ATOM     33  C   UNL     1       0.342  -4.183  -2.111  0.00  0.00    +0.141 A 
ATOM     34  C   UNL     1       0.435  -2.800  -2.143  0.00  0.00    +0.070 A 
ATOM     35  H   UNL     1       0.838  -0.139  -0.164  0.00  0.00    +0.155 HD
BRANCH  31  36
ATOM     36  O   UNL     1       0.526  -6.864  -4.268  0.00  0.00    -0.480 OA
ATOM     37  H   UNL     1       0.715  -6.322  -5.206  0.00  0.00    +0.295 HD
ENDBRANCH  31  36
ENDBRANCH  20  29
ENDBRANCH   1  20
TORSDOF 8
