REMARK  Name = ZINC42015377
REMARK  4 active torsions:
REMARK  status: ('A' for Active; 'I' for Inactive)
REMARK    1  A    between atoms: C_1  and  C_2
REMARK    2  A    between atoms: C_7  and  N_8
REMARK    3  A    between atoms: C_9  and  C_13
REMARK    4  A    between atoms: C_18  and  N_19
REMARK                            x       y       z     vdW  Elec       q    Type
REMARK                         _______ _______ _______ _____ _____    ______ ____
ROOT
ATOM      1  N   UNL     1      -0.541  -0.167   2.871  0.00  0.00    -0.192 N 
ATOM      2  C   UNL     1       0.389  -0.731   3.695  0.00  0.00    +0.189 A 
ATOM      3  N   UNL     1       1.085   0.258   4.219  0.00  0.00    -0.108 NA
ATOM      4  N   UNL     1       0.659   1.388   3.784  0.00  0.00    -0.022 NA
ATOM      5  N   UNL     1      -0.318   1.218   2.961  0.00  0.00    -0.039 NA
ENDROOT
BRANCH   1  12
ATOM      6  C   UNL     1       0.004  -0.587   0.110  0.00  0.00    +0.046 C 
ATOM      7  C   UNL     1      -1.280  -1.051   0.747  0.00  0.00    -0.024 A 
ATOM      8  C   UNL     1      -2.231  -1.706  -0.012  0.00  0.00    +0.020 A 
ATOM      9  C   UNL     1      -3.410  -2.133   0.572  0.00  0.00    +0.018 A 
ATOM     10  C   UNL     1      -3.640  -1.905   1.918  0.00  0.00    +0.017 A 
ATOM     11  C   UNL     1      -2.693  -1.251   2.681  0.00  0.00    +0.029 A 
ATOM     12  C   UNL     1      -1.507  -0.827   2.098  0.00  0.00    +0.072 A 
ATOM     13 BR   UNL     1      -4.710  -3.028  -0.470  0.00  0.00    -0.050 Br
ENDBRANCH   1  12
BRANCH   2  14
ATOM     14  C   UNL     1       0.579  -2.174   3.951  0.00  0.00    +0.044 A 
ATOM     15  C   UNL     1       0.663  -3.071   2.886  0.00  0.00    +0.051 A 
ATOM     16  C   UNL     1       0.840  -4.418   3.131  0.00  0.00    +0.124 A 
ATOM     17  C   UNL     1       0.935  -4.884   4.434  0.00  0.00    +0.040 A 
ATOM     18  C   UNL     1       0.852  -4.006   5.497  0.00  0.00    +0.026 A 
ATOM     19  C   UNL     1       0.681  -2.648   5.266  0.00  0.00    +0.036 A 
ATOM     20  F   UNL     1       0.921  -5.285   2.099  0.00  0.00    -0.205 F 
BRANCH  19  21
ATOM     21  N   UNL     1       0.604  -1.760   6.338  0.00  0.00    -0.357 N 
ATOM     22  H   UNL     1       0.480  -0.812   6.175  0.00  0.00    +0.142 HD
ATOM     23  H   UNL     1       0.675  -2.091   7.248  0.00  0.00    +0.142 HD
ENDBRANCH  19  21
ENDBRANCH   2  14
TORSDOF 3
