REMARK  Name = ZINC63588932
REMARK  9 active torsions:
REMARK  status: ('A' for Active; 'I' for Inactive)
REMARK    1  A    between atoms: C_1  and  C_2
REMARK    2  A    between atoms: C_5  and  C_9
REMARK    3  A    between atoms: C_9  and  N_11
REMARK    4  A    between atoms: N_13  and  C_14
REMARK    5  A    between atoms: C_17  and  O_20
REMARK    6  A    between atoms: O_20  and  C_21
REMARK    7  A    between atoms: N_22  and  C_23
REMARK    8  A    between atoms: C_23  and  C_24
REMARK    9  A    between atoms: C_24  and  C_25
REMARK                            x       y       z     vdW  Elec       q    Type
REMARK                         _______ _______ _______ _____ _____    ______ ____
ROOT
ATOM      1  N   UNL     1       0.456  -5.000   1.116  0.00  0.00    -0.143 NA
ATOM      2  C   UNL     1       0.761  -6.278   0.946  0.00  0.00    +0.194 C 
ATOM      3  N   UNL     1       0.385  -6.923  -0.196  0.00  0.00    -0.328 N 
ATOM      4  N   UNL     1       1.451  -6.949   1.913  0.00  0.00    -0.357 N 
ATOM      5  H   UNL     1      -0.024  -6.426  -0.922  0.00  0.00    +0.169 HD
ATOM      6  H   UNL     1       1.700  -7.876   1.776  0.00  0.00    +0.162 HD
ENDROOT
BRANCH   3   7
ATOM      7  C   UNL     1       0.589  -8.303  -0.320  0.00  0.00    +0.042 A 
ATOM      8  C   UNL     1       0.516  -9.120   0.801  0.00  0.00    +0.029 A 
ATOM      9  C   UNL     1       0.717 -10.480   0.677  0.00  0.00    +0.047 A 
ATOM     10  C   UNL     1       0.992 -11.031  -0.566  0.00  0.00    +0.120 A 
ATOM     11  C   UNL     1       1.064 -10.216  -1.686  0.00  0.00    +0.047 A 
ATOM     12  C   UNL     1       0.857  -8.856  -1.565  0.00  0.00    +0.029 A 
BRANCH  10  13
ATOM     13  O   UNL     1       1.190 -12.371  -0.686  0.00  0.00    -0.495 OA
ATOM     14  C   UNL     1       1.469 -12.870  -1.996  0.00  0.00    +0.277 C 
ENDBRANCH  10  13
ENDBRANCH   3   7
BRANCH   1  15
ATOM     15  C   UNL     1      -0.426  -4.408   0.301  0.00  0.00    +0.270 C 
ATOM     16  O   UNL     1      -1.037  -5.070  -0.519  0.00  0.00    -0.268 OA
BRANCH  15  21
ATOM     17  C   UNL     1      -1.337   1.266   0.670  0.00  0.00    +0.047 C 
ATOM     18  C   UNL     1      -1.098  -0.218   0.574  0.00  0.00    -0.015 A 
ATOM     19  C   UNL     1      -1.713  -0.952  -0.425  0.00  0.00    +0.007 A 
ATOM     20  C   UNL     1      -1.498  -2.312  -0.519  0.00  0.00    +0.013 A 
ATOM     21  C   UNL     1      -0.660  -2.948   0.397  0.00  0.00    +0.042 A 
ATOM     22  C   UNL     1      -0.042  -2.205   1.403  0.00  0.00    +0.051 A 
ATOM     23  C   UNL     1      -0.260  -0.843   1.484  0.00  0.00    +0.127 A 
ATOM     24  F   UNL     1       0.341  -0.120   2.454  0.00  0.00    -0.205 F 
ENDBRANCH  15  21
ENDBRANCH   1  15
BRANCH   4  25
ATOM     25  C   UNL     1       1.814  -6.269   3.159  0.00  0.00    +0.120 C 
BRANCH  25  26
ATOM     26  C   UNL     1       2.576  -7.238   4.065  0.00  0.00    +0.054 C 
BRANCH  26  27
ATOM     27  C   UNL     1       2.950  -6.539   5.347  0.00  0.00    -0.040 C 
ATOM     28  C   UNL     1       2.267  -6.561   6.514  0.00  0.00    -0.001 A 
ATOM     29  C   UNL     1       1.019  -7.216   6.924  0.00  0.00    +0.010 A 
ATOM     30  C   UNL     1       0.576  -7.048   8.190  0.00  0.00    +0.001 A 
ATOM     31  C   UNL     1       1.276  -6.265   9.119  0.00  0.00    +0.002 A 
ATOM     32  C   UNL     1       2.429  -5.632   8.817  0.00  0.00    +0.026 A 
ATOM     33  C   UNL     1       2.988  -5.740   7.513  0.00  0.00    +0.043 A 
ATOM     34  N   UNL     1       4.074  -5.231   6.984  0.00  0.00    -0.380 N 
ATOM     35  C   UNL     1       4.168  -5.677   5.590  0.00  0.00    +0.144 C 
ATOM     36  H   UNL     1       4.711  -4.659   7.440  0.00  0.00    +0.160 HD
ENDBRANCH  26  27
ENDBRANCH  25  26
ENDBRANCH   4  25
TORSDOF 7
