REMARK  Name = ZINC05506890
REMARK  6 active torsions:
REMARK  status: ('A' for Active; 'I' for Inactive)
REMARK    1  A    between atoms: C_1  and  N_2
REMARK    2  A    between atoms: C_6  and  C_8
REMARK    3  A    between atoms: C_8  and  C_10
REMARK    4  A    between atoms: C_8  and  O_16
REMARK    5  A    between atoms: O_16  and  C_17
REMARK    6  A    between atoms: C_17  and  C_19
REMARK                            x       y       z     vdW  Elec       q    Type
REMARK                         _______ _______ _______ _____ _____    ______ ____
ROOT
ATOM      1  O   UNL     1      -1.186   1.859   0.018  0.00  0.00    -0.446 OA
ENDROOT
BRANCH   1   2
ATOM      2  C   UNL     1      -0.014   1.204   0.009  0.00  0.00    +0.320 C 
ATOM      3  O   UNL     1       0.002  -0.004   0.002  0.00  0.00    -0.250 OA
BRANCH   2   4
ATOM      4  C   UNL     1       1.280   1.975   0.000  0.00  0.00    +0.165 C 
ATOM      5  C   UNL     1       1.326   2.855  -1.219  0.00  0.00    +0.013 A 
ATOM      6  C   UNL     1       0.602   4.034  -1.233  0.00  0.00    +0.008 A 
ATOM      7  C   UNL     1       0.630   4.856  -2.343  0.00  0.00    +0.001 A 
ATOM      8  C   UNL     1       1.384   4.501  -3.447  0.00  0.00    +0.004 A 
ATOM      9  C   UNL     1       2.109   3.329  -3.438  0.00  0.00    +0.046 A 
ATOM     10  C   UNL     1       2.083   2.500  -2.322  0.00  0.00    +0.133 A 
ATOM     11  O   UNL     1       2.803   1.352  -2.334  0.00  0.00    -0.455 OA
ATOM     12  C   UNL     1       3.135   0.747  -1.169  0.00  0.00    +0.133 A 
ATOM     13  C   UNL     1       2.434   1.009  -0.003  0.00  0.00    +0.013 A 
ATOM     14  C   UNL     1       2.793   0.377   1.174  0.00  0.00    +0.008 A 
ATOM     15  C   UNL     1       3.849  -0.514   1.191  0.00  0.00    +0.001 A 
ATOM     16  C   UNL     1       4.552  -0.777   0.030  0.00  0.00    +0.004 A 
ATOM     17  C   UNL     1       4.198  -0.149  -1.148  0.00  0.00    +0.046 A 
ENDBRANCH   2   4
ENDBRANCH   1   2
BRANCH   1  18
ATOM     18  C   UNL     1      -2.393   1.052   0.019  0.00  0.00    +0.292 C 
BRANCH  18  24
ATOM     19  C   UNL     1      -7.917   1.973   2.511  0.00  0.00    +0.129 C 
ATOM     20  N   UNL     1      -6.849   1.254   1.811  0.00  0.00    -0.302 N 
ATOM     21  C   UNL     1      -5.661   1.854   1.597  0.00  0.00    +0.306 C 
ATOM     22  O   UNL     1      -5.476   2.991   1.984  0.00  0.00    -0.252 OA
ATOM     23  N   UNL     1      -4.679   1.192   0.953  0.00  0.00    -0.237 N 
ATOM     24  C   UNL     1      -3.491   1.792   0.739  0.00  0.00    +0.266 C 
ATOM     25  O   UNL     1      -3.306   2.926   1.125  0.00  0.00    -0.271 OA
ATOM     26  H   UNL     1      -6.997   0.347   1.502  0.00  0.00    +0.150 HD
ATOM     27  H   UNL     1      -4.827   0.285   0.644  0.00  0.00    +0.159 HD
ENDBRANCH  18  24
BRANCH  18  28
ATOM     28  C   UNL     1      -2.817   0.780  -1.401  0.00  0.00    +0.002 A 
ATOM     29  C   UNL     1      -2.631   1.745  -2.374  0.00  0.00    +0.008 A 
ATOM     30  C   UNL     1      -3.017   1.494  -3.678  0.00  0.00    +0.000 A 
ATOM     31  C   UNL     1      -3.596   0.282  -4.007  0.00  0.00    +0.000 A 
ATOM     32  C   UNL     1      -3.786  -0.680  -3.033  0.00  0.00    +0.000 A 
ATOM     33  C   UNL     1      -3.397  -0.431  -1.730  0.00  0.00    +0.008 A 
ENDBRANCH  18  28
ENDBRANCH   1  18
TORSDOF 5
