REMARK  Name = ZINC40687892
REMARK  5 active torsions:
REMARK  status: ('A' for Active; 'I' for Inactive)
REMARK    1  A    between atoms: C_6  and  O_11
REMARK    2  A    between atoms: O_11  and  C_12
REMARK    3  A    between atoms: C_13  and  N_31
REMARK    4  A    between atoms: C_14  and  N_18
REMARK    5  A    between atoms: N_21  and  C_24
REMARK                            x       y       z     vdW  Elec       q    Type
REMARK                         _______ _______ _______ _____ _____    ______ ____
ROOT
ATOM      1  C   UNL     1       4.863  -3.988   0.022  0.00  0.00    +0.246 A 
ATOM      2  C   UNL     1       6.055  -4.703   0.127  0.00  0.00    +0.128 A 
ATOM      3  C   UNL     1       5.982  -6.094   0.245  0.00  0.00    +0.149 A 
ATOM      4  N   UNL     1       4.787  -6.678   0.251  0.00  0.00    -0.219 NA
ATOM      5  C   UNL     1       3.684  -5.963   0.149  0.00  0.00    +0.227 A 
ATOM      6  N   UNL     1       3.710  -4.650   0.042  0.00  0.00    -0.199 NA
ENDROOT
BRANCH   3   7
ATOM      7  N   UNL     1       7.140  -6.854   0.352  0.00  0.00    -0.311 N 
ATOM      8  C   UNL     1       7.767  -7.080   1.662  0.00  0.00    +0.125 C 
ATOM      9  C   UNL     1       7.909  -8.591   1.884  0.00  0.00    +0.124 C 
ATOM     10  N   UNL     1       8.528  -9.185   0.690  0.00  0.00    -0.325 N 
ATOM     11  C   UNL     1       7.900  -8.959  -0.620  0.00  0.00    +0.124 C 
ATOM     12  C   UNL     1       7.756  -7.453  -0.841  0.00  0.00    +0.125 C 
BRANCH  10  13
ATOM     13  C   UNL     1       9.693  -9.951   0.798  0.00  0.00    +0.065 A 
ATOM     14  C   UNL     1       9.608 -11.322   0.995  0.00  0.00    +0.026 A 
ATOM     15  C   UNL     1      10.761 -12.076   1.101  0.00  0.00    +0.002 A 
ATOM     16  C   UNL     1      11.999 -11.467   1.013  0.00  0.00    +0.003 A 
ATOM     17  C   UNL     1      12.089 -10.101   0.818  0.00  0.00    +0.040 A 
ATOM     18  C   UNL     1      10.939  -9.341   0.704  0.00  0.00    +0.144 A 
ATOM     19  F   UNL     1      11.027  -8.007   0.508  0.00  0.00    -0.204 F 
ENDBRANCH  10  13
ENDBRANCH   3   7
BRANCH   2  20
ATOM     20  N   UNL     1       7.295  -4.045   0.116  0.00  0.00    -0.351 N 
ATOM     21  H   UNL     1       7.329  -3.075   0.111  0.00  0.00    +0.143 HD
ATOM     22  H   UNL     1       8.117  -4.559   0.113  0.00  0.00    +0.143 HD
ENDBRANCH   2  20
BRANCH   1  23
ATOM     23  O   UNL     1       4.879  -2.636  -0.094  0.00  0.00    -0.436 OA
BRANCH  23  29
ATOM     24  C   UNL     1      -0.488   0.492  -1.226  0.00  0.00    +0.001 A 
ATOM     25  C   UNL     1       0.193   0.308  -2.428  0.00  0.00    +0.001 A 
ATOM     26  C   UNL     1       1.388  -0.343  -2.464  0.00  0.00    +0.008 A 
ATOM     27  C   UNL     1       1.946  -0.838  -1.273  0.00  0.00    -0.014 A 
ATOM     28  C   UNL     1       3.176  -1.515  -1.271  0.00  0.00    +0.054 A 
ATOM     29  C   UNL     1       3.688  -1.982  -0.094  0.00  0.00    +0.131 A 
ATOM     30  C   UNL     1       3.003  -1.796   1.111  0.00  0.00    +0.047 A 
ATOM     31  C   UNL     1       1.809  -1.145   1.142  0.00  0.00    +0.012 A 
ATOM     32  C   UNL     1       1.253  -0.651  -0.050  0.00  0.00    -0.018 A 
ATOM     33  C   UNL     1       0.022   0.026  -0.053  0.00  0.00    +0.008 A 
ENDBRANCH  23  29
ENDBRANCH   1  23
TORSDOF 5
