REMARK  Name = ZINC59852099
REMARK  6 active torsions:
REMARK  status: ('A' for Active; 'I' for Inactive)
REMARK    1  A    between atoms: C_6  and  C_7
REMARK    2  A    between atoms: C_7  and  C_9
REMARK    3  A    between atoms: C_7  and  N_12
REMARK    4  A    between atoms: C_13  and  C_15
REMARK    5  A    between atoms: C_18  and  N_24
REMARK    6  A    between atoms: C_19  and  N_21
REMARK                            x       y       z     vdW  Elec       q    Type
REMARK                         _______ _______ _______ _____ _____    ______ ____
ROOT
ATOM      1  N   UNL     1      -2.513   0.539  -0.513  0.00  0.00    -0.304 N 
ATOM      2  C   UNL     1      -3.451  -0.310  -0.976  0.00  0.00    +0.245 C 
ATOM      3  O   UNL     1      -3.574  -1.412  -0.477  0.00  0.00    -0.270 OA
ATOM      4  H   UNL     1      -2.414   1.418  -0.911  0.00  0.00    +0.150 HD
ENDROOT
BRANCH   2   5
ATOM      5  C   UNL     1      -4.330   0.098  -2.090  0.00  0.00    +0.039 A 
ATOM      6  C   UNL     1      -4.186   1.362  -2.669  0.00  0.00    +0.015 A 
ATOM      7  C   UNL     1      -5.008   1.739  -3.708  0.00  0.00    +0.029 A 
ATOM      8  C   UNL     1      -5.980   0.864  -4.181  0.00  0.00    +0.078 A 
ATOM      9  C   UNL     1      -6.126  -0.394  -3.607  0.00  0.00    +0.151 A 
ATOM     10  C   UNL     1      -5.304  -0.780  -2.572  0.00  0.00    +0.048 A 
BRANCH   8  11
ATOM     11  N   UNL     1      -6.813   1.251  -5.235  0.00  0.00    -0.304 N 
ATOM     12  C   UNL     1      -7.610   2.367  -5.278  0.00  0.00    +0.112 A 
ATOM     13  C   UNL     1      -8.237   2.352  -6.469  0.00  0.00    +0.130 A 
ATOM     14  N   UNL     1      -7.840   1.260  -7.139  0.00  0.00    -0.244 NA
ATOM     15  C   UNL     1      -6.982   0.596  -6.414  0.00  0.00    +0.204 A 
ENDBRANCH   8  11
BRANCH   9  16
ATOM     16  N   UNL     1      -7.162  -1.322  -4.114  0.00  0.00    +0.058 N 
ATOM     17  O   UNL     1      -8.238  -0.894  -4.463  0.00  0.00    -0.126 OA
ATOM     18  O   UNL     1      -6.933  -2.507  -4.179  0.00  0.00    -0.126 OA
ENDBRANCH   9  16
ENDBRANCH   2   5
BRANCH   1  19
ATOM     19  C   UNL     1      -1.641   0.134   0.593  0.00  0.00    +0.107 C 
BRANCH  19  25
ATOM     20  C   UNL     1      -0.376   2.256   0.196  0.00  0.00    +0.009 A 
ATOM     21  C   UNL     1       0.804   2.975   0.135  0.00  0.00    +0.050 A 
ATOM     22  C   UNL     1       2.012   2.352   0.408  0.00  0.00    +0.162 A 
ATOM     23  C   UNL     1       2.034   1.004   0.745  0.00  0.00    +0.162 A 
ATOM     24  C   UNL     1       0.848   0.288   0.803  0.00  0.00    +0.055 A 
ATOM     25  C   UNL     1      -0.353   0.915   0.529  0.00  0.00    -0.023 A 
ATOM     26  O   UNL     1       3.209   0.375   1.024  0.00  0.00    -0.485 OA
ATOM     27  C   UNL     1       4.407   1.029   0.593  0.00  0.00    +0.270 C 
ATOM     28  C   UNL     1       4.314   2.510   0.984  0.00  0.00    +0.270 C 
ATOM     29  O   UNL     1       3.165   3.072   0.340  0.00  0.00    -0.485 OA
ENDBRANCH  19  25
BRANCH  19  30
ATOM     30  C   UNL     1      -2.341   0.414   1.924  0.00  0.00    +0.014 C 
ATOM     31  C   UNL     1      -2.418  -0.731   2.936  0.00  0.00    +0.006 C 
ATOM     32  C   UNL     1      -3.675  -0.290   2.182  0.00  0.00    +0.006 C 
ENDBRANCH  19  30
ENDBRANCH   1  19
TORSDOF 6
