REMARK  Name = ZINC60388661
REMARK  9 active torsions:
REMARK  status: ('A' for Active; 'I' for Inactive)
REMARK    1  A    between atoms: C_1  and  C_2
REMARK    2  A    between atoms: C_7  and  C_8
REMARK    3  A    between atoms: N_10  and  C_11
REMARK    4  A    between atoms: N_10  and  C_18
REMARK    5  A    between atoms: C_11  and  C_12
REMARK    6  A    between atoms: C_18  and  C_19
REMARK    7  A    between atoms: N_21  and  C_22
REMARK    8  A    between atoms: C_26  and  C_29
REMARK    9  A    between atoms: C_27  and  C_28
REMARK                            x       y       z     vdW  Elec       q    Type
REMARK                         _______ _______ _______ _____ _____    ______ ____
ROOT
ATOM      1  C   UNL     1       0.155  -0.335   2.598  0.00  0.00    +0.247 C 
ATOM      2  O   UNL     1       0.002   0.871   2.619  0.00  0.00    -0.270 OA
ATOM      3  N   UNL     1       0.365  -1.008   3.746  0.00  0.00    -0.286 N 
ENDROOT
BRANCH   1  10
ATOM      4  C   UNL     1       1.908   0.466   0.440  0.00  0.00    +0.044 C 
ATOM      5  C   UNL     1       0.952  -0.685   0.264  0.00  0.00    -0.038 A 
ATOM      6  C   UNL     1       0.909  -1.373  -0.932  0.00  0.00    +0.004 A 
ATOM      7  C   UNL     1       0.032  -2.429  -1.095  0.00  0.00    +0.000 A 
ATOM      8  C   UNL     1      -0.808  -2.805  -0.062  0.00  0.00    +0.001 A 
ATOM      9  C   UNL     1      -0.776  -2.127   1.139  0.00  0.00    +0.013 A 
ATOM     10  C   UNL     1       0.111  -1.062   1.312  0.00  0.00    +0.040 A 
ENDBRANCH   1  10
BRANCH   3  11
ATOM     11  C   UNL     1       0.670  -2.440   3.710  0.00  0.00    +0.140 C 
BRANCH  11  12
ATOM     12  C   UNL     1       2.170  -2.637   3.478  0.00  0.00    +0.136 C 
ATOM     13  C   UNL     1       2.482  -4.140   3.317  0.00  0.00    +0.035 C 
ATOM     14  C   UNL     1       3.827  -4.280   4.082  0.00  0.00    +0.031 C 
ATOM     15  C   UNL     1       3.630  -3.242   5.215  0.00  0.00    +0.160 C 
ATOM     16  O   UNL     1       2.904  -2.158   4.610  0.00  0.00    -0.375 OA
ENDBRANCH  11  12
ENDBRANCH   3  11
BRANCH   3  17
ATOM     17  C   UNL     1       0.288  -0.307   5.031  0.00  0.00    +0.204 C 
BRANCH  17  18
ATOM     18  C   UNL     1      -1.125  -0.364   5.551  0.00  0.00    +0.235 C 
ATOM     19  O   UNL     1      -1.984  -0.934   4.911  0.00  0.00    -0.274 OA
ATOM     20  N   UNL     1      -1.435   0.218   6.726  0.00  0.00    -0.284 N 
ATOM     21  H   UNL     1      -0.761   0.722   7.210  0.00  0.00    +0.155 HD
BRANCH  20  22
ATOM     22  C   UNL     1      -2.727   0.096   7.248  0.00  0.00    +0.037 A 
ATOM     23  C   UNL     1      -3.810  -0.070   6.394  0.00  0.00    +0.023 A 
ATOM     24  C   UNL     1      -5.084  -0.190   6.913  0.00  0.00    +0.002 A 
ATOM     25  C   UNL     1      -5.283  -0.145   8.281  0.00  0.00    +0.004 A 
ATOM     26  C   UNL     1      -4.207   0.020   9.133  0.00  0.00    -0.046 A 
ATOM     27  C   UNL     1      -2.929   0.134   8.621  0.00  0.00    -0.026 A 
ATOM     28  C   UNL     1      -1.756   0.307   9.552  0.00  0.00    +0.046 C 
ATOM     29  C   UNL     1      -4.428   0.069  10.623  0.00  0.00    +0.044 C 
ENDBRANCH  20  22
ENDBRANCH  17  18
ENDBRANCH   3  17
TORSDOF 6
