REMARK  Name = ZINC06193120
REMARK  15 active torsions:
REMARK  status: ('A' for Active; 'I' for Inactive)
REMARK    1  A    between atoms: C_1  and  C_2
REMARK    2  A    between atoms: C_2  and  N_69
REMARK    3  A    between atoms: C_3  and  C_4
REMARK    4  A    between atoms: C_3  and  N_69
REMARK    5  A    between atoms: C_5  and  C_6
REMARK    6  A    between atoms: C_5  and  N_69
REMARK    7  A    between atoms: C_6  and  C_7
REMARK    8  A    between atoms: C_7  and  N_8
REMARK    9  A    between atoms: N_8  and  C_9
REMARK   10  A    between atoms: C_9  and  N_11
REMARK   11  A    between atoms: N_11  and  C_12
REMARK   12  A    between atoms: N_11  and  C_27
REMARK   13  A    between atoms: C_12  and  C_13
REMARK   14  A    between atoms: C_16  and  C_26
REMARK   15  A    between atoms: C_19  and  C_25
REMARK                            x       y       z     vdW  Elec       q    Type
REMARK                         _______ _______ _______ _____ _____    ______ ____
ROOT
ATOM      1  N   UNL     1      -1.153   2.537   0.374  0.00  0.00    -0.305 N 
ENDROOT
BRANCH   1   2
ATOM      2  C   UNL     1      -1.412   3.899   0.846  0.00  0.00    +0.075 C 
ATOM      3  C   UNL     1      -0.914   4.923  -0.196  0.00  0.00    +0.022 C 
ATOM      4  C   UNL     1      -0.346   6.085   0.655  0.00  0.00    +0.002 C 
ATOM      5  C   UNL     1       0.328   5.346   1.838  0.00  0.00    +0.002 C 
ATOM      6  C   UNL     1      -0.622   4.169   2.139  0.00  0.00    +0.022 C 
ENDBRANCH   1   2
BRANCH   1   7
ATOM      7  C   UNL     1       0.094   2.174   0.014  0.00  0.00    +0.133 C 
ATOM      8  S   UNL     1       1.399   3.260   0.233  0.00  0.00    -0.019 S 
BRANCH   7   9
ATOM      9  N   UNL     1       0.315   0.954  -0.514  0.00  0.00    -0.326 N 
ATOM     10  H   UNL     1      -0.411   0.312  -0.573  0.00  0.00    +0.148 HD
BRANCH   9  11
ATOM     11  C   UNL     1       1.650   0.596  -0.999  0.00  0.00    +0.101 C 
BRANCH  11  12
ATOM     12  C   UNL     1       1.628  -0.833  -1.545  0.00  0.00    +0.000 C 
BRANCH  12  13
ATOM     13  C   UNL     1       3.023  -1.207  -2.052  0.00  0.00    -0.077 C 
BRANCH  13  14
ATOM     14  N   UNL     1       2.991  -2.596  -2.556  0.00  0.00    +0.379 N 
ATOM     15  H   UNL     1       2.583  -3.203  -1.835  0.00  0.00    -0.082 HD
BRANCH  14  17
ATOM     16  C   UNL     1       2.771  -1.831  -4.896  0.00  0.00    -0.017 C 
ATOM     17  C   UNL     1       2.158  -2.672  -3.775  0.00  0.00    -0.082 C 
ENDBRANCH  14  17
BRANCH  14  18
ATOM     18  C   UNL     1       4.363  -3.058  -2.851  0.00  0.00    -0.082 C 
ATOM     19  C   UNL     1       4.343  -4.577  -3.030  0.00  0.00    -0.017 C 
ENDBRANCH  14  18
ENDBRANCH  13  14
ENDBRANCH  12  13
ENDBRANCH  11  12
ENDBRANCH   9  11
ENDBRANCH   7   9
ENDBRANCH   1   7
BRANCH   1  20
ATOM     20  C   UNL     1      -2.249   1.568   0.295  0.00  0.00    +0.147 C 
BRANCH  20  21
ATOM     21  C   UNL     1      -2.464   0.940   1.648  0.00  0.00    +0.035 A 
ATOM     22  C   UNL     1      -3.388   1.457   2.494  0.00  0.00    +0.020 A 
ATOM     23  C   UNL     1      -3.575   0.820   3.799  0.00  0.00    +0.002 A 
ATOM     24  C   UNL     1      -4.517   1.305   4.713  0.00  0.00    -0.041 A 
ATOM     25  C   UNL     1      -4.664   0.690   5.924  0.00  0.00    +0.004 A 
ATOM     26  C   UNL     1      -3.887  -0.411   6.256  0.00  0.00    +0.005 A 
ATOM     27  C   UNL     1      -2.953  -0.906   5.372  0.00  0.00    -0.026 A 
ATOM     28  C   UNL     1      -2.785  -0.297   4.133  0.00  0.00    +0.052 A 
ATOM     29  N   UNL     1      -1.859  -0.771   3.229  0.00  0.00    -0.322 N 
ATOM     30  H   UNL     1      -1.299  -1.565   3.467  0.00  0.00    +0.169 HD
ATOM     31  C   UNL     1      -1.698  -0.182   2.031  0.00  0.00    +0.254 A 
ATOM     32  O   UNL     1      -0.869  -0.628   1.256  0.00  0.00    -0.268 OA
ATOM     33  C   UNL     1      -2.116  -2.102   5.746  0.00  0.00    +0.046 C 
ATOM     34  C   UNL     1      -5.365   2.499   4.362  0.00  0.00    +0.044 C 
ENDBRANCH  20  21
ENDBRANCH   1  20
TORSDOF 11
