REMARK  Name = ZINC08397058
REMARK  11 active torsions:
REMARK  status: ('A' for Active; 'I' for Inactive)
REMARK    1  A    between atoms: C_1  and  C_2
REMARK    2  A    between atoms: C_5  and  C_8
REMARK    3  A    between atoms: C_8  and  O_9
REMARK    4  A    between atoms: O_9  and  C_10
REMARK    5  A    between atoms: C_13  and  C_18
REMARK    6  A    between atoms: C_15  and  O_16
REMARK    7  A    between atoms: O_16  and  C_17
REMARK    8  A    between atoms: C_28  and  C_34
REMARK    9  A    between atoms: C_29  and  C_30
REMARK   10  A    between atoms: C_30  and  O_32
REMARK   11  A    between atoms: O_32  and  C_33
REMARK                            x       y       z     vdW  Elec       q    Type
REMARK                         _______ _______ _______ _____ _____    ______ ____
ROOT
ATOM      1  C   UNL     1       1.033   2.230   6.055  0.00  0.00    +0.162 A 
ATOM      2  C   UNL     1       0.169   1.406   5.352  0.00  0.00    +0.050 A 
ATOM      3  C   UNL     1       0.651   0.610   4.330  0.00  0.00    +0.008 A 
ATOM      4  C   UNL     1       1.995   0.633   4.007  0.00  0.00    -0.032 A 
ATOM      5  C   UNL     1       2.864   1.448   4.709  0.00  0.00    +0.054 A 
ATOM      6  C   UNL     1       2.386   2.253   5.731  0.00  0.00    +0.162 A 
ENDROOT
BRANCH   4   7
ATOM      7  C   UNL     1       2.516  -0.237   2.893  0.00  0.00    +0.092 C 
ATOM      8  C   UNL     1       1.820   0.135   1.608  0.00  0.00    +0.024 C 
ATOM      9  C   UNL     1       0.830  -0.637   1.111  0.00  0.00    +0.015 C 
ATOM     10  C   UNL     1       0.130  -0.271  -0.174  0.00  0.00    +0.051 C 
ATOM     11  C   UNL     1       0.115   1.251  -0.335  0.00  0.00    +0.014 C 
ATOM     12  C   UNL     1       1.562   1.755  -0.326  0.00  0.00    +0.080 C 
ATOM     13  C   UNL     1       2.228   1.307   0.946  0.00  0.00    +0.162 C 
ATOM     14  O   UNL     1       3.134   1.970   1.411  0.00  0.00    -0.292 OA
ATOM     15  N   UNL     1       0.442  -1.775   1.765  0.00  0.00    -0.321 N 
ATOM     16  C   UNL     1       1.268  -2.370   2.678  0.00  0.00    +0.016 C 
ATOM     17  C   UNL     1       2.274  -1.677   3.239  0.00  0.00    +0.065 C 
ATOM     18  C   UNL     1       1.049  -3.812   3.057  0.00  0.00    +0.061 C 
ATOM     19  H   UNL     1      -0.543  -2.219   1.559  0.00  0.00    +0.152 HD
BRANCH  17  20
ATOM     20  C   UNL     1       3.120  -2.318   4.174  0.00  0.00    +0.337 C 
ATOM     21  O   UNL     1       4.249  -2.638   3.853  0.00  0.00    -0.245 OA
BRANCH  20  22
ATOM     22  O   UNL     1       2.675  -2.574   5.422  0.00  0.00    -0.465 OA
ATOM     23  C   UNL     1       3.583  -3.223   6.314  0.00  0.00    +0.280 C 
ENDBRANCH  20  22
ENDBRANCH  17  20
ENDBRANCH   4   7
BRANCH   6  24
ATOM     24  O   UNL     1       3.238   3.060   6.418  0.00  0.00    -0.491 OA
ATOM     25  C   UNL     1       4.613   3.031   6.030  0.00  0.00    +0.277 C 
ENDBRANCH   6  24
BRANCH   1  26
ATOM     26  O   UNL     1       0.559   3.014   7.060  0.00  0.00    -0.484 OA
BRANCH  26  27
ATOM     27  C   UNL     1      -0.840   2.939   7.338  0.00  0.00    +0.264 C 
BRANCH  27  32
ATOM     28  C   UNL     1      -2.136   6.511  11.691  0.00  0.00    +0.044 C 
ATOM     29  C   UNL     1      -1.798   5.580  10.556  0.00  0.00    -0.050 A 
ATOM     30  C   UNL     1      -1.845   6.034   9.251  0.00  0.00    +0.004 A 
ATOM     31  C   UNL     1      -1.536   5.180   8.210  0.00  0.00    +0.007 A 
ATOM     32  C   UNL     1      -1.178   3.871   8.473  0.00  0.00    -0.010 A 
ATOM     33  C   UNL     1      -1.136   3.415   9.777  0.00  0.00    +0.007 A 
ATOM     34  C   UNL     1      -1.441   4.270  10.819  0.00  0.00    +0.004 A 
ENDBRANCH  27  32
ENDBRANCH  26  27
ENDBRANCH   1  26
TORSDOF 7
