REMARK  Name = ZINC05580771
REMARK  8 active torsions:
REMARK  status: ('A' for Active; 'I' for Inactive)
REMARK    1  A    between atoms: C_1  and  C_2
REMARK    2  A    between atoms: C_2  and  C_3
REMARK    3  A    between atoms: C_2  and  C_4
REMARK    4  A    between atoms: C_7  and  S_10
REMARK    5  A    between atoms: N_8  and  N_9
REMARK    6  A    between atoms: S_10  and  C_11
REMARK    7  A    between atoms: C_11  and  C_12
REMARK    8  A    between atoms: N_14  and  C_15
REMARK                            x       y       z     vdW  Elec       q    Type
REMARK                         _______ _______ _______ _____ _____    ______ ____
ROOT
ATOM      1  S   UNL     1      -1.400  -1.071   0.009  0.00  0.00    -0.075 S 
ENDROOT
BRANCH   1   5
ATOM      2  C   UNL     1       1.295   1.749  -0.025  0.00  0.00    +0.154 A 
ATOM      3  N   UNL     1       2.020   0.667  -0.043  0.00  0.00    -0.132 NA
ATOM      4  N   UNL     1       1.263  -0.372  -0.034  0.00  0.00    -0.121 NA
ATOM      5  C   UNL     1       0.003  -0.004  -0.011  0.00  0.00    +0.209 A 
ATOM      6  N   UNL     1      -0.016   1.361  -0.005  0.00  0.00    -0.228 N 
BRANCH   2   8
ATOM      7  C   UNL     1       2.679   3.397   1.207  0.00  0.00    +0.015 C 
ATOM      8  C   UNL     1       1.807   3.167  -0.028  0.00  0.00    +0.052 C 
ATOM      9  C   UNL     1       2.637   3.406  -1.291  0.00  0.00    +0.015 C 
ENDBRANCH   2   8
BRANCH   6  10
ATOM     10  N   UNL     1      -1.116   2.171   0.013  0.00  0.00    -0.295 N 
ATOM     11  H   UNL     1      -1.395   2.381   0.959  0.00  0.00    +0.163 HD
ATOM     12  H   UNL     1      -0.950   3.017  -0.512  0.00  0.00    +0.163 HD
ENDBRANCH   6  10
ENDBRANCH   1   5
BRANCH   1  13
ATOM     13  C   UNL     1      -0.571  -2.680  -0.013  0.00  0.00    +0.173 C 
BRANCH  13  14
ATOM     14  C   UNL     1      -1.604  -3.777  -0.000  0.00  0.00    +0.227 C 
ATOM     15  O   UNL     1      -2.784  -3.499   0.022  0.00  0.00    -0.275 OA
ATOM     16  N   UNL     1      -1.216  -5.068  -0.013  0.00  0.00    -0.285 N 
ATOM     17  H   UNL     1      -0.276  -5.291  -0.098  0.00  0.00    +0.155 HD
BRANCH  16  18
ATOM     18  C   UNL     1      -2.170  -6.086   0.097  0.00  0.00    +0.033 A 
ATOM     19  C   UNL     1      -1.863  -7.256   0.779  0.00  0.00    +0.025 A 
ATOM     20  C   UNL     1      -2.807  -8.258   0.890  0.00  0.00    +0.022 A 
ATOM     21  C   UNL     1      -4.055  -8.100   0.314  0.00  0.00    +0.041 A 
ATOM     22  C   UNL     1      -4.362  -6.938  -0.371  0.00  0.00    +0.022 A 
ATOM     23  C   UNL     1      -3.423  -5.931  -0.481  0.00  0.00    +0.025 A 
ATOM     24 CL   UNL     1      -5.238  -9.364   0.450  0.00  0.00    -0.084 Cl
ENDBRANCH  16  18
ENDBRANCH  13  14
ENDBRANCH   1  13
TORSDOF 6
