REMARK  Name = ZINC00920377
REMARK  9 active torsions:
REMARK  status: ('A' for Active; 'I' for Inactive)
REMARK    1  A    between atoms: C_1  and  C_2
REMARK    2  A    between atoms: C_4  and  C_27
REMARK    3  A    between atoms: C_8  and  N_26
REMARK    4  A    between atoms: C_9  and  C_11
REMARK    5  A    between atoms: C_14  and  C_16
REMARK    6  A    between atoms: C_19  and  O_24
REMARK    7  A    between atoms: C_20  and  O_22
REMARK    8  A    between atoms: O_22  and  C_23
REMARK    9  A    between atoms: O_24  and  C_25
REMARK                            x       y       z     vdW  Elec       q    Type
REMARK                         _______ _______ _______ _____ _____    ______ ____
ROOT
ATOM      1  C   UNL     1       4.126   4.537  -0.539  0.00  0.00    +0.257 A 
ATOM      2  N   UNL     1       5.437   4.414  -0.600  0.00  0.00    -0.106 NA
ATOM      3  N   UNL     1       5.974   5.583  -0.629  0.00  0.00    -0.107 NA
ATOM      4  C   UNL     1       5.033   6.498  -0.588  0.00  0.00    +0.249 A 
ATOM      5  O   UNL     1       3.845   5.857  -0.535  0.00  0.00    -0.415 OA
ENDROOT
BRANCH   1  14
ATOM      6  C   UNL     1       3.554  -0.994  -0.495  0.00  0.00    +0.044 C 
ATOM      7  C   UNL     1       2.257  -0.228  -0.437  0.00  0.00    -0.037 A 
ATOM      8  C   UNL     1       1.055  -0.893  -0.378  0.00  0.00    +0.027 A 
ATOM      9  C   UNL     1      -0.137  -0.186  -0.324  0.00  0.00    +0.040 A 
ATOM     10  N   UNL     1      -0.132   1.133  -0.329  0.00  0.00    -0.245 NA
ATOM     11  C   UNL     1       0.991   1.814  -0.384  0.00  0.00    +0.111 A 
ATOM     12  C   UNL     1       2.258   1.189  -0.441  0.00  0.00    +0.032 A 
ATOM     13  C   UNL     1       3.391   2.099  -0.497  0.00  0.00    +0.054 A 
ATOM     14  C   UNL     1       3.153   3.442  -0.490  0.00  0.00    +0.099 A 
ATOM     15  S   UNL     1       1.376   3.548  -0.407  0.00  0.00    -0.062 S 
ATOM     16  C   UNL     1      -1.446  -0.930  -0.260  0.00  0.00    +0.065 C 
BRANCH  13  17
ATOM     17  N   UNL     1       4.697   1.607  -0.557  0.00  0.00    -0.356 N 
ATOM     18  H   UNL     1       4.867   0.722  -0.915  0.00  0.00    +0.142 HD
ATOM     19  H   UNL     1       5.435   2.152  -0.241  0.00  0.00    +0.142 HD
ENDBRANCH  13  17
ENDBRANCH   1  14
BRANCH   4  20
ATOM     20  C   UNL     1       5.237   7.960  -0.602  0.00  0.00    +0.042 A 
ATOM     21  C   UNL     1       4.137   8.820  -0.559  0.00  0.00    +0.017 A 
ATOM     22  C   UNL     1       4.329  10.186  -0.567  0.00  0.00    +0.050 A 
ATOM     23  C   UNL     1       5.613  10.709  -0.629  0.00  0.00    +0.162 A 
ATOM     24  C   UNL     1       6.714   9.856  -0.678  0.00  0.00    +0.162 A 
ATOM     25  C   UNL     1       6.529   8.487  -0.665  0.00  0.00    +0.062 A 
BRANCH  24  26
ATOM     26  O   UNL     1       7.971  10.372  -0.739  0.00  0.00    -0.491 OA
ATOM     27  C   UNL     1       9.053   9.440  -0.787  0.00  0.00    +0.277 C 
ENDBRANCH  24  26
BRANCH  23  28
ATOM     28  O   UNL     1       5.796  12.055  -0.643  0.00  0.00    -0.491 OA
ATOM     29  C   UNL     1       4.624  12.871  -0.590  0.00  0.00    +0.277 C 
ENDBRANCH  23  28
ENDBRANCH   4  20
TORSDOF 5
