REMARK  Name = ZINC39570511
REMARK  7 active torsions:
REMARK  status: ('A' for Active; 'I' for Inactive)
REMARK    1  A    between atoms: C_1  and  C_2
REMARK    2  A    between atoms: C_5  and  N_9
REMARK    3  A    between atoms: C_6  and  C_8
REMARK    4  A    between atoms: C_10  and  C_12
REMARK    5  A    between atoms: C_12  and  N_13
REMARK    6  A    between atoms: C_16  and  C_20
REMARK    7  A    between atoms: C_16  and  C_21
REMARK                            x       y       z     vdW  Elec       q    Type
REMARK                         _______ _______ _______ _____ _____    ______ ____
ROOT
ATOM      1  N   UNL     1      -0.232  -6.826  -2.567  0.00  0.00    -0.215 N 
ATOM      2  C   UNL     1      -1.394  -7.001  -3.227  0.00  0.00    +0.251 C 
ATOM      3  O   UNL     1      -2.513  -6.797  -2.807  0.00  0.00    -0.272 OA
ATOM      4  C   UNL     1      -1.011  -7.506  -4.604  0.00  0.00    +0.136 C 
ATOM      5  N   UNL     1       0.461  -7.562  -4.555  0.00  0.00    -0.281 N 
ATOM      6  C   UNL     1       0.821  -7.142  -3.329  0.00  0.00    +0.310 C 
ATOM      7  O   UNL     1       1.975  -7.061  -2.954  0.00  0.00    -0.252 OA
ATOM      8  C   UNL     1      -1.594  -8.899  -4.848  0.00  0.00    +0.047 C 
ATOM      9  H   UNL     1       1.054  -7.844  -5.269  0.00  0.00    +0.152 HD
ENDROOT
BRANCH   4  10
ATOM     10  C   UNL     1      -1.470  -6.543  -5.668  0.00  0.00    +0.003 A 
ATOM     11  C   UNL     1      -0.547  -5.959  -6.516  0.00  0.00    +0.009 A 
ATOM     12  C   UNL     1      -0.968  -5.076  -7.492  0.00  0.00    +0.020 A 
ATOM     13  C   UNL     1      -2.312  -4.777  -7.622  0.00  0.00    +0.042 A 
ATOM     14  C   UNL     1      -3.236  -5.362  -6.775  0.00  0.00    +0.040 A 
ATOM     15  C   UNL     1      -2.815  -6.249  -5.801  0.00  0.00    +0.048 A 
ATOM     16 CL   UNL     1      -3.974  -6.989  -4.741  0.00  0.00    -0.083 Cl
ATOM     17 CL   UNL     1      -2.840  -3.667  -8.849  0.00  0.00    -0.083 Cl
ENDBRANCH   4  10
BRANCH   1  18
ATOM     18  C   UNL     1      -0.134  -6.343  -1.187  0.00  0.00    +0.214 C 
BRANCH  18  20
ATOM     19  N   UNL     1       0.059  -4.170  -0.021  0.00  0.00    -0.284 N 
ATOM     20  C   UNL     1      -0.040  -4.839  -1.187  0.00  0.00    +0.235 C 
ATOM     21  O   UNL     1      -0.054  -4.230  -2.236  0.00  0.00    -0.274 OA
ATOM     22  H   UNL     1       0.135  -4.658   0.814  0.00  0.00    +0.155 HD
BRANCH  19  27
ATOM     23  C   UNL     1       0.025   1.503   0.005  0.00  0.00    +0.044 C 
ATOM     24  C   UNL     1       0.034  -0.004  -0.002  0.00  0.00    -0.050 A 
ATOM     25  C   UNL     1       0.632  -0.685  -1.046  0.00  0.00    +0.005 A 
ATOM     26  C   UNL     1       0.641  -2.066  -1.055  0.00  0.00    +0.024 A 
ATOM     27  C   UNL     1       0.051  -2.771  -0.014  0.00  0.00    +0.036 A 
ATOM     28  C   UNL     1      -0.548  -2.083   1.033  0.00  0.00    -0.029 A 
ATOM     29  C   UNL     1      -0.550  -0.702   1.039  0.00  0.00    +0.008 A 
ATOM     30  C   UNL     1      -1.190  -2.843   2.165  0.00  0.00    +0.045 C 
ENDBRANCH  19  27
ENDBRANCH  18  20
ENDBRANCH   1  18
TORSDOF 4
