REMARK  Name = ZINC33023412
REMARK  12 active torsions:
REMARK  status: ('A' for Active; 'I' for Inactive)
REMARK    1  A    between atoms: C_1  and  C_2
REMARK    2  A    between atoms: C_6  and  N_8
REMARK    3  A    between atoms: N_8  and  S_9
REMARK    4  A    between atoms: S_9  and  C_12
REMARK    5  A    between atoms: C_15  and  C_37
REMARK    6  A    between atoms: C_16  and  C_18
REMARK    7  A    between atoms: N_20  and  C_21
REMARK    8  A    between atoms: C_21  and  C_22
REMARK    9  A    between atoms: C_22  and  C_24
REMARK   10  A    between atoms: C_22  and  N_32
REMARK   11  A    between atoms: C_27  and  O_30
REMARK   12  A    between atoms: O_30  and  C_31
REMARK                            x       y       z     vdW  Elec       q    Type
REMARK                         _______ _______ _______ _____ _____    ______ ____
ROOT
ATOM      1  C   UNL     1      -1.831   7.120  -5.473  0.00  0.00    +0.244 C 
ATOM      2  O   UNL     1      -2.036   6.820  -6.632  0.00  0.00    -0.270 OA
ATOM      3  N   UNL     1      -2.263   8.305  -4.996  0.00  0.00    -0.313 N 
ATOM      4  H   UNL     1      -2.077   8.576  -3.947  0.00  0.00    +0.149 HD
ENDROOT
BRANCH   1   9
ATOM      5  C   UNL     1      -0.075   5.705  -2.469  0.00  0.00    +0.109 A 
ATOM      6  C   UNL     1       0.256   4.440  -2.922  0.00  0.00    +0.029 A 
ATOM      7  C   UNL     1      -0.096   4.042  -4.199  0.00  0.00    +0.006 A 
ATOM      8  C   UNL     1      -0.773   4.908  -5.034  0.00  0.00    -0.038 A 
ATOM      9  C   UNL     1      -1.105   6.187  -4.584  0.00  0.00    +0.041 A 
ATOM     10  C   UNL     1      -0.751   6.580  -3.293  0.00  0.00    +0.042 A 
ATOM     11  C   UNL     1      -1.151   4.475  -6.427  0.00  0.00    +0.044 C 
BRANCH   5  12
ATOM     12  S   UNL     1       0.373   6.199  -0.839  0.00  0.00    +0.072 S 
ATOM     13  O   UNL     1       0.435   7.619  -0.848  0.00  0.00    -0.150 OA
ATOM     14  O   UNL     1       1.478   5.391  -0.459  0.00  0.00    -0.150 OA
BRANCH  12  15
ATOM     15  N   UNL     1      -0.881   5.787   0.161  0.00  0.00    -0.216 N 
ATOM     16  H   UNL     1      -1.458   6.572   0.672  0.00  0.00    +0.174 HD
BRANCH  15  22
ATOM     17  C   UNL     1      -4.292   2.261   0.453  0.00  0.00    +0.044 C 
ATOM     18  C   UNL     1      -2.853   2.704   0.501  0.00  0.00    -0.049 A 
ATOM     19  C   UNL     1      -1.852   1.779   0.736  0.00  0.00    +0.003 A 
ATOM     20  C   UNL     1      -0.529   2.181   0.774  0.00  0.00    +0.002 A 
ATOM     21  C   UNL     1      -0.204   3.509   0.584  0.00  0.00    +0.024 A 
ATOM     22  C   UNL     1      -1.207   4.442   0.354  0.00  0.00    +0.048 A 
ATOM     23  C   UNL     1      -2.534   4.035   0.316  0.00  0.00    +0.027 A 
ENDBRANCH  15  22
ENDBRANCH  12  15
ENDBRANCH   5  12
ENDBRANCH   1   9
BRANCH   3  24
ATOM     24  C   UNL     1      -2.982   9.229  -5.876  0.00  0.00    +0.094 C 
BRANCH  24  25
ATOM     25  C   UNL     1      -3.244  10.541  -5.133  0.00  0.00    -0.020 C 
BRANCH  25  26
ATOM     26  C   UNL     1      -1.932  11.223  -4.841  0.00  0.00    -0.059 A 
ATOM     27  C   UNL     1      -1.294  11.946  -5.832  0.00  0.00    +0.005 A 
ATOM     28  C   UNL     1      -0.095  12.577  -5.566  0.00  0.00    +0.046 A 
ATOM     29  C   UNL     1       0.476  12.476  -4.305  0.00  0.00    +0.120 A 
ATOM     30  C   UNL     1      -0.164  11.745  -3.314  0.00  0.00    +0.046 A 
ATOM     31  C   UNL     1      -1.366  11.121  -3.584  0.00  0.00    +0.005 A 
BRANCH  29  32
ATOM     32  O   UNL     1       1.659  13.091  -4.042  0.00  0.00    -0.495 OA
ATOM     33  C   UNL     1       2.260  13.825  -5.110  0.00  0.00    +0.277 C 
ENDBRANCH  29  32
ENDBRANCH  25  26
BRANCH  25  34
ATOM     34  N   UNL     1      -4.077  11.418  -5.966  0.00  0.00    +0.385 N 
ATOM     35  C   UNL     1      -5.375  10.771  -6.287  0.00  0.00    -0.078 C 
ATOM     36  C   UNL     1      -6.281  11.966  -6.675  0.00  0.00    -0.020 C 
ATOM     37  C   UNL     1      -5.833  13.073  -5.693  0.00  0.00    -0.020 C 
ATOM     38  C   UNL     1      -4.415  12.666  -5.248  0.00  0.00    -0.078 C 
ATOM     39  H   UNL     1      -3.486  11.621  -6.871  0.00  0.00    -0.081 HD
ENDBRANCH  25  34
ENDBRANCH  24  25
ENDBRANCH   3  24
TORSDOF 9
