REMARK  Name = ZINC32668970
REMARK  4 active torsions:
REMARK  status: ('A' for Active; 'I' for Inactive)
REMARK    1  A    between atoms: C_4  and  N_7
REMARK    2  A    between atoms: C_10  and  C_12
REMARK    3  A    between atoms: N_14  and  N_15
REMARK    4  A    between atoms: C_16  and  C_18
REMARK                            x       y       z     vdW  Elec       q    Type
REMARK                         _______ _______ _______ _____ _____    ______ ____
ROOT
ATOM      1  C   UNL     1       1.684  -3.144  -0.031  0.00  0.00    +0.280 C 
ATOM      2  O   UNL     1       1.258  -4.283  -0.034  0.00  0.00    -0.267 OA
ATOM      3  N   UNL     1       3.013  -2.922  -0.043  0.00  0.00    -0.229 N 
ATOM      4  H   UNL     1       3.398  -1.891  -0.041  0.00  0.00    +0.173 HD
ENDROOT
BRANCH   1   8
ATOM      5  N   UNL     1       0.002  -0.004   0.002  0.00  0.00    -0.239 N 
ATOM      6  C   UNL     1      -1.101  -0.798   0.008  0.00  0.00    +0.115 A 
ATOM      7  C   UNL     1      -0.669  -2.080  -0.003  0.00  0.00    +0.054 A 
ATOM      8  C   UNL     1       0.745  -2.005  -0.016  0.00  0.00    +0.149 A 
ATOM      9  N   UNL     1       1.065  -0.726  -0.018  0.00  0.00    -0.162 NA
BRANCH   5  13
ATOM     10  C   UNL     1      -0.054   4.163   0.025  0.00  0.00    +0.000 A 
ATOM     11  C   UNL     1       1.153   3.490   0.010  0.00  0.00    +0.002 A 
ATOM     12  C   UNL     1       1.175   2.109   0.002  0.00  0.00    +0.028 A 
ATOM     13  C   UNL     1      -0.017   1.397   0.010  0.00  0.00    +0.065 A 
ATOM     14  C   UNL     1      -1.228   2.076   0.019  0.00  0.00    +0.028 A 
ATOM     15  C   UNL     1      -1.243   3.457   0.033  0.00  0.00    +0.002 A 
ENDBRANCH   5  13
ENDBRANCH   1   8
BRANCH   3  16
ATOM     16  N   UNL     1       3.904  -4.003  -0.057  0.00  0.00    -0.234 N 
ATOM     17  C   UNL     1       5.233  -3.780  -0.069  0.00  0.00    +0.235 C 
ATOM     18  O   UNL     1       5.658  -2.644  -0.066  0.00  0.00    -0.274 OA
ATOM     19  H   UNL     1       3.519  -5.033  -0.060  0.00  0.00    +0.173 HD
BRANCH  17  20
ATOM     20  C   UNL     1       6.192  -4.943  -0.085  0.00  0.00    +0.049 C 
ATOM     21  C   UNL     1       5.971  -5.803   1.162  0.00  0.00    +0.019 C 
ATOM     22  C   UNL     1       6.945  -6.983   1.146  0.00  0.00    -0.009 C 
ATOM     23  C   UNL     1       8.382  -6.459   1.135  0.00  0.00    +0.007 C 
ATOM     24  C   UNL     1       8.602  -5.600  -0.112  0.00  0.00    -0.009 C 
ATOM     25  C   UNL     1       7.629  -4.419  -0.095  0.00  0.00    +0.019 C 
ATOM     26  C   UNL     1       8.358  -6.445  -1.363  0.00  0.00    +0.007 C 
ATOM     27  C   UNL     1       6.921  -6.969  -1.353  0.00  0.00    -0.009 C 
ATOM     28  C   UNL     1       6.700  -7.828  -0.106  0.00  0.00    +0.007 C 
ATOM     29  C   UNL     1       5.948  -5.788  -1.337  0.00  0.00    +0.019 C 
ENDBRANCH  17  20
ENDBRANCH   3  16
TORSDOF 4
