REMARK  Name = ZINC13123752
REMARK  5 active torsions:
REMARK  status: ('A' for Active; 'I' for Inactive)
REMARK    1  A    between atoms: C_1  and  C_2
REMARK    2  A    between atoms: C_6  and  C_8
REMARK    3  A    between atoms: C_12  and  C_26
REMARK    4  A    between atoms: C_13  and  C_23
REMARK    5  A    between atoms: C_14  and  C_18
REMARK                            x       y       z     vdW  Elec       q    Type
REMARK                         _______ _______ _______ _____ _____    ______ ____
ROOT
ATOM      1  C   UNL     1       0.053  -2.846   2.455  0.00  0.00    +0.146 C 
ATOM      2  N   UNL     1       0.047  -2.311   3.660  0.00  0.00    -0.196 NA
ATOM      3  C   UNL     1       0.066  -3.272   4.597  0.00  0.00    +0.237 C 
ATOM      4  N   UNL     1       0.068  -3.211   5.919  0.00  0.00    -0.218 NA
ATOM      5  C   UNL     1       0.088  -4.261   6.725  0.00  0.00    +0.052 C 
ATOM      6  C   UNL     1       0.110  -5.541   6.246  0.00  0.00    +0.062 C 
ATOM      7  C   UNL     1       0.110  -5.717   4.737  0.00  0.00    +0.170 C 
ATOM      8  N   UNL     1       0.087  -4.483   3.944  0.00  0.00    -0.207 N 
ATOM      9  N   UNL     1       0.073  -4.210   2.574  0.00  0.00    -0.244 N 
ATOM     10  C   UNL     1       0.087  -4.039   8.216  0.00  0.00    +0.066 C 
ATOM     11  H   UNL     1       0.078  -4.857   1.851  0.00  0.00    +0.172 HD
ENDROOT
BRANCH   1  17
ATOM     12  C   UNL     1      -0.018   1.503   0.010  0.00  0.00    +0.044 C 
ATOM     13  C   UNL     1       0.002  -0.004   0.002  0.00  0.00    -0.050 A 
ATOM     14  C   UNL     1       0.006  -0.688  -1.201  0.00  0.00    +0.003 A 
ATOM     15  C   UNL     1       0.025  -2.071  -1.218  0.00  0.00    +0.001 A 
ATOM     16  C   UNL     1       0.040  -2.779  -0.035  0.00  0.00    +0.011 A 
ATOM     17  C   UNL     1       0.037  -2.095   1.184  0.00  0.00    +0.016 A 
ATOM     18  C   UNL     1       0.023  -0.698   1.193  0.00  0.00    +0.014 A 
ENDBRANCH   1  17
BRANCH   7  19
ATOM     19  C   UNL     1       1.345  -6.492   4.355  0.00  0.00    +0.017 A 
ATOM     20  C   UNL     1       1.468  -7.810   4.061  0.00  0.00    +0.013 A 
ATOM     21  C   UNL     1       2.714  -8.310   3.732  0.00  0.00    +0.008 A 
ATOM     22  C   UNL     1       3.776  -7.468   3.715  0.00  0.00    +0.045 A 
ATOM     23  S   UNL     1       3.023  -5.913   4.165  0.00  0.00    -0.099 S 
ENDBRANCH   7  19
BRANCH   6  24
ATOM     24  C   UNL     1       0.132  -6.649   7.113  0.00  0.00    +0.241 C 
ATOM     25  O   UNL     1       0.131  -6.478   8.320  0.00  0.00    -0.271 OA
ATOM     26  N   UNL     1       0.153  -7.899   6.609  0.00  0.00    -0.325 N 
ATOM     27  H   UNL     1       0.154  -8.035   5.649  0.00  0.00    +0.145 HD
ATOM     28  H   UNL     1       0.169  -8.662   7.207  0.00  0.00    +0.145 HD
ENDBRANCH   6  24
TORSDOF 3
