REMARK  Name = ZINC63376378
REMARK  6 active torsions:
REMARK  status: ('A' for Active; 'I' for Inactive)
REMARK    1  A    between atoms: C_1  and  C_2
REMARK    2  A    between atoms: C_6  and  C_8
REMARK    3  A    between atoms: C_8  and  C_9
REMARK    4  A    between atoms: C_8  and  C_10
REMARK    5  A    between atoms: C_12  and  C_14
REMARK    6  A    between atoms: C_17  and  C_21
REMARK                            x       y       z     vdW  Elec       q    Type
REMARK                         _______ _______ _______ _____ _____    ______ ____
ROOT
ATOM      1  C   UNL     1      -0.013   1.086   0.008  0.00  0.00    +0.066 C 
ATOM      2  C   UNL     1      -0.742   1.585  -1.213  0.00  0.00    +0.054 A 
ATOM      3  N   UNL     1      -2.044   1.798  -1.199  0.00  0.00    -0.229 NA
ATOM      4  C   UNL     1      -2.674   2.233  -2.269  0.00  0.00    +0.165 A 
ATOM      5  N   UNL     1      -4.027   2.507  -2.424  0.00  0.00    -0.264 N 
ATOM      6  C   UNL     1      -4.873   2.328  -1.390  0.00  0.00    +0.221 C 
ATOM      7  O   UNL     1      -4.453   1.928  -0.325  0.00  0.00    -0.275 OA
ATOM      8  S   UNL     1      -1.441   2.380  -3.405  0.00  0.00    -0.053 S 
ATOM      9  C   UNL     1      -0.088   1.841  -2.373  0.00  0.00    +0.059 A 
ATOM     10  H   UNL     1      -4.364   2.827  -3.275  0.00  0.00    +0.157 HD
ENDROOT
BRANCH   9  11
ATOM     11  C   UNL     1       1.377   1.706  -2.700  0.00  0.00    +0.250 C 
ATOM     12  N   UNL     1       1.778   2.723  -3.698  0.00  0.00    -0.265 NA
ATOM     13  C   UNL     1       3.140   3.158  -3.322  0.00  0.00    +0.180 C 
ATOM     14  N   UNL     1       3.491   2.382  -2.109  0.00  0.00    -0.177 NA
ATOM     15  O   UNL     1       2.182   1.994  -1.534  0.00  0.00    -0.274 OA
ATOM     16  H   UNL     1       1.766   2.339  -4.631  0.00  0.00    +0.127 HD
ATOM     17  H   UNL     1       4.036   1.566  -2.347  0.00  0.00    +0.156 HD
BRANCH  13  18
ATOM     18  C   UNL     1       4.110   2.853  -4.435  0.00  0.00    -0.014 A 
ATOM     19  C   UNL     1       3.678   2.855  -5.748  0.00  0.00    +0.006 A 
ATOM     20  C   UNL     1       4.567   2.576  -6.768  0.00  0.00    +0.000 A 
ATOM     21  C   UNL     1       5.888   2.294  -6.476  0.00  0.00    +0.000 A 
ATOM     22  C   UNL     1       6.321   2.293  -5.163  0.00  0.00    +0.000 A 
ATOM     23  C   UNL     1       5.432   2.577  -4.143  0.00  0.00    +0.006 A 
ENDBRANCH  13  18
ENDBRANCH   9  11
BRANCH   6  24
ATOM     24  C   UNL     1      -6.341   2.624  -1.557  0.00  0.00    +0.069 C 
ATOM     25  C   UNL     1      -7.072   2.339  -0.244  0.00  0.00    +0.017 C 
ATOM     26  C   UNL     1      -6.525   4.096  -1.934  0.00  0.00    +0.017 C 
ENDBRANCH   6  24
TORSDOF 3
