REMARK  Name = ZINC39912412
REMARK  15 active torsions:
REMARK  status: ('A' for Active; 'I' for Inactive)
REMARK    1  A    between atoms: C_1  and  C_2
REMARK    2  A    between atoms: C_5  and  C_8
REMARK    3  A    between atoms: C_8  and  N_9
REMARK    4  A    between atoms: C_10  and  C_29
REMARK    5  A    between atoms: C_13  and  C_20
REMARK    6  A    between atoms: C_22  and  C_28
REMARK    7  A    between atoms: C_24  and  C_27
REMARK    8  A    between atoms: C_25  and  O_26
REMARK    9  A    between atoms: C_32  and  O_37
REMARK   10  A    between atoms: C_33  and  O_35
REMARK   11  A    between atoms: O_35  and  C_36
REMARK   12  A    between atoms: O_37  and  C_38
REMARK   13  A    between atoms: C_38  and  C_39
REMARK   14  A    between atoms: C_39  and  C_40
REMARK   15  A    between atoms: C_39  and  C_41
REMARK                            x       y       z     vdW  Elec       q    Type
REMARK                         _______ _______ _______ _____ _____    ______ ____
ROOT
ATOM      1  N   UNL     1       1.593  -4.987   0.223  0.00  0.00    -0.281 N 
ATOM      2  C   UNL     1       2.090  -5.042  -1.158  0.00  0.00    +0.142 C 
ATOM      3  C   UNL     1       3.573  -5.271  -1.057  0.00  0.00    +0.035 A 
ATOM      4  C   UNL     1       4.788  -5.448  -1.729  0.00  0.00    +0.102 A 
ATOM      5  N   UNL     1       5.725  -5.606  -0.815  0.00  0.00    -0.173 NA
ATOM      6  N   UNL     1       5.223  -5.547   0.367  0.00  0.00    -0.272 N 
ATOM      7  H   UNL     1       5.726  -5.637   1.191  0.00  0.00    +0.189 HD
ATOM      8  C   UNL     1       3.875  -5.339   0.289  0.00  0.00    +0.126 A 
ATOM      9  C   UNL     1       2.636  -5.155   1.054  0.00  0.00    +0.266 C 
ATOM     10  O   UNL     1       2.563  -5.158   2.268  0.00  0.00    -0.268 OA
ENDROOT
BRANCH   4  11
ATOM     11  C   UNL     1       4.985  -5.456  -3.200  0.00  0.00    +0.044 A 
ATOM     12  C   UNL     1       3.927  -5.140  -4.049  0.00  0.00    +0.017 A 
ATOM     13  C   UNL     1       4.116  -5.148  -5.417  0.00  0.00    -0.049 A 
ATOM     14  C   UNL     1       5.352  -5.470  -5.948  0.00  0.00    +0.010 A 
ATOM     15  C   UNL     1       6.408  -5.785  -5.114  0.00  0.00    -0.008 A 
ATOM     16  C   UNL     1       6.234  -5.775  -3.739  0.00  0.00    +0.129 A 
ATOM     17  C   UNL     1       7.752  -6.134  -5.700  0.00  0.00    +0.047 C 
ATOM     18  C   UNL     1       2.970  -4.806  -6.334  0.00  0.00    +0.044 C 
BRANCH  16  19
ATOM     19  O   UNL     1       7.273  -6.079  -2.918  0.00  0.00    -0.506 OA
ATOM     20  H   UNL     1       7.345  -7.020  -2.707  0.00  0.00    +0.292 HD
ENDBRANCH  16  19
ENDBRANCH   4  11
BRANCH   2  21
ATOM     21  C   UNL     1       1.437  -6.179  -1.900  0.00  0.00    -0.019 A 
ATOM     22  C   UNL     1       0.919  -5.971  -3.165  0.00  0.00    +0.009 A 
ATOM     23  C   UNL     1       0.319  -7.011  -3.850  0.00  0.00    +0.050 A 
ATOM     24  C   UNL     1       0.236  -8.266  -3.269  0.00  0.00    +0.162 A 
ATOM     25  C   UNL     1       0.758  -8.476  -1.996  0.00  0.00    +0.162 A 
ATOM     26  C   UNL     1       1.362  -7.430  -1.317  0.00  0.00    +0.055 A 
BRANCH  25  27
ATOM     27  O   UNL     1       0.679  -9.706  -1.421  0.00  0.00    -0.491 OA
ATOM     28  C   UNL     1       1.342  -9.881  -0.168  0.00  0.00    +0.277 C 
ENDBRANCH  25  27
BRANCH  24  29
ATOM     29  O   UNL     1      -0.354  -9.290  -3.941  0.00  0.00    -0.488 OA
BRANCH  29  30
ATOM     30  C   UNL     1      -0.868  -9.002  -5.243  0.00  0.00    +0.232 C 
BRANCH  30  31
ATOM     31  C   UNL     1      -1.490 -10.266  -5.838  0.00  0.00    +0.020 C 
ATOM     32  C   UNL     1      -2.149  -9.929  -7.177  0.00  0.00    +0.010 C 
ATOM     33  C   UNL     1      -0.399 -11.317  -6.057  0.00  0.00    +0.010 C 
ENDBRANCH  30  31
ENDBRANCH  29  30
ENDBRANCH  24  29
ENDBRANCH   2  21
BRANCH   1  34
ATOM     34  C   UNL     1       0.200  -4.779   0.625  0.00  0.00    +0.144 C 
BRANCH  34  39
ATOM     35  C   UNL     1      -0.812   0.880   1.215  0.00  0.00    +0.044 C 
ATOM     36  C   UNL     1      -0.548  -0.596   1.061  0.00  0.00    -0.050 A 
ATOM     37  C   UNL     1      -0.750  -1.210  -0.160  0.00  0.00    +0.003 A 
ATOM     38  C   UNL     1      -0.507  -2.564  -0.302  0.00  0.00    +0.005 A 
ATOM     39  C   UNL     1      -0.064  -3.303   0.779  0.00  0.00    -0.030 A 
ATOM     40  C   UNL     1       0.139  -2.688   2.001  0.00  0.00    +0.005 A 
ATOM     41  C   UNL     1      -0.099  -1.334   2.141  0.00  0.00    +0.003 A 
ENDBRANCH  34  39
ENDBRANCH   1  34
TORSDOF 9
