REMARK  Name = ZINC04763777
REMARK  15 active torsions:
REMARK  status: ('A' for Active; 'I' for Inactive)
REMARK    1  A    between atoms: C_1  and  C_2
REMARK    2  A    between atoms: C_7  and  O_8
REMARK    3  A    between atoms: O_8  and  C_9
REMARK    4  A    between atoms: C_9  and  C_11
REMARK    5  A    between atoms: C_9  and  C_12
REMARK    6  A    between atoms: N_14  and  N_15
REMARK    7  A    between atoms: C_16  and  C_17
REMARK    8  A    between atoms: C_17  and  C_19
REMARK    9  A    between atoms: C_17  and  O_29
REMARK   10  A    between atoms: C_19  and  C_21
REMARK   11  A    between atoms: C_19  and  O_28
REMARK   12  A    between atoms: C_21  and  C_23
REMARK   13  A    between atoms: C_21  and  O_27
REMARK   14  A    between atoms: C_23  and  C_25
REMARK   15  A    between atoms: C_23  and  O_26
REMARK                            x       y       z     vdW  Elec       q    Type
REMARK                         _______ _______ _______ _____ _____    ______ ____
ROOT
ATOM      1  C   UNL     1       2.314   5.486  -0.491  0.00  0.00    +0.273 C 
ATOM      2  O   UNL     1       1.241   5.897  -0.879  0.00  0.00    -0.270 OA
ATOM      3  N   UNL     1       3.411   6.262  -0.598  0.00  0.00    -0.204 N 
ATOM      4  H   UNL     1       4.269   5.933  -0.287  0.00  0.00    +0.177 HD
ENDROOT
BRANCH   1   5
ATOM      5  C   UNL     1       2.421   4.109   0.112  0.00  0.00    +0.257 C 
ATOM      6  C   UNL     1       2.817   4.226   1.585  0.00  0.00    +0.062 C 
BRANCH   5   7
ATOM      7  O   UNL     1       1.159   3.445   0.009  0.00  0.00    -0.480 OA
BRANCH   7  14
ATOM      8  C   UNL     1      -1.293   2.116  -0.439  0.00  0.00    +0.047 C 
ATOM      9  C   UNL     1       0.002   1.379  -0.210  0.00  0.00    -0.007 A 
ATOM     10  C   UNL     1       0.020  -0.003  -0.217  0.00  0.00    +0.027 A 
ATOM     11  C   UNL     1       1.209  -0.680  -0.013  0.00  0.00    +0.041 A 
ATOM     12  C   UNL     1       2.381   0.024   0.199  0.00  0.00    +0.023 A 
ATOM     13  C   UNL     1       2.367   1.405   0.206  0.00  0.00    +0.047 A 
ATOM     14  C   UNL     1       1.175   2.086   0.002  0.00  0.00    +0.125 A 
ATOM     15 CL   UNL     1       1.230  -2.416  -0.023  0.00  0.00    -0.084 Cl
ENDBRANCH   7  14
ENDBRANCH   5   7
ENDBRANCH   1   5
BRANCH   3  16
ATOM     16  N   UNL     1       3.312   7.542  -1.158  0.00  0.00    -0.190 NA
ATOM     17  C   UNL     1       4.354   8.278  -1.259  0.00  0.00    +0.137 C 
BRANCH  17  18
ATOM     18  C   UNL     1       4.248   9.656  -1.862  0.00  0.00    +0.188 C 
BRANCH  18  19
ATOM     19  O   UNL     1       2.893   9.907  -2.239  0.00  0.00    -0.384 OA
ATOM     20  H   UNL     1       2.266   9.868  -1.504  0.00  0.00    +0.210 HD
ENDBRANCH  18  19
BRANCH  18  21
ATOM     21  C   UNL     1       4.693  10.698  -0.833  0.00  0.00    +0.179 C 
BRANCH  21  22
ATOM     22  O   UNL     1       3.931  10.539   0.365  0.00  0.00    -0.386 OA
ATOM     23  H   UNL     1       2.978  10.648   0.243  0.00  0.00    +0.210 HD
ENDBRANCH  21  22
BRANCH  21  24
ATOM     24  C   UNL     1       4.467  12.101  -1.399  0.00  0.00    +0.174 C 
BRANCH  24  25
ATOM     25  C   UNL     1       4.912  13.143  -0.371  0.00  0.00    +0.142 C 
ATOM     26  C   UNL     1       4.686  14.547  -0.937  0.00  0.00    +0.040 C 
BRANCH  25  27
ATOM     27  O   UNL     1       4.150  12.985   0.828  0.00  0.00    -0.389 OA
ATOM     28  H   UNL     1       3.197  13.094   0.705  0.00  0.00    +0.210 HD
ENDBRANCH  25  27
ENDBRANCH  24  25
BRANCH  24  29
ATOM     29  O   UNL     1       5.229  12.260  -2.598  0.00  0.00    -0.387 OA
ATOM     30  H   UNL     1       6.182  12.151  -2.475  0.00  0.00    +0.210 HD
ENDBRANCH  24  29
ENDBRANCH  21  24
ENDBRANCH  18  21
ENDBRANCH  17  18
ENDBRANCH   3  16
TORSDOF 12
