REMARK  Name = ZINC28054763
REMARK  3 active torsions:
REMARK  status: ('A' for Active; 'I' for Inactive)
REMARK    1  A    between atoms: C_1  and  C_2
REMARK    2  A    between atoms: C_6  and  C_8
REMARK    3  A    between atoms: C_25  and  C_27
REMARK                            x       y       z     vdW  Elec       q    Type
REMARK                         _______ _______ _______ _____ _____    ______ ____
ROOT
ATOM      1  C   UNL     1       2.796   0.868  -2.587  0.00  0.00    +0.234 C 
ATOM      2  C   UNL     1       3.419   1.541  -1.381  0.00  0.00    +0.025 C 
ATOM      3  C   UNL     1       4.457   2.356  -1.558  0.00  0.00    +0.050 C 
ATOM      4  C   UNL     1       4.931   2.607  -2.940  0.00  0.00    +0.038 A 
ATOM      5  C   UNL     1       6.178   3.168  -3.189  0.00  0.00    +0.013 A 
ATOM      6  C   UNL     1       6.580   3.384  -4.493  0.00  0.00    +0.001 A 
ATOM      7  C   UNL     1       5.747   3.045  -5.546  0.00  0.00    +0.004 A 
ATOM      8  C   UNL     1       4.505   2.486  -5.307  0.00  0.00    +0.046 A 
ATOM      9  C   UNL     1       4.090   2.264  -4.007  0.00  0.00    +0.131 A 
ATOM     10  O   UNL     1       2.880   1.716  -3.731  0.00  0.00    -0.479 OA
ATOM     11  N   UNL     1       5.101   2.988  -0.488  0.00  0.00    -0.282 N 
ATOM     12  C   UNL     1       4.804   2.537   0.788  0.00  0.00    +0.240 A 
ATOM     13  N   UNL     1       5.386   2.753   1.932  0.00  0.00    -0.092 NA
ATOM     14  N   UNL     1       4.774   2.116   2.872  0.00  0.00    -0.021 NA
ATOM     15  N   UNL     1       3.769   1.460   2.390  0.00  0.00    -0.042 NA
ATOM     16  N   UNL     1       3.749   1.712   1.019  0.00  0.00    -0.201 N 
ATOM     17  C   UNL     1       2.841   1.246  -0.019  0.00  0.00    +0.174 C 
ATOM     18  H   UNL     1       5.810   3.807  -0.678  0.00  0.00    +0.155 HD
ENDROOT
BRANCH   1  24
ATOM     19  C   UNL     1       6.779  -1.550  -4.411  0.00  0.00    +0.044 C 
ATOM     20  C   UNL     1       5.430  -1.578  -3.741  0.00  0.00    -0.050 A 
ATOM     21  C   UNL     1       4.859  -2.786  -3.386  0.00  0.00    +0.003 A 
ATOM     22  C   UNL     1       3.622  -2.812  -2.772  0.00  0.00    +0.001 A 
ATOM     23  C   UNL     1       2.955  -1.629  -2.509  0.00  0.00    +0.007 A 
ATOM     24  C   UNL     1       3.524  -0.421  -2.869  0.00  0.00    -0.003 A 
ATOM     25  C   UNL     1       4.762  -0.396  -3.482  0.00  0.00    +0.011 A 
ENDBRANCH   1  24
BRANCH  17  26
ATOM     26  C   UNL     1       1.516   1.948   0.125  0.00  0.00    -0.019 A 
ATOM     27  C   UNL     1       0.366   1.214   0.353  0.00  0.00    +0.009 A 
ATOM     28  C   UNL     1      -0.851   1.857   0.480  0.00  0.00    +0.039 A 
ATOM     29  C   UNL     1      -0.917   3.237   0.388  0.00  0.00    +0.123 A 
ATOM     30  C   UNL     1       0.235   3.971   0.160  0.00  0.00    +0.039 A 
ATOM     31  C   UNL     1       1.450   3.325   0.028  0.00  0.00    +0.009 A 
ATOM     32  F   UNL     1      -2.105   3.867   0.516  0.00  0.00    -0.205 F 
ENDBRANCH  17  26
TORSDOF 2
