REMARK  Name = ZINC26772627
REMARK  12 active torsions:
REMARK  status: ('A' for Active; 'I' for Inactive)
REMARK    1  A    between atoms: C_1  and  C_2
REMARK    2  A    between atoms: C_5  and  S_8
REMARK    3  A    between atoms: S_8  and  N_11
REMARK    4  A    between atoms: N_11  and  C_12
REMARK    5  A    between atoms: N_11  and  C_13
REMARK    6  A    between atoms: C_13  and  C_14
REMARK    7  A    between atoms: N_16  and  N_17
REMARK    8  A    between atoms: C_18  and  C_20
REMARK    9  A    between atoms: C_20  and  C_22
REMARK   10  A    between atoms: C_20  and  N_25
REMARK   11  A    between atoms: C_22  and  C_23
REMARK   12  A    between atoms: C_22  and  C_24
REMARK                            x       y       z     vdW  Elec       q    Type
REMARK                         _______ _______ _______ _____ _____    ______ ____
ROOT
ATOM      1  C   UNL     1       3.664  -3.893  -1.224  0.00  0.00    +0.245 C 
ATOM      2  O   UNL     1       3.853  -2.963  -0.469  0.00  0.00    -0.273 OA
ATOM      3  N   UNL     1       4.109  -3.830  -2.495  0.00  0.00    -0.233 N 
ATOM      4  H   UNL     1       3.957  -4.573  -3.099  0.00  0.00    +0.173 HD
ENDROOT
BRANCH   3   5
ATOM      5  N   UNL     1       4.792  -2.692  -2.942  0.00  0.00    -0.233 N 
ATOM      6  C   UNL     1       5.238  -2.629  -4.213  0.00  0.00    +0.250 C 
ATOM      7  O   UNL     1       5.124  -3.590  -4.943  0.00  0.00    -0.272 OA
ATOM      8  H   UNL     1       4.944  -1.948  -2.338  0.00  0.00    +0.173 HD
BRANCH   6   9
ATOM      9  C   UNL     1       5.877  -1.364  -4.725  0.00  0.00    +0.164 C 
BRANCH   9  10
ATOM     10  N   UNL     1       6.829  -1.695  -5.789  0.00  0.00    -0.288 N 
ATOM     11  C   UNL     1       7.859  -0.866  -6.053  0.00  0.00    +0.298 C 
ATOM     12  O   UNL     1       7.998   0.155  -5.408  0.00  0.00    -0.253 OA
ATOM     13  N   UNL     1       8.735  -1.170  -7.031  0.00  0.00    -0.313 N 
ATOM     14  H   UNL     1       6.718  -2.510  -6.303  0.00  0.00    +0.151 HD
ATOM     15  H   UNL     1       8.624  -1.986  -7.545  0.00  0.00    +0.146 HD
ATOM     16  H   UNL     1       9.476  -0.574  -7.221  0.00  0.00    +0.146 HD
ENDBRANCH   9  10
BRANCH   9  17
ATOM     17  C   UNL     1       4.796  -0.434  -5.280  0.00  0.00    +0.012 C 
ATOM     18  C   UNL     1       3.830  -0.049  -4.157  0.00  0.00    +0.009 C 
ATOM     19  C   UNL     1       5.450   0.828  -5.846  0.00  0.00    +0.009 C 
ENDBRANCH   9  17
ENDBRANCH   6   9
ENDBRANCH   3   5
BRANCH   1  20
ATOM     20  C   UNL     1       2.929  -5.118  -0.743  0.00  0.00    +0.206 C 
BRANCH  20  21
ATOM     21  N   UNL     1       2.553  -4.941   0.662  0.00  0.00    -0.171 NA
ATOM     22  C   UNL     1       3.507  -5.268   1.723  0.00  0.00    +0.132 C 
BRANCH  21  23
ATOM     23  S   UNL     1       1.047  -4.370   1.050  0.00  0.00    +0.061 S 
ATOM     24  O   UNL     1       0.769  -4.820   2.368  0.00  0.00    -0.153 OA
ATOM     25  O   UNL     1       0.202  -4.672  -0.052  0.00  0.00    -0.153 OA
BRANCH  23  30
ATOM     26  C   UNL     1       1.432   1.645   1.326  0.00  0.00    +0.044 C 
ATOM     27  C   UNL     1       1.336   0.143   1.257  0.00  0.00    -0.050 A 
ATOM     28  C   UNL     1       1.020  -0.475   0.062  0.00  0.00    +0.005 A 
ATOM     29  C   UNL     1       0.932  -1.853  -0.002  0.00  0.00    +0.029 A 
ATOM     30  C   UNL     1       1.160  -2.614   1.130  0.00  0.00    +0.105 A 
ATOM     31  C   UNL     1       1.477  -1.996   2.325  0.00  0.00    +0.029 A 
ATOM     32  C   UNL     1       1.569  -0.618   2.388  0.00  0.00    +0.005 A 
ENDBRANCH  23  30
ENDBRANCH  21  23
ENDBRANCH  20  21
ENDBRANCH   1  20
TORSDOF 8
