REMARK  Name = ZINC09241337
REMARK  5 active torsions:
REMARK  status: ('A' for Active; 'I' for Inactive)
REMARK    1  A    between atoms: C_1  and  C_2
REMARK    2  A    between atoms: C_8  and  C_10
REMARK    3  A    between atoms: C_10  and  S_11
REMARK    4  A    between atoms: S_11  and  C_12
REMARK    5  A    between atoms: C_18  and  C_21
REMARK                            x       y       z     vdW  Elec       q    Type
REMARK                         _______ _______ _______ _____ _____    ______ ____
ROOT
ATOM      1  C   UNL     1      -7.940   4.050   5.654  0.00  0.00    +0.213 A 
ATOM      2  N   UNL     1      -8.794   3.889   4.666  0.00  0.00    -0.120 NA
ATOM      3  N   UNL     1      -9.983   4.194   5.051  0.00  0.00    -0.127 NA
ATOM      4  C   UNL     1      -9.957   4.571   6.316  0.00  0.00    +0.179 A 
ATOM      5  N   UNL     1      -8.644   4.481   6.734  0.00  0.00    -0.187 N 
ATOM      6  N   UNL     1      -8.300   4.825   8.042  0.00  0.00    -0.163 NA
ATOM      7  C   UNL     1      -9.221   5.227   8.889  0.00  0.00    +0.092 A 
ATOM      8  C   UNL     1     -10.575   5.324   8.494  0.00  0.00    +0.034 A 
ATOM      9  C   UNL     1     -10.941   5.002   7.227  0.00  0.00    +0.052 A 
ENDROOT
BRANCH   7  10
ATOM     10  C   UNL     1      -8.836   5.582  10.276  0.00  0.00    +0.006 A 
ATOM     11  C   UNL     1      -9.816   5.909  11.211  0.00  0.00    +0.014 A 
ATOM     12  C   UNL     1      -9.457   6.239  12.502  0.00  0.00    +0.050 A 
ATOM     13  C   UNL     1      -8.120   6.247  12.873  0.00  0.00    +0.166 A 
ATOM     14  C   UNL     1      -7.135   5.921  11.941  0.00  0.00    +0.167 A 
ATOM     15  C   UNL     1      -7.492   5.585  10.648  0.00  0.00    +0.059 A 
ATOM     16  O   UNL     1      -5.916   6.002  12.550  0.00  0.00    -0.453 OA
ATOM     17  C   UNL     1      -6.189   5.982  13.963  0.00  0.00    +0.466 C 
ATOM     18  O   UNL     1      -7.516   6.533  14.063  0.00  0.00    -0.453 OA
ENDBRANCH   7  10
BRANCH   1  19
ATOM     19  S   UNL     1      -6.204   3.754   5.590  0.00  0.00    -0.075 S 
BRANCH  19  20
ATOM     20  C   UNL     1      -5.916   3.196   3.889  0.00  0.00    +0.173 C 
BRANCH  20  28
ATOM     21  C   UNL     1      -0.013   1.086   0.008  0.00  0.00    +0.066 C 
ATOM     22  C   UNL     1      -0.718   1.572   1.248  0.00  0.00    +0.047 A 
ATOM     23  C   UNL     1      -0.029   1.806   2.391  0.00  0.00    +0.071 A 
ATOM     24  S   UNL     1      -1.348   2.342   3.471  0.00  0.00    -0.060 S 
ATOM     25  C   UNL     1      -2.646   2.204   2.326  0.00  0.00    +0.165 A 
ATOM     26  N   UNL     1      -2.019   1.784   1.244  0.00  0.00    -0.230 NA
ATOM     27  N   UNL     1      -3.999   2.473   2.502  0.00  0.00    -0.264 N 
ATOM     28  C   UNL     1      -4.449   2.904   3.697  0.00  0.00    +0.229 C 
ATOM     29  O   UNL     1      -3.675   3.058   4.618  0.00  0.00    -0.275 OA
ATOM     30  H   UNL     1      -4.618   2.351   1.766  0.00  0.00    +0.157 HD
ENDBRANCH  20  28
ENDBRANCH  19  20
ENDBRANCH   1  19
TORSDOF 4
