REMARK  Name = ZINC50350756
REMARK  2 active torsions:
REMARK  status: ('A' for Active; 'I' for Inactive)
REMARK    1  A    between atoms: C_8  and  S_9
REMARK    2  A    between atoms: S_9  and  N_12
REMARK                            x       y       z     vdW  Elec       q    Type
REMARK                         _______ _______ _______ _____ _____    ______ ____
ROOT
ATOM      1  S   UNL     1      -1.675  -0.623  -0.307  0.00  0.00    +0.035 S 
ATOM      2  O   UNL     1      -2.545  -0.224   0.743  0.00  0.00    -0.158 OA
ATOM      3  O   UNL     1      -2.033  -0.407  -1.666  0.00  0.00    -0.158 OA
ENDROOT
BRANCH   1  11
ATOM      4  C   UNL     1      -0.019   1.522   0.010  0.00  0.00    +0.050 C 
ATOM      5  C   UNL     1       1.413   2.064  -0.000  0.00  0.00    +0.168 C 
ATOM      6  S   UNL     1       2.252   1.538   1.523  0.00  0.00    -0.031 S 
ATOM      7  O   UNL     1       3.643   1.797   1.386  0.00  0.00    -0.174 OA
ATOM      8  O   UNL     1       1.553   2.080   2.635  0.00  0.00    -0.174 OA
ATOM      9  C   UNL     1       1.994  -0.261   1.496  0.00  0.00    +0.168 C 
ATOM     10  C   UNL     1       0.498  -0.544   1.340  0.00  0.00    +0.050 C 
ATOM     11  C   UNL     1       0.002  -0.004   0.002  0.00  0.00    +0.151 C 
ENDBRANCH   1  11
BRANCH   1  12
ATOM     12  N   UNL     1      -1.556  -2.268  -0.157  0.00  0.00    -0.178 NA
ATOM     13  C   UNL     1      -1.234  -3.110  -1.319  0.00  0.00    +0.124 C 
ATOM     14  C   UNL     1      -2.275  -4.232  -1.409  0.00  0.00    +0.098 C 
ATOM     15  N   UNL     1      -2.337  -4.942  -0.125  0.00  0.00    -0.313 NA
ATOM     16  C   UNL     1      -2.789  -4.053   0.954  0.00  0.00    +0.098 C 
ATOM     17  C   UNL     1      -1.764  -2.924   1.143  0.00  0.00    +0.124 C 
ATOM     18  H   UNL     1      -2.926  -5.759  -0.192  0.00  0.00    +0.122 HD
ENDBRANCH   1  12
TORSDOF 2
