REMARK  Name = ZINC33810441
REMARK  10 active torsions:
REMARK  status: ('A' for Active; 'I' for Inactive)
REMARK    1  A    between atoms: C_1  and  C_2
REMARK    2  A    between atoms: C_2  and  C_3
REMARK    3  A    between atoms: C_2  and  S_4
REMARK    4  A    between atoms: S_4  and  C_5
REMARK    5  A    between atoms: C_12  and  C_24
REMARK    6  A    between atoms: C_18  and  C_22
REMARK    7  A    between atoms: C_18  and  C_23
REMARK    8  A    between atoms: C_27  and  O_30
REMARK    9  A    between atoms: O_30  and  C_31
REMARK   10  A    between atoms: C_31  and  C_32
REMARK                            x       y       z     vdW  Elec       q    Type
REMARK                         _______ _______ _______ _____ _____    ______ ____
ROOT
ATOM      1  C   UNL     1      -3.554   1.659  -0.345  0.00  0.00    +0.171 A 
ATOM      2  N   UNL     1      -2.366   0.992  -0.360  0.00  0.00    -0.208 NA
ATOM      3  C   UNL     1      -1.215   1.631   0.017  0.00  0.00    +0.135 A 
ATOM      4  C   UNL     1      -1.274   2.930   0.418  0.00  0.00    +0.069 A 
ATOM      5  C   UNL     1      -2.525   3.586   0.417  0.00  0.00    +0.258 A 
ATOM      6  O   UNL     1      -2.606   4.756   0.764  0.00  0.00    -0.267 OA
ATOM      7  N   UNL     1      -3.623   2.919   0.033  0.00  0.00    -0.302 N 
ATOM      8  C   UNL     1      -0.038   3.662   0.850  0.00  0.00    +0.092 C 
ATOM      9  C   UNL     1       1.208   2.954   0.383  0.00  0.00    +0.024 C 
ATOM     10  C   UNL     1       1.169   1.660  -0.000  0.00  0.00    +0.017 C 
ATOM     11  N   UNL     1      -0.011   0.966   0.007  0.00  0.00    -0.302 N 
ATOM     12  C   UNL     1       2.420   0.941  -0.442  0.00  0.00    +0.058 C 
ATOM     13  C   UNL     1       3.377   1.936  -1.103  0.00  0.00    -0.023 C 
ATOM     14  C   UNL     1       3.697   3.044  -0.095  0.00  0.00    +0.086 C 
ATOM     15  C   UNL     1       2.412   3.679   0.362  0.00  0.00    +0.162 C 
ATOM     16  O   UNL     1       2.415   4.840   0.720  0.00  0.00    -0.292 OA
ATOM     17  C   UNL     1       2.714   2.543  -2.341  0.00  0.00    +0.011 C 
ATOM     18  C   UNL     1       4.668   1.222  -1.509  0.00  0.00    +0.011 C 
ATOM     19  H   UNL     1       0.010  -0.134   0.006  0.00  0.00    +0.153 HD
ATOM     20  H   UNL     1      -4.593   3.439   0.038  0.00  0.00    +0.171 HD
ENDROOT
BRANCH   8  21
ATOM     21  C   UNL     1      -0.020   3.753   2.354  0.00  0.00    -0.035 A 
ATOM     22  C   UNL     1       0.015   2.599   3.115  0.00  0.00    +0.008 A 
ATOM     23  C   UNL     1       0.037   2.680   4.494  0.00  0.00    +0.046 A 
ATOM     24  C   UNL     1       0.014   3.920   5.115  0.00  0.00    +0.121 A 
ATOM     25  C   UNL     1      -0.027   5.077   4.349  0.00  0.00    +0.046 A 
ATOM     26  C   UNL     1      -0.043   4.991   2.971  0.00  0.00    +0.008 A 
BRANCH  24  27
ATOM     27  O   UNL     1       0.030   4.002   6.471  0.00  0.00    -0.487 OA
BRANCH  27  28
ATOM     28  C   UNL     1       0.072   2.771   7.195  0.00  0.00    +0.264 C 
BRANCH  28  29
ATOM     29  C   UNL     1       0.085   3.058   8.675  0.00  0.00    -0.010 A 
ATOM     30  C   UNL     1       1.288   3.215   9.337  0.00  0.00    +0.007 A 
ATOM     31  C   UNL     1       1.300   3.484  10.693  0.00  0.00    +0.000 A 
ATOM     32  C   UNL     1       0.110   3.584  11.389  0.00  0.00    +0.000 A 
ATOM     33  C   UNL     1      -1.093   3.423  10.727  0.00  0.00    +0.000 A 
ATOM     34  C   UNL     1      -1.105   3.159   9.370  0.00  0.00    +0.007 A 
ENDBRANCH  28  29
ENDBRANCH  27  28
ENDBRANCH  24  27
ENDBRANCH   8  21
BRANCH   1  35
ATOM     35  S   UNL     1      -5.023   0.822  -0.840  0.00  0.00    -0.085 S 
BRANCH  35  37
ATOM     36  C   UNL     1      -7.600   1.683  -1.121  0.00  0.00    +0.019 C 
ATOM     37  C   UNL     1      -6.231   2.152  -0.623  0.00  0.00    +0.048 C 
ATOM     38  C   UNL     1      -6.326   2.518   0.860  0.00  0.00    +0.019 C 
ENDBRANCH  35  37
ENDBRANCH   1  35
TORSDOF 6
