REMARK  Name = ZINC13164738
REMARK  5 active torsions:
REMARK  status: ('A' for Active; 'I' for Inactive)
REMARK    1  A    between atoms: C_1  and  C_2
REMARK    2  A    between atoms: C_2  and  C_29
REMARK    3  A    between atoms: N_5  and  C_9
REMARK    4  A    between atoms: C_9  and  C_10
REMARK    5  A    between atoms: C_21  and  C_23
REMARK                            x       y       z     vdW  Elec       q    Type
REMARK                         _______ _______ _______ _____ _____    ______ ____
ROOT
ATOM      1  C   UNL     1      -6.726   6.791   1.174  0.00  0.00    +0.214 C 
ENDROOT
BRANCH   1   2
ATOM      2  C   UNL     1      -7.433   5.659   0.473  0.00  0.00    +0.238 C 
ATOM      3  O   UNL     1      -6.831   4.641   0.204  0.00  0.00    -0.273 OA
ATOM      4  N   UNL     1      -8.735   5.779   0.145  0.00  0.00    -0.256 N 
ATOM      5  C   UNL     1      -9.440   4.710  -0.435  0.00  0.00    +0.079 A 
ATOM      6  C   UNL     1      -8.752   3.617  -0.939  0.00  0.00    +0.027 A 
ATOM      7  C   UNL     1      -9.450   2.566  -1.506  0.00  0.00    +0.002 A 
ATOM      8  C   UNL     1     -10.831   2.606  -1.570  0.00  0.00    +0.004 A 
ATOM      9  C   UNL     1     -11.524   3.692  -1.059  0.00  0.00    +0.047 A 
ATOM     10  C   UNL     1     -10.831   4.753  -0.495  0.00  0.00    +0.142 A 
ATOM     11  O   UNL     1     -11.516   5.823  -0.014  0.00  0.00    -0.488 OA
ATOM     12  C   UNL     1     -10.852   6.670   0.928  0.00  0.00    +0.256 C 
ATOM     13  C   UNL     1      -9.467   7.035   0.375  0.00  0.00    +0.149 C 
BRANCH  13  14
ATOM     14  C   UNL     1      -9.615   7.787  -0.922  0.00  0.00    -0.023 A 
ATOM     15  C   UNL     1      -9.890   7.101  -2.091  0.00  0.00    +0.005 A 
ATOM     16  C   UNL     1     -10.030   7.791  -3.281  0.00  0.00    +0.000 A 
ATOM     17  C   UNL     1      -9.885   9.166  -3.304  0.00  0.00    +0.000 A 
ATOM     18  C   UNL     1      -9.605   9.851  -2.136  0.00  0.00    +0.000 A 
ATOM     19  C   UNL     1      -9.470   9.162  -0.946  0.00  0.00    +0.005 A 
ENDBRANCH  13  14
ENDBRANCH   1   2
BRANCH   1  24
ATOM     20  C   UNL     1      -2.071   7.049   1.756  0.00  0.00    +0.047 C 
ATOM     21  C   UNL     1      -3.119   5.966   1.492  0.00  0.00    +0.135 C 
ATOM     22  C   UNL     1      -4.295   6.537   0.724  0.00  0.00    +0.251 C 
ATOM     23  O   UNL     1      -4.275   7.035  -0.381  0.00  0.00    -0.272 OA
ATOM     24  N   UNL     1      -5.366   6.374   1.525  0.00  0.00    -0.215 N 
ATOM     25  C   UNL     1      -5.035   5.786   2.680  0.00  0.00    +0.310 C 
ATOM     26  O   UNL     1      -5.831   5.534   3.563  0.00  0.00    -0.252 OA
ATOM     27  N   UNL     1      -3.718   5.505   2.757  0.00  0.00    -0.281 N 
ATOM     28  H   UNL     1      -3.255   5.082   3.497  0.00  0.00    +0.152 HD
BRANCH  21  29
ATOM     29  C   UNL     1      -2.507   4.810   0.744  0.00  0.00    -0.012 A 
ATOM     30  C   UNL     1      -2.521   4.799  -0.639  0.00  0.00    +0.010 A 
ATOM     31  C   UNL     1      -1.960   3.741  -1.330  0.00  0.00    +0.050 A 
ATOM     32  C   UNL     1      -1.384   2.688  -0.638  0.00  0.00    +0.166 A 
ATOM     33  C   UNL     1      -1.371   2.699   0.754  0.00  0.00    +0.167 A 
ATOM     34  C   UNL     1      -1.934   3.763   1.440  0.00  0.00    +0.055 A 
ATOM     35  O   UNL     1      -0.750   1.563   1.195  0.00  0.00    -0.453 OA
ATOM     36  C   UNL     1      -0.028   1.056   0.058  0.00  0.00    +0.466 C 
ATOM     37  O   UNL     1      -0.775   1.546  -1.072  0.00  0.00    -0.453 OA
ENDBRANCH  21  29
ENDBRANCH   1  24
TORSDOF 4
