REMARK  Name = ZINC67247905
REMARK  10 active torsions:
REMARK  status: ('A' for Active; 'I' for Inactive)
REMARK    1  A    between atoms: C_1  and  C_2
REMARK    2  A    between atoms: C_5  and  C_11
REMARK    3  A    between atoms: C_7  and  N_8
REMARK    4  A    between atoms: C_11  and  N_12
REMARK    5  A    between atoms: N_12  and  C_13
REMARK    6  A    between atoms: C_13  and  C_15
REMARK    7  A    between atoms: C_13  and  C_16
REMARK    8  A    between atoms: C_19  and  S_22
REMARK    9  A    between atoms: S_22  and  N_25
REMARK   10  A    between atoms: N_25  and  C_26
REMARK                            x       y       z     vdW  Elec       q    Type
REMARK                         _______ _______ _______ _____ _____    ______ ____
ROOT
ATOM      1  N   UNL     1       2.004  -4.430  -0.384  0.00  0.00    +0.386 N 
ATOM      2  H   UNL     1       2.235  -4.013  -1.273  0.00  0.00    -0.085 HD
ATOM      3  H   UNL     1       2.558  -4.002   0.343  0.00  0.00    -0.085 HD
ENDROOT
BRANCH   1   4
ATOM      4  C   UNL     1       2.286  -5.871  -0.431  0.00  0.00    -0.044 C 
ATOM      5  C   UNL     1       1.542  -6.498  -1.611  0.00  0.00    -0.009 C 
BRANCH   4   6
ATOM      6  C   UNL     1       3.768  -6.087  -0.601  0.00  0.00    -0.062 A 
ATOM      7  C   UNL     1       4.495  -5.266  -1.443  0.00  0.00    +0.004 A 
ATOM      8  C   UNL     1       5.854  -5.464  -1.599  0.00  0.00    +0.029 A 
ATOM      9  C   UNL     1       6.487  -6.483  -0.911  0.00  0.00    +0.105 A 
ATOM     10  C   UNL     1       5.761  -7.303  -0.067  0.00  0.00    +0.029 A 
ATOM     11  C   UNL     1       4.402  -7.102   0.091  0.00  0.00    +0.004 A 
BRANCH   9  12
ATOM     12  S   UNL     1       8.219  -6.736  -1.109  0.00  0.00    +0.058 S 
ATOM     13  O   UNL     1       8.472  -8.094  -0.777  0.00  0.00    -0.153 OA
ATOM     14  O   UNL     1       8.569  -6.182  -2.371  0.00  0.00    -0.153 OA
BRANCH  12  15
ATOM     15  N   UNL     1       8.983  -5.818   0.038  0.00  0.00    -0.193 NA
ATOM     16  C   UNL     1       8.801  -6.122   1.460  0.00  0.00    +0.127 C 
ATOM     17  H   UNL     1       9.551  -5.079  -0.231  0.00  0.00    +0.148 HD
ENDBRANCH  12  15
ENDBRANCH   9  12
ENDBRANCH   4   6
ENDBRANCH   1   4
BRANCH   1  18
ATOM     18  C   UNL     1       0.578  -4.220  -0.099  0.00  0.00    -0.046 C 
BRANCH  18  23
ATOM     19  C   UNL     1      -0.537   1.447   0.088  0.00  0.00    +0.046 C 
ATOM     20  C   UNL     1      -0.246  -0.031   0.039  0.00  0.00    -0.020 A 
ATOM     21  C   UNL     1      -0.347  -0.716  -1.157  0.00  0.00    +0.006 A 
ATOM     22  C   UNL     1      -0.080  -2.071  -1.202  0.00  0.00    +0.002 A 
ATOM     23  C   UNL     1       0.288  -2.742  -0.051  0.00  0.00    -0.062 A 
ATOM     24  C   UNL     1       0.390  -2.057   1.145  0.00  0.00    +0.034 A 
ATOM     25  C   UNL     1       0.127  -0.700   1.190  0.00  0.00    +0.129 A 
BRANCH  25  26
ATOM     26  N   UNL     1       0.241   0.035   2.470  0.00  0.00    +0.057 N 
ATOM     27  O   UNL     1       0.674   1.163   2.482  0.00  0.00    -0.126 OA
ATOM     28  O   UNL     1      -0.099  -0.494   3.502  0.00  0.00    -0.126 OA
ENDBRANCH  25  26
ENDBRANCH  18  23
ENDBRANCH   1  18
TORSDOF 7
