REMARK  Name = ZINC39673518
REMARK  7 active torsions:
REMARK  status: ('A' for Active; 'I' for Inactive)
REMARK    1  A    between atoms: C_1  and  C_2
REMARK    2  A    between atoms: C_2  and  C_3
REMARK    3  A    between atoms: C_3  and  C_4
REMARK    4  A    between atoms: C_4  and  C_6
REMARK    5  A    between atoms: C_4  and  N_7
REMARK    6  A    between atoms: C_8  and  C_10
REMARK    7  A    between atoms: C_21  and  C_23
REMARK                            x       y       z     vdW  Elec       q    Type
REMARK                         _______ _______ _______ _____ _____    ______ ____
ROOT
ATOM      1  C   UNL     1       2.228  -4.297   1.212  0.00  0.00    +0.100 C 
ATOM      2  C   UNL     1       3.715  -4.550   0.875  0.00  0.00    +0.121 C 
ATOM      3  N   UNL     1       4.094  -5.717   1.707  0.00  0.00    -0.296 N 
ATOM      4  C   UNL     1       2.909  -6.607   1.655  0.00  0.00    +0.115 C 
ATOM      5  C   UNL     1       1.703  -5.649   1.723  0.00  0.00    -0.004 C 
ATOM      6  C   UNL     1       0.579  -6.154   0.823  0.00  0.00    -0.010 C 
ATOM      7  C   UNL     1       0.034  -7.470   1.384  0.00  0.00    -0.082 C 
ATOM      8  N   UNL     1      -0.464  -7.254   2.748  0.00  0.00    +0.379 N 
ATOM      9  C   UNL     1       0.643  -6.859   3.628  0.00  0.00    -0.082 C 
ATOM     10  C   UNL     1       1.214  -5.517   3.162  0.00  0.00    -0.010 C 
ATOM     11  C   UNL     1       5.253  -5.921   2.363  0.00  0.00    +0.247 C 
ATOM     12  O   UNL     1       5.449  -6.976   2.936  0.00  0.00    -0.270 OA
ATOM     13  H   UNL     1      -1.161  -6.525   2.739  0.00  0.00    -0.086 HD
ATOM     14  H   UNL     1      -0.878  -8.107   3.093  0.00  0.00    -0.086 HD
ENDROOT
BRANCH  11  15
ATOM     15  C   UNL     1       6.285  -4.865   2.387  0.00  0.00    +0.045 A 
ATOM     16  C   UNL     1       6.688  -4.249   1.196  0.00  0.00    +0.014 A 
ATOM     17  C   UNL     1       7.650  -3.263   1.215  0.00  0.00    +0.001 A 
ATOM     18  C   UNL     1       8.229  -2.870   2.412  0.00  0.00    +0.012 A 
ATOM     19  C   UNL     1       7.844  -3.469   3.606  0.00  0.00    +0.031 A 
ATOM     20  C   UNL     1       6.860  -4.471   3.602  0.00  0.00    +0.006 A 
ATOM     21  C   UNL     1       6.639  -4.926   4.997  0.00  0.00    -0.006 A 
ATOM     22  C   UNL     1       5.791  -5.885   5.535  0.00  0.00    +0.009 A 
ATOM     23  C   UNL     1       5.783  -6.115   6.902  0.00  0.00    +0.001 A 
ATOM     24  C   UNL     1       6.615  -5.395   7.738  0.00  0.00    +0.001 A 
ATOM     25  C   UNL     1       7.467  -4.434   7.216  0.00  0.00    +0.012 A 
ATOM     26  C   UNL     1       7.485  -4.194   5.848  0.00  0.00    +0.030 A 
ATOM     27  C   UNL     1       8.276  -3.263   5.008  0.00  0.00    +0.194 C 
ATOM     28  O   UNL     1       9.110  -2.472   5.398  0.00  0.00    -0.287 OA
ENDBRANCH  11  15
BRANCH   1  30
ATOM     29  N   UNL     1       0.332  -3.170   0.093  0.00  0.00    -0.312 N 
ATOM     30  C   UNL     1       1.475  -3.874  -0.023  0.00  0.00    +0.218 C 
ATOM     31  O   UNL     1       1.897  -4.168  -1.121  0.00  0.00    -0.275 OA
ATOM     32  H   UNL     1      -0.006  -2.935   0.972  0.00  0.00    +0.149 HD
BRANCH  29  33
ATOM     33  C   UNL     1      -0.400  -2.759  -1.107  0.00  0.00    +0.070 C 
ATOM     34  C   UNL     1       0.183  -1.446  -1.636  0.00  0.00    +0.028 C 
BRANCH  33  35
ATOM     35  C   UNL     1      -1.877  -2.558  -0.760  0.00  0.00    +0.022 C 
BRANCH  35  37
ATOM     36  C   UNL     1      -3.968  -3.696  -0.003  0.00  0.00    +0.004 C 
ATOM     37  C   UNL     1      -2.491  -3.897  -0.350  0.00  0.00    -0.002 C 
ENDBRANCH  35  37
ENDBRANCH  33  35
ENDBRANCH  29  33
ENDBRANCH   1  30
TORSDOF 5
