REMARK  Name = ZINC38660793
REMARK  11 active torsions:
REMARK  status: ('A' for Active; 'I' for Inactive)
REMARK    1  A    between atoms: C_1  and  C_2
REMARK    2  A    between atoms: C_5  and  O_8
REMARK    3  A    between atoms: O_8  and  C_9
REMARK    4  A    between atoms: C_9  and  C_10
REMARK    5  A    between atoms: C_10  and  O_12
REMARK    6  A    between atoms: O_12  and  C_13
REMARK    7  A    between atoms: C_20  and  N_39
REMARK    8  A    between atoms: C_21  and  C_37
REMARK    9  A    between atoms: C_22  and  C_24
REMARK   10  A    between atoms: C_28  and  O_30
REMARK   11  A    between atoms: O_30  and  C_31
REMARK                            x       y       z     vdW  Elec       q    Type
REMARK                         _______ _______ _______ _____ _____    ______ ____
ROOT
ATOM      1  C   UNL     1      -0.153  -8.698   2.191  0.00  0.00    +0.135 A 
ATOM      2  C   UNL     1      -0.100  -9.234   0.911  0.00  0.00    +0.047 A 
ATOM      3  C   UNL     1      -0.058 -10.603   0.738  0.00  0.00    +0.012 A 
ATOM      4  C   UNL     1      -0.068 -11.446   1.835  0.00  0.00    +0.008 A 
ATOM      5  C   UNL     1      -0.121 -10.916   3.115  0.00  0.00    +0.138 A 
ATOM      6  C   UNL     1      -0.158  -9.539   3.292  0.00  0.00    +0.093 A 
ATOM      7  O   UNL     1      -0.133 -11.726   4.203  0.00  0.00    -0.441 OA
ATOM      8  C   UNL     1      -0.476 -13.018   4.073  0.00  0.00    +0.199 C 
ATOM      9  C   UNL     1      -0.446 -13.651   2.877  0.00  0.00    +0.098 C 
ATOM     10  C   UNL     1      -0.022 -12.936   1.625  0.00  0.00    +0.098 C 
ENDROOT
BRANCH  10  11
ATOM     11  C   UNL     1       1.384 -13.346   1.267  0.00  0.00    -0.031 A 
ATOM     12  C   UNL     1       2.420 -13.103   2.151  0.00  0.00    +0.005 A 
ATOM     13  C   UNL     1       3.710 -13.478   1.826  0.00  0.00    +0.004 A 
ATOM     14  C   UNL     1       3.968 -14.097   0.618  0.00  0.00    +0.046 A 
ATOM     15  C   UNL     1       2.931 -14.341  -0.270  0.00  0.00    +0.129 A 
ATOM     16  C   UNL     1       1.635 -13.969   0.061  0.00  0.00    +0.050 A 
BRANCH  15  17
ATOM     17  O   UNL     1       3.182 -14.949  -1.459  0.00  0.00    -0.456 OA
BRANCH  17  18
ATOM     18  C   UNL     1       2.160 -15.055  -2.349  0.00  0.00    +0.128 A 
ATOM     19  C   UNL     1       1.645 -13.917  -2.953  0.00  0.00    +0.046 A 
ATOM     20  C   UNL     1       0.607 -14.027  -3.858  0.00  0.00    +0.004 A 
ATOM     21  C   UNL     1       0.082 -15.270  -4.162  0.00  0.00    +0.000 A 
ATOM     22  C   UNL     1       0.594 -16.405  -3.561  0.00  0.00    +0.004 A 
ATOM     23  C   UNL     1       1.636 -16.301  -2.661  0.00  0.00    +0.046 A 
ENDBRANCH  17  18
ENDBRANCH  15  17
ENDBRANCH  10  11
BRANCH   8  24
ATOM     24  N   UNL     1      -0.871 -13.717   5.186  0.00  0.00    -0.328 N 
ATOM     25  H   UNL     1      -0.897 -13.277   6.051  0.00  0.00    +0.145 HD
ATOM     26  H   UNL     1      -1.122 -14.650   5.109  0.00  0.00    +0.145 HD
ENDBRANCH   8  24
BRANCH   9  27
ATOM     27  C   UNL     1      -0.825 -15.030   2.803  0.00  0.00    +0.101 C 
ATOM     28  N   UNL     1      -1.125 -16.124   2.744  0.00  0.00    -0.191 NA
ENDBRANCH   9  27
BRANCH   1  29
ATOM     29  O   UNL     1      -0.194  -7.351   2.363  0.00  0.00    -0.423 OA
BRANCH  29  30
ATOM     30  C   UNL     1      -1.353  -6.719   2.118  0.00  0.00    +0.350 C 
ATOM     31  O   UNL     1      -2.293  -7.333   1.669  0.00  0.00    -0.247 OA
BRANCH  30  32
ATOM     32  C   UNL     1      -1.483  -5.245   2.401  0.00  0.00    +0.349 C 
BRANCH  32  33
ATOM     33  O   UNL     1      -2.800  -4.808   2.060  0.00  0.00    -0.481 OA
BRANCH  33  38
ATOM     34  C   UNL     1      -3.981   0.638   2.877  0.00  0.00    +0.044 C 
ATOM     35  C   UNL     1      -3.665  -0.819   2.658  0.00  0.00    -0.050 A 
ATOM     36  C   UNL     1      -4.632  -1.666   2.148  0.00  0.00    +0.007 A 
ATOM     37  C   UNL     1      -4.345  -3.002   1.947  0.00  0.00    +0.046 A 
ATOM     38  C   UNL     1      -3.085  -3.494   2.257  0.00  0.00    +0.121 A 
ATOM     39  C   UNL     1      -2.117  -2.642   2.768  0.00  0.00    +0.046 A 
ATOM     40  C   UNL     1      -2.407  -1.306   2.962  0.00  0.00    +0.007 A 
ENDBRANCH  33  38
ENDBRANCH  32  33
ENDBRANCH  30  32
ENDBRANCH  29  30
ENDBRANCH   1  29
TORSDOF 10
