REMARK  Name = ZINC08148007
REMARK  11 active torsions:
REMARK  status: ('A' for Active; 'I' for Inactive)
REMARK    1  A    between atoms: C_1  and  C_2
REMARK    2  A    between atoms: C_5  and  C_8
REMARK    3  A    between atoms: N_13  and  C_15
REMARK    4  A    between atoms: C_15  and  N_49
REMARK    5  A    between atoms: C_16  and  N_49
REMARK    6  A    between atoms: C_17  and  C_18
REMARK    7  A    between atoms: C_17  and  N_49
REMARK    8  A    between atoms: N_20  and  C_21
REMARK    9  A    between atoms: C_21  and  C_22
REMARK   10  A    between atoms: C_21  and  C_23
REMARK   11  A    between atoms: C_21  and  C_24
REMARK                            x       y       z     vdW  Elec       q    Type
REMARK                         _______ _______ _______ _____ _____    ______ ____
ROOT
ATOM      1  C   UNL     1       0.002  -0.004   0.002  0.00  0.00    +0.160 A 
ATOM      2  N   UNL     1      -1.108  -0.826   0.008  0.00  0.00    -0.317 N 
ATOM      3  H   UNL     1      -2.032  -0.532   0.019  0.00  0.00    +0.169 HD
ATOM      4  C   UNL     1      -0.686  -2.106  -0.003  0.00  0.00    +0.174 A 
ATOM      5  S   UNL     1      -1.682  -3.498  -0.001  0.00  0.00    -0.012 S 
ATOM      6  N   UNL     1       0.663  -2.092  -0.016  0.00  0.00    -0.257 N 
ATOM      7  N   UNL     1       1.070  -0.751  -0.018  0.00  0.00    -0.153 NA
ENDROOT
BRANCH   1  12
ATOM      8  C   UNL     1      -0.076   5.751   0.033  0.00  0.00    +0.044 C 
ATOM      9  C   UNL     1      -0.056   4.244   0.025  0.00  0.00    -0.050 A 
ATOM     10  C   UNL     1       1.153   3.572   0.010  0.00  0.00    +0.004 A 
ATOM     11  C   UNL     1       1.179   2.192   0.003  0.00  0.00    +0.012 A 
ATOM     12  C   UNL     1      -0.018   1.476   0.010  0.00  0.00    +0.019 A 
ATOM     13  C   UNL     1      -1.234   2.159   0.020  0.00  0.00    +0.012 A 
ATOM     14  C   UNL     1      -1.246   3.539   0.033  0.00  0.00    +0.004 A 
ENDBRANCH   1  12
BRANCH   6  15
ATOM     15  C   UNL     1       1.541  -3.264  -0.032  0.00  0.00    +0.072 C 
BRANCH  15  17
ATOM     16  C   UNL     1       2.608  -2.613  -2.105  0.00  0.00    -0.093 C 
ATOM     17  N   UNL     1       1.796  -3.651  -1.435  0.00  0.00    +0.397 N 
ATOM     18  H   UNL     1       0.898  -3.739  -1.925  0.00  0.00    -0.079 HD
BRANCH  17  19
ATOM     19  C   UNL     1       2.499  -4.950  -1.482  0.00  0.00    +0.021 C 
BRANCH  19  20
ATOM     20  C   UNL     1       2.550  -5.424  -2.911  0.00  0.00    +0.197 C 
ATOM     21  O   UNL     1       2.069  -4.745  -3.793  0.00  0.00    -0.278 OA
ATOM     22  N   UNL     1       3.130  -6.604  -3.210  0.00  0.00    -0.312 N 
ATOM     23  H   UNL     1       3.514  -7.147  -2.505  0.00  0.00    +0.149 HD
BRANCH  22  24
ATOM     24  C   UNL     1       3.179  -7.065  -4.599  0.00  0.00    +0.026 C 
ATOM     25  C   UNL     1       3.949  -6.049  -5.447  0.00  0.00    +0.031 C 
ATOM     26  C   UNL     1       3.885  -8.421  -4.662  0.00  0.00    +0.031 C 
ATOM     27  C   UNL     1       1.755  -7.205  -5.141  0.00  0.00    +0.031 C 
ENDBRANCH  22  24
ENDBRANCH  19  20
ENDBRANCH  17  19
ENDBRANCH  15  17
ENDBRANCH   6  15
TORSDOF 6
