REMARK  Name = ZINC09147349
REMARK  12 active torsions:
REMARK  status: ('A' for Active; 'I' for Inactive)
REMARK    1  A    between atoms: C_1  and  C_2
REMARK    2  A    between atoms: C_2  and  C_3
REMARK    3  A    between atoms: N_9  and  S_10
REMARK    4  A    between atoms: S_10  and  C_13
REMARK    5  A    between atoms: C_16  and  C_19
REMARK    6  A    between atoms: C_19  and  N_21
REMARK    7  A    between atoms: N_23  and  C_35
REMARK    8  A    between atoms: C_26  and  O_33
REMARK    9  A    between atoms: C_27  and  O_31
REMARK   10  A    between atoms: O_31  and  C_32
REMARK   11  A    between atoms: O_33  and  C_34
REMARK   12  A    between atoms: C_35  and  C_36
REMARK                            x       y       z     vdW  Elec       q    Type
REMARK                         _______ _______ _______ _____ _____    ______ ____
ROOT
ATOM      1  C   UNL     1       0.908  -2.320   5.295  0.00  0.00    +0.269 C 
ATOM      2  O   UNL     1      -0.049  -2.701   5.946  0.00  0.00    -0.268 OA
ENDROOT
BRANCH   1   3
ATOM      3  N   UNL     1       2.141  -2.416   5.801  0.00  0.00    -0.152 NA
ATOM      4  C   UNL     1       2.324  -2.928   7.014  0.00  0.00    +0.167 A 
ATOM      5  N   UNL     1       3.492  -3.104   7.688  0.00  0.00    -0.317 N 
ATOM      6  C   UNL     1       3.484  -3.658   8.956  0.00  0.00    +0.062 A 
ATOM      7  C   UNL     1       4.577  -3.914   9.800  0.00  0.00    +0.076 A 
ATOM      8  C   UNL     1       4.391  -4.476  11.044  0.00  0.00    +0.164 A 
ATOM      9  C   UNL     1       3.117  -4.804  11.501  0.00  0.00    +0.163 A 
ATOM     10  C   UNL     1       2.023  -4.559  10.685  0.00  0.00    +0.066 A 
ATOM     11  C   UNL     1       2.214  -3.999   9.443  0.00  0.00    +0.043 A 
ATOM     12  S   UNL     1       1.129  -3.523   8.121  0.00  0.00    -0.052 S 
BRANCH   9  13
ATOM     13  O   UNL     1       2.947  -5.358  12.733  0.00  0.00    -0.491 OA
ATOM     14  C   UNL     1       1.609  -5.665  13.127  0.00  0.00    +0.277 C 
ENDBRANCH   9  13
BRANCH   8  15
ATOM     15  O   UNL     1       5.470  -4.714  11.839  0.00  0.00    -0.491 OA
ATOM     16  C   UNL     1       6.751  -4.356  11.317  0.00  0.00    +0.277 C 
ENDBRANCH   8  15
BRANCH   5  17
ATOM     17  C   UNL     1       4.760  -2.706   7.071  0.00  0.00    +0.151 C 
BRANCH  17  18
ATOM     18  C   UNL     1       4.654  -2.842   5.574  0.00  0.00    -0.013 C 
ATOM     19  C   UNL     1       4.919  -1.817   4.803  0.00  0.00    +0.005 C 
ENDBRANCH  17  18
ENDBRANCH   5  17
ENDBRANCH   1   3
BRANCH   1  23
ATOM     20  C   UNL     1       0.324  -0.684   1.416  0.00  0.00    +0.106 A 
ATOM     21  C   UNL     1       1.603  -0.788   1.935  0.00  0.00    +0.029 A 
ATOM     22  C   UNL     1       1.798  -1.313   3.196  0.00  0.00    +0.015 A 
ATOM     23  C   UNL     1       0.705  -1.750   3.943  0.00  0.00    +0.039 A 
ATOM     24  C   UNL     1      -0.581  -1.649   3.412  0.00  0.00    +0.015 A 
ATOM     25  C   UNL     1      -0.764  -1.117   2.152  0.00  0.00    +0.029 A 
BRANCH  20  26
ATOM     26  S   UNL     1       0.082  -0.007  -0.193  0.00  0.00    +0.061 S 
ATOM     27  O   UNL     1      -1.043  -0.673  -0.749  0.00  0.00    -0.153 OA
ATOM     28  O   UNL     1       1.354  -0.001  -0.826  0.00  0.00    -0.153 OA
BRANCH  26  34
ATOM     29  C   UNL     1       0.663   2.615   0.216  0.00  0.00    +0.080 C 
ATOM     30  C   UNL     1       0.461   3.724  -0.821  0.00  0.00    +0.021 C 
ATOM     31  C   UNL     1      -0.981   4.234  -0.743  0.00  0.00    +0.003 C 
ATOM     32  C   UNL     1      -1.946   3.090  -1.063  0.00  0.00    +0.017 C 
ATOM     33  C   UNL     1      -1.770   1.974  -0.034  0.00  0.00    +0.110 C 
ATOM     34  N   UNL     1      -0.355   1.578   0.005  0.00  0.00    -0.174 NA
BRANCH  29  36
ATOM     35  C   UNL     1       3.115   3.046   0.426  0.00  0.00    +0.005 C 
ATOM     36  C   UNL     1       2.057   2.006   0.054  0.00  0.00    +0.017 C 
ENDBRANCH  29  36
ENDBRANCH  26  34
ENDBRANCH  20  26
ENDBRANCH   1  23
TORSDOF 9
