REMARK  Name = ZINC21141016
REMARK  6 active torsions:
REMARK  status: ('A' for Active; 'I' for Inactive)
REMARK    1  A    between atoms: C_3  and  N_15
REMARK    2  A    between atoms: C_5  and  N_7
REMARK    3  A    between atoms: C_8  and  C_10
REMARK    4  A    between atoms: C_16  and  C_18
REMARK    5  A    between atoms: C_18  and  O_19
REMARK    6  A    between atoms: O_19  and  C_20
REMARK                            x       y       z     vdW  Elec       q    Type
REMARK                         _______ _______ _______ _____ _____    ______ ____
ROOT
ATOM      1  N   UNL     1      -8.405   3.035   0.281  0.00  0.00    -0.283 N 
ATOM      2  C   UNL     1      -9.669   2.615   0.487  0.00  0.00    +0.255 C 
ATOM      3  O   UNL     1      -9.910   1.429   0.558  0.00  0.00    -0.272 OA
ATOM      4  H   UNL     1      -8.198   4.106   0.141  0.00  0.00    +0.155 HD
ENDROOT
BRANCH   1   7
ATOM      5  C   UNL     1      -6.527  -0.066  -0.340  0.00  0.00    +0.004 A 
ATOM      6  C   UNL     1      -7.561   0.849  -0.304  0.00  0.00    +0.023 A 
ATOM      7  C   UNL     1      -7.357   2.109   0.245  0.00  0.00    +0.035 A 
ATOM      8  C   UNL     1      -6.114   2.446   0.762  0.00  0.00    +0.046 A 
ATOM      9  C   UNL     1      -5.076   1.527   0.719  0.00  0.00    +0.035 A 
ATOM     10  C   UNL     1      -5.287   0.268   0.169  0.00  0.00    +0.023 A 
BRANCH   9  11
ATOM     11  N   UNL     1      -3.820   1.864   1.234  0.00  0.00    -0.281 N 
ATOM     12  C   UNL     1      -3.374   3.133   1.143  0.00  0.00    +0.255 C 
ATOM     13  O   UNL     1      -4.021   3.964   0.533  0.00  0.00    -0.269 OA
ATOM     14  H   UNL     1      -3.197   1.094   1.712  0.00  0.00    +0.155 HD
BRANCH  12  15
ATOM     15  C   UNL     1      -2.110   3.511   1.780  0.00  0.00    +0.074 A 
ATOM     16  C   UNL     1      -1.480   4.746   1.807  0.00  0.00    +0.021 A 
ATOM     17  C   UNL     1      -0.291   4.827   2.489  0.00  0.00    +0.008 A 
ATOM     18  C   UNL     1       0.206   3.715   3.090  0.00  0.00    +0.046 A 
ATOM     19  S   UNL     1      -0.978   2.503   2.722  0.00  0.00    -0.092 S 
ENDBRANCH  12  15
ENDBRANCH   9  11
ENDBRANCH   1   7
BRANCH   2  20
ATOM     20  C   UNL     1     -10.783   3.620   0.630  0.00  0.00    +0.324 C 
BRANCH  20  21
ATOM     21  O   UNL     1     -12.019   2.934   0.840  0.00  0.00    -0.483 OA
BRANCH  21  22
ATOM     22  C   UNL     1     -13.131   3.698   0.989  0.00  0.00    +0.125 A 
ATOM     23  C   UNL     1     -13.026   5.087   0.938  0.00  0.00    +0.046 A 
ATOM     24  C   UNL     1     -14.136   5.870   1.080  0.00  0.00    +0.015 A 
ATOM     25  C   UNL     1     -15.384   5.274   1.290  0.00  0.00    +0.018 A 
ATOM     26  C   UNL     1     -16.591   6.088   1.452  0.00  0.00    +0.018 A 
ATOM     27  C   UNL     1     -17.773   5.451   1.652  0.00  0.00    +0.092 A 
ATOM     28  C   UNL     1     -17.812   4.042   1.698  0.00  0.00    +0.337 A 
ATOM     29  O   UNL     1     -18.879   3.483   1.878  0.00  0.00    -0.245 OA
ATOM     30  O   UNL     1     -16.703   3.301   1.548  0.00  0.00    -0.422 OA
ATOM     31  C   UNL     1     -15.496   3.872   1.347  0.00  0.00    +0.143 A 
ATOM     32  C   UNL     1     -14.359   3.092   1.195  0.00  0.00    +0.092 A 
ENDBRANCH  21  22
ENDBRANCH  20  21
ENDBRANCH   2  20
TORSDOF 6
