REMARK  Name = ZINC36378072
REMARK  4 active torsions:
REMARK  status: ('A' for Active; 'I' for Inactive)
REMARK    1  A    between atoms: C_1  and  C_2
REMARK    2  A    between atoms: C_2  and  C_3
REMARK    3  A    between atoms: C_4  and  C_14
REMARK    4  A    between atoms: C_5  and  C_12
REMARK                            x       y       z     vdW  Elec       q    Type
REMARK                         _______ _______ _______ _____ _____    ______ ____
ROOT
ATOM      1  C   UNL     1       0.731  -0.503   1.223  0.00  0.00    -0.024 C 
ATOM      2  C   UNL     1       0.053  -0.839   2.308  0.00  0.00    -0.045 C 
ATOM      3  C   UNL     1       0.724  -1.348   3.548  0.00  0.00    +0.171 C 
ATOM      4  C   UNL     1       2.193  -1.055   3.556  0.00  0.00    +0.082 C 
ATOM      5  N   UNL     1       2.878  -0.734   2.430  0.00  0.00    -0.352 N 
ATOM      6  C   UNL     1       2.202  -0.625   1.208  0.00  0.00    +0.036 C 
ATOM      7  C   UNL     1       2.874  -0.626   0.053  0.00  0.00    +0.036 C 
ATOM      8  S   UNL     1       2.961  -1.123   4.905  0.00  0.00    -0.036 SA
ATOM      9  C   UNL     1      -1.448  -0.703   2.298  0.00  0.00    +0.041 C 
ATOM     10  H   UNL     1       3.835  -0.583   2.472  0.00  0.00    +0.166 HD
ENDROOT
BRANCH   1  12
ATOM     11  C   UNL     1      -0.019   1.526   0.010  0.00  0.00    +0.009 C 
ATOM     12  C   UNL     1       0.002  -0.004   0.002  0.00  0.00    +0.034 C 
ENDBRANCH   1  12
BRANCH   3  13
ATOM     13  C   UNL     1       0.104  -0.712   4.722  0.00  0.00    +0.077 C 
ATOM     14  N   UNL     1      -0.373  -0.221   5.628  0.00  0.00    -0.196 NA
ENDBRANCH   3  13
TORSDOF 2
