REMARK  Name = ZINC67469123
REMARK  8 active torsions:
REMARK  status: ('A' for Active; 'I' for Inactive)
REMARK    1  A    between atoms: C_1  and  C_2
REMARK    2  A    between atoms: C_2  and  C_4
REMARK    3  A    between atoms: C_2  and  N_15
REMARK    4  A    between atoms: C_8  and  S_10
REMARK    5  A    between atoms: S_10  and  N_13
REMARK    6  A    between atoms: N_13  and  C_14
REMARK    7  A    between atoms: N_18  and  C_19
REMARK    8  A    between atoms: C_28  and  O_30
REMARK                            x       y       z     vdW  Elec       q    Type
REMARK                         _______ _______ _______ _____ _____    ______ ____
ROOT
ATOM      1  N   UNL     1       0.711  -0.489   1.189  0.00  0.00    -0.293 N 
ATOM      2  C   UNL     1       0.051  -0.633   2.355  0.00  0.00    +0.301 C 
ATOM      3  O   UNL     1      -1.132  -0.361   2.423  0.00  0.00    -0.253 OA
ATOM      4  N   UNL     1       0.703  -1.080   3.447  0.00  0.00    -0.290 N 
ATOM      5  H   UNL     1       1.654  -0.707   1.135  0.00  0.00    +0.151 HD
ATOM      6  H   UNL     1       1.647  -1.298   3.394  0.00  0.00    +0.151 HD
ENDROOT
BRANCH   4   7
ATOM      7  C   UNL     1      -0.014  -1.237   4.715  0.00  0.00    +0.134 C 
ATOM      8  C   UNL     1       0.011   0.060   5.496  0.00  0.00    -0.021 A 
ATOM      9  C   UNL     1      -0.738   1.215   5.342  0.00  0.00    +0.006 A 
ATOM     10  C   UNL     1      -0.539   2.290   6.185  0.00  0.00    +0.000 A 
ATOM     11  C   UNL     1       0.411   2.215   7.187  0.00  0.00    +0.000 A 
ATOM     12  C   UNL     1       1.159   1.064   7.342  0.00  0.00    +0.004 A 
ATOM     13  C   UNL     1       0.960  -0.015   6.498  0.00  0.00    -0.040 A 
ATOM     14  C   UNL     1       1.639  -1.368   6.458  0.00  0.00    +0.069 C 
ATOM     15  C   UNL     1       0.706  -2.265   5.614  0.00  0.00    +0.143 C 
BRANCH  15  16
ATOM     16  O   UNL     1       1.461  -3.188   4.825  0.00  0.00    -0.389 OA
ATOM     17  H   UNL     1       1.931  -3.854   5.344  0.00  0.00    +0.210 HD
ENDBRANCH  15  16
ENDBRANCH   4   7
BRANCH   1  19
ATOM     18  C   UNL     1      -0.019   1.526   0.010  0.00  0.00    +0.033 C 
ATOM     19  C   UNL     1       0.002  -0.004   0.002  0.00  0.00    +0.102 C 
BRANCH  19  20
ATOM     20  C   UNL     1       0.707  -0.490  -1.238  0.00  0.00    -0.026 A 
ATOM     21  C   UNL     1       2.089  -0.511  -1.284  0.00  0.00    +0.005 A 
ATOM     22  C   UNL     1       2.736  -0.957  -2.421  0.00  0.00    +0.002 A 
ATOM     23  C   UNL     1       2.002  -1.382  -3.512  0.00  0.00    +0.028 A 
ATOM     24  C   UNL     1       0.620  -1.362  -3.466  0.00  0.00    +0.106 A 
ATOM     25  C   UNL     1      -0.027  -0.920  -2.327  0.00  0.00    +0.034 A 
BRANCH  24  26
ATOM     26  S   UNL     1      -0.316  -1.904  -4.857  0.00  0.00    +0.058 S 
ATOM     27  O   UNL     1      -1.586  -1.274  -4.762  0.00  0.00    -0.153 OA
ATOM     28  O   UNL     1       0.524  -1.758  -5.994  0.00  0.00    -0.153 OA
BRANCH  26  29
ATOM     29  N   UNL     1      -0.578  -3.528  -4.668  0.00  0.00    -0.193 NA
ATOM     30  C   UNL     1      -1.396  -4.014  -3.554  0.00  0.00    +0.127 C 
ATOM     31  H   UNL     1      -0.190  -4.158  -5.295  0.00  0.00    +0.148 HD
ENDBRANCH  26  29
ENDBRANCH  24  26
ENDBRANCH  19  20
ENDBRANCH   1  19
TORSDOF 6
