REMARK  Name = ZINC06456132
REMARK  9 active torsions:
REMARK  status: ('A' for Active; 'I' for Inactive)
REMARK    1  A    between atoms: C_1  and  C_2
REMARK    2  A    between atoms: C_8  and  C_13
REMARK    3  A    between atoms: C_9  and  O_12
REMARK    4  A    between atoms: C_13  and  C_15
REMARK    5  A    between atoms: C_13  and  N_29
REMARK    6  A    between atoms: C_19  and  O_21
REMARK    7  A    between atoms: O_21  and  C_22
REMARK    8  A    between atoms: C_22  and  C_23
REMARK    9  A    between atoms: N_29  and  C_30
REMARK                            x       y       z     vdW  Elec       q    Type
REMARK                         _______ _______ _______ _____ _____    ______ ____
ROOT
ATOM      1  C   UNL     1       4.784   4.129  -0.021  0.00  0.00    +0.136 C 
ENDROOT
BRANCH   1   9
ATOM      2  C   UNL     1      -2.451   3.422   0.654  0.00  0.00    +0.065 C 
ATOM      3  C   UNL     1      -1.105   2.776   0.450  0.00  0.00    +0.039 A 
ATOM      4  C   UNL     1      -1.032   1.393   0.299  0.00  0.00    +0.023 A 
ATOM      5  C   UNL     1       0.180   0.790   0.119  0.00  0.00    +0.012 A 
ATOM      6  C   UNL     1       1.328   1.605   0.082  0.00  0.00    +0.004 A 
ATOM      7  C   UNL     1       2.608   1.057  -0.105  0.00  0.00    +0.010 A 
ATOM      8  C   UNL     1       3.695   1.875  -0.135  0.00  0.00    +0.010 A 
ATOM      9  C   UNL     1       3.559   3.253   0.018  0.00  0.00    +0.021 A 
ATOM     10  C   UNL     1       2.331   3.822   0.202  0.00  0.00    +0.148 A 
ATOM     11  C   UNL     1       1.181   3.005   0.238  0.00  0.00    +0.113 A 
ATOM     12  N   UNL     1      -0.034   3.531   0.416  0.00  0.00    -0.248 NA
BRANCH  10  13
ATOM     13  O   UNL     1       2.217   5.168   0.348  0.00  0.00    -0.504 OA
ATOM     14  H   UNL     1       2.274   5.470   1.265  0.00  0.00    +0.292 HD
ENDBRANCH  10  13
ENDBRANCH   1   9
BRANCH   1  15
ATOM     15  C   UNL     1       4.997   4.634  -1.424  0.00  0.00    -0.019 A 
ATOM     16  C   UNL     1       5.479   3.781  -2.400  0.00  0.00    +0.006 A 
ATOM     17  C   UNL     1       5.671   4.240  -3.690  0.00  0.00    +0.004 A 
ATOM     18  C   UNL     1       5.391   5.556  -4.004  0.00  0.00    +0.045 A 
ATOM     19  C   UNL     1       4.913   6.415  -3.026  0.00  0.00    +0.121 A 
ATOM     20  C   UNL     1       4.716   5.950  -1.734  0.00  0.00    +0.051 A 
BRANCH  19  21
ATOM     21  O   UNL     1       4.636   7.710  -3.333  0.00  0.00    -0.487 OA
BRANCH  21  22
ATOM     22  C   UNL     1       4.863   8.119  -4.684  0.00  0.00    +0.264 C 
BRANCH  22  23
ATOM     23  C   UNL     1       4.503   9.574  -4.835  0.00  0.00    -0.010 A 
ATOM     24  C   UNL     1       3.217   9.935  -5.191  0.00  0.00    +0.007 A 
ATOM     25  C   UNL     1       2.886  11.271  -5.324  0.00  0.00    +0.000 A 
ATOM     26  C   UNL     1       3.844  12.245  -5.112  0.00  0.00    +0.000 A 
ATOM     27  C   UNL     1       5.132  11.884  -4.762  0.00  0.00    +0.000 A 
ATOM     28  C   UNL     1       5.461  10.548  -4.623  0.00  0.00    +0.007 A 
ENDBRANCH  22  23
ENDBRANCH  21  22
ENDBRANCH  19  21
ENDBRANCH   1  15
BRANCH   1  29
ATOM     29  N   UNL     1       5.953   3.352   0.402  0.00  0.00    -0.320 N 
ATOM     30  H   UNL     1       6.550   2.974  -0.263  0.00  0.00    +0.148 HD
BRANCH  29  31
ATOM     31  C   UNL     1       6.206   3.157   1.754  0.00  0.00    +0.097 A 
ATOM     32  C   UNL     1       5.409   3.790   2.703  0.00  0.00    +0.041 A 
ATOM     33  C   UNL     1       5.669   3.583   4.046  0.00  0.00    +0.005 A 
ATOM     34  C   UNL     1       6.728   2.755   4.396  0.00  0.00    +0.018 A 
ATOM     35  C   UNL     1       7.481   2.164   3.402  0.00  0.00    +0.084 A 
ATOM     36  N   UNL     1       7.251   2.340   2.073  0.00  0.00    -0.350 N 
ATOM     37  H   UNL     1       7.828   1.887   1.355  0.00  0.00    +0.166 HD
ENDBRANCH  29  31
ENDBRANCH   1  29
TORSDOF 8
