REMARK  Name = ZINC21037897
REMARK  13 active torsions:
REMARK  status: ('A' for Active; 'I' for Inactive)
REMARK    1  A    between atoms: C_1  and  C_2
REMARK    2  A    between atoms: C_2  and  C_4
REMARK    3  A    between atoms: C_2  and  O_16
REMARK    4  A    between atoms: N_6  and  C_7
REMARK    5  A    between atoms: C_12  and  O_13
REMARK    6  A    between atoms: O_13  and  C_14
REMARK    7  A    between atoms: O_16  and  N_17
REMARK    8  A    between atoms: C_18  and  C_19
REMARK    9  A    between atoms: C_22  and  O_27
REMARK   10  A    between atoms: C_23  and  O_25
REMARK   11  A    between atoms: O_25  and  C_26
REMARK   12  A    between atoms: O_27  and  C_28
REMARK   13  A    between atoms: C_28  and  C_29
REMARK                            x       y       z     vdW  Elec       q    Type
REMARK                         _______ _______ _______ _____ _____    ______ ____
ROOT
ATOM      1  N   UNL     1      -5.889  -0.482   1.017  0.00  0.00    -0.092 NA
ATOM      2  C   UNL     1      -6.949   0.241   1.181  0.00  0.00    +0.161 C 
ENDROOT
BRANCH   2   3
ATOM      3  C   UNL     1      -8.128  -0.323   1.865  0.00  0.00    -0.000 A 
ATOM      4  C   UNL     1      -8.103  -1.639   2.333  0.00  0.00    +0.013 A 
ATOM      5  C   UNL     1      -9.203  -2.163   2.977  0.00  0.00    +0.050 A 
ATOM      6  C   UNL     1     -10.341  -1.389   3.154  0.00  0.00    +0.162 A 
ATOM      7  C   UNL     1     -10.376  -0.078   2.685  0.00  0.00    +0.162 A 
ATOM      8  C   UNL     1      -9.274   0.456   2.043  0.00  0.00    +0.059 A 
BRANCH   7   9
ATOM      9  O   UNL     1     -11.493   0.678   2.859  0.00  0.00    -0.491 OA
ATOM     10  C   UNL     1     -11.458   2.014   2.354  0.00  0.00    +0.277 C 
ENDBRANCH   7   9
BRANCH   6  11
ATOM     11  O   UNL     1     -11.426  -1.912   3.784  0.00  0.00    -0.484 OA
BRANCH  11  12
ATOM     12  C   UNL     1     -11.323  -3.263   4.240  0.00  0.00    +0.264 C 
BRANCH  12  13
ATOM     13  C   UNL     1     -12.611  -3.667   4.909  0.00  0.00    -0.010 A 
ATOM     14  C   UNL     1     -12.774  -3.471   6.268  0.00  0.00    +0.007 A 
ATOM     15  C   UNL     1     -13.958  -3.837   6.881  0.00  0.00    +0.000 A 
ATOM     16  C   UNL     1     -14.974  -4.408   6.138  0.00  0.00    +0.000 A 
ATOM     17  C   UNL     1     -14.808  -4.609   4.781  0.00  0.00    +0.000 A 
ATOM     18  C   UNL     1     -13.627  -4.239   4.166  0.00  0.00    +0.007 A 
ENDBRANCH  12  13
ENDBRANCH  11  12
ENDBRANCH   6  11
ENDBRANCH   2   3
BRANCH   1  19
ATOM     19  O   UNL     1      -4.757   0.059   0.360  0.00  0.00    -0.381 OA
BRANCH  19  21
ATOM     20  C   UNL     1      -3.845  -1.725  -0.991  0.00  0.00    +0.065 C 
ATOM     21  C   UNL     1      -3.659  -0.849   0.249  0.00  0.00    +0.286 C 
BRANCH  21  22
ATOM     22  C   UNL     1      -2.374  -0.071   0.127  0.00  0.00    +0.260 C 
ATOM     23  O   UNL     1      -2.397   1.142   0.134  0.00  0.00    -0.271 OA
ATOM     24  N   UNL     1      -1.201  -0.723   0.010  0.00  0.00    -0.279 N 
ATOM     25  H   UNL     1      -1.187  -1.818  -0.088  0.00  0.00    +0.155 HD
BRANCH  24  26
ATOM     26  C   UNL     1       0.003  -0.005   0.013  0.00  0.00    +0.077 A 
ATOM     27  C   UNL     1       0.070   1.238   0.626  0.00  0.00    +0.047 A 
ATOM     28  C   UNL     1       1.258   1.944   0.628  0.00  0.00    +0.043 A 
ATOM     29  C   UNL     1       2.383   1.414   0.020  0.00  0.00    +0.024 A 
ATOM     30  C   UNL     1       2.322   0.176  -0.593  0.00  0.00    +0.049 A 
ATOM     31  C   UNL     1       1.135  -0.537  -0.599  0.00  0.00    +0.141 A 
ATOM     32 CL   UNL     1       1.341   3.499   1.396  0.00  0.00    -0.083 Cl
BRANCH  31  33
ATOM     33  O   UNL     1       1.074  -1.755  -1.202  0.00  0.00    -0.493 OA
ATOM     34  C   UNL     1       2.274  -2.238  -1.810  0.00  0.00    +0.277 C 
ENDBRANCH  31  33
ENDBRANCH  24  26
ENDBRANCH  21  22
ENDBRANCH  19  21
ENDBRANCH   1  19
TORSDOF 10
