REMARK  Name = ZINC44170871
REMARK  9 active torsions:
REMARK  status: ('A' for Active; 'I' for Inactive)
REMARK    1  A    between atoms: C_1  and  C_2
REMARK    2  A    between atoms: C_2  and  C_35
REMARK    3  A    between atoms: C_5  and  C_33
REMARK    4  A    between atoms: C_5  and  C_34
REMARK    5  A    between atoms: C_10  and  C_12
REMARK    6  A    between atoms: C_18  and  C_21
REMARK    7  A    between atoms: N_23  and  C_24
REMARK    8  A    between atoms: C_24  and  C_25
REMARK    9  A    between atoms: C_25  and  C_26
REMARK                            x       y       z     vdW  Elec       q    Type
REMARK                         _______ _______ _______ _____ _____    ______ ____
ROOT
ATOM      1  C   UNL     1       2.972  -1.838   4.614  0.00  0.00    -0.027 C 
ATOM      2  C   UNL     1       3.507  -3.250   4.347  0.00  0.00    +0.092 C 
ATOM      3  S   UNL     1       4.391  -3.815   5.835  0.00  0.00    +0.020 S 
ATOM      4  O   UNL     1       5.167  -4.963   5.518  0.00  0.00    -0.257 OA
ATOM      5  C   UNL     1       5.498  -2.416   6.196  0.00  0.00    +0.097 C 
ATOM      6  C   UNL     1       4.665  -1.129   6.186  0.00  0.00    +0.029 C 
ATOM      7  N   UNL     1       4.088  -0.922   4.856  0.00  0.00    +0.392 N 
ATOM      8  H   UNL     1       4.800  -1.077   4.158  0.00  0.00    -0.084 HD
ATOM      9  H   UNL     1       3.757   0.029   4.785  0.00  0.00    -0.084 HD
ENDROOT
BRANCH   1  19
ATOM     10  C   UNL     1      -0.019   1.526   0.010  0.00  0.00    +0.016 C 
ATOM     11  C   UNL     1       0.002  -0.004   0.002  0.00  0.00    -0.010 C 
ATOM     12  C   UNL     1      -1.433  -0.527  -0.015  0.00  0.00    +0.012 C 
ATOM     13  C   UNL     1      -2.077  -0.216   1.341  0.00  0.00    +0.012 C 
ATOM     14  C   UNL     1      -1.425  -1.104   2.399  0.00  0.00    -0.010 C 
ATOM     15  C   UNL     1       0.076  -0.999   2.326  0.00  0.00    -0.038 A 
ATOM     16  C   UNL     1       0.732  -0.498   1.224  0.00  0.00    -0.038 A 
ATOM     17  C   UNL     1       2.119  -0.434   1.219  0.00  0.00    +0.004 A 
ATOM     18  C   UNL     1       2.845  -0.866   2.310  0.00  0.00    +0.002 A 
ATOM     19  C   UNL     1       2.187  -1.366   3.418  0.00  0.00    -0.060 A 
ATOM     20  C   UNL     1       0.808  -1.432   3.424  0.00  0.00    +0.006 A 
ATOM     21  C   UNL     1      -1.895  -0.664   3.787  0.00  0.00    +0.016 C 
ATOM     22  C   UNL     1      -1.841  -2.558   2.164  0.00  0.00    +0.016 C 
ATOM     23  C   UNL     1       0.731  -0.492  -1.252  0.00  0.00    +0.016 C 
ENDBRANCH   1  19
BRANCH   6  24
ATOM     24  C   UNL     1       5.547   0.041   6.536  0.00  0.00    +0.200 C 
ATOM     25  O   UNL     1       5.684   0.954   5.750  0.00  0.00    -0.278 OA
ATOM     26  N   UNL     1       6.184   0.074   7.724  0.00  0.00    -0.316 N 
ATOM     27  H   UNL     1       6.074  -0.656   8.353  0.00  0.00    +0.149 HD
BRANCH  26  28
ATOM     28  C   UNL     1       7.042   1.212   8.064  0.00  0.00    +0.109 C 
BRANCH  28  29
ATOM     29  C   UNL     1       7.640   1.001   9.456  0.00  0.00    +0.056 C 
BRANCH  29  30
ATOM     30  C   UNL     1       8.522   2.172   9.806  0.00  0.00    -0.011 A 
ATOM     31  C   UNL     1       9.882   2.108   9.567  0.00  0.00    +0.006 A 
ATOM     32  C   UNL     1      10.692   3.182   9.888  0.00  0.00    +0.000 A 
ATOM     33  C   UNL     1      10.142   4.320  10.448  0.00  0.00    +0.003 A 
ATOM     34  C   UNL     1       8.783   4.386  10.687  0.00  0.00    +0.038 A 
ATOM     35  C   UNL     1       7.970   3.314  10.361  0.00  0.00    +0.127 A 
ATOM     36  F   UNL     1       6.640   3.379  10.590  0.00  0.00    -0.205 F 
ENDBRANCH  29  30
ENDBRANCH  28  29
ENDBRANCH  26  28
ENDBRANCH   6  24
TORSDOF 5
