REMARK  Name = ZINC39954930
REMARK  8 active torsions:
REMARK  status: ('A' for Active; 'I' for Inactive)
REMARK    1  A    between atoms: C_1  and  C_2
REMARK    2  A    between atoms: C_2  and  C_3
REMARK    3  A    between atoms: C_2  and  C_4
REMARK    4  A    between atoms: C_4  and  C_5
REMARK    5  A    between atoms: C_7  and  C_11
REMARK    6  A    between atoms: C_19  and  C_21
REMARK    7  A    between atoms: C_25  and  O_27
REMARK    8  A    between atoms: O_27  and  C_28
REMARK                            x       y       z     vdW  Elec       q    Type
REMARK                         _______ _______ _______ _____ _____    ______ ____
ROOT
ATOM      1  C   UNL     1      -2.690  -5.047   0.564  0.00  0.00    +0.206 C 
ATOM      2  N   UNL     1      -2.859  -5.185   2.030  0.00  0.00    -0.231 NA
ATOM      3  N   UNL     1      -2.727  -6.620   2.335  0.00  0.00    -0.224 NA
ATOM      4  C   UNL     1      -1.923  -7.126   1.204  0.00  0.00    +0.240 C 
ATOM      5  N   UNL     1      -2.573  -6.429   0.044  0.00  0.00    -0.206 N 
ATOM      6  N   UNL     1      -2.894  -7.270  -0.999  0.00  0.00    -0.173 NA
ATOM      7  C   UNL     1      -2.937  -8.565  -0.876  0.00  0.00    +0.125 C 
ATOM      8  S   UNL     1      -2.332  -8.868   0.815  0.00  0.00    -0.063 S 
ATOM      9  H   UNL     1      -3.758  -4.834   2.325  0.00  0.00    +0.143 HD
ATOM     10  H   UNL     1      -3.630  -7.068   2.365  0.00  0.00    +0.144 HD
ENDROOT
BRANCH   7  11
ATOM     11  C   UNL     1      -3.365  -9.562  -1.880  0.00  0.00    +0.012 A 
ATOM     12  C   UNL     1      -3.351 -10.922  -1.567  0.00  0.00    +0.011 A 
ATOM     13  C   UNL     1      -3.751 -11.850  -2.506  0.00  0.00    +0.004 A 
ATOM     14  C   UNL     1      -4.168 -11.437  -3.759  0.00  0.00    +0.045 A 
ATOM     15  C   UNL     1      -4.185 -10.086  -4.079  0.00  0.00    +0.121 A 
ATOM     16  C   UNL     1      -3.792  -9.146  -3.141  0.00  0.00    +0.056 A 
BRANCH  15  17
ATOM     17  O   UNL     1      -4.595  -9.686  -5.311  0.00  0.00    -0.495 OA
ATOM     18  C   UNL     1      -4.994 -10.709  -6.227  0.00  0.00    +0.277 C 
ENDBRANCH  15  17
ENDBRANCH   7  11
BRANCH   1  21
ATOM     19  C   UNL     1      -1.416  -2.035  -0.119  0.00  0.00    +0.062 C 
ATOM     20  C   UNL     1      -1.465  -2.886   0.907  0.00  0.00    +0.029 C 
ATOM     21  C   UNL     1      -1.420  -4.254   0.250  0.00  0.00    +0.190 C 
ATOM     22  N   UNL     1      -1.346  -3.930  -1.185  0.00  0.00    -0.177 NA
ATOM     23  N   UNL     1      -1.355  -2.701  -1.293  0.00  0.00    -0.159 NA
BRANCH  19  24
ATOM     24  C   UNL     1      -1.433  -0.534   0.013  0.00  0.00    +0.060 C 
BRANCH  24  26
ATOM     25  C   UNL     1      -0.019   1.526   0.010  0.00  0.00    +0.007 C 
ATOM     26  C   UNL     1       0.002  -0.004   0.002  0.00  0.00    -0.011 C 
ATOM     27  C   UNL     1       0.742  -0.511   1.242  0.00  0.00    +0.007 C 
ENDBRANCH  24  26
ENDBRANCH  19  24
ENDBRANCH   1  21
TORSDOF 5
