REMARK  Name = ZINC28528702
REMARK  7 active torsions:
REMARK  status: ('A' for Active; 'I' for Inactive)
REMARK    1  A    between atoms: C_1  and  C_2
REMARK    2  A    between atoms: C_6  and  N_8
REMARK    3  A    between atoms: N_8  and  C_9
REMARK    4  A    between atoms: C_9  and  C_10
REMARK    5  A    between atoms: C_10  and  C_11
REMARK    6  A    between atoms: C_19  and  C_21
REMARK    7  A    between atoms: C_21  and  C_22
REMARK                            x       y       z     vdW  Elec       q    Type
REMARK                         _______ _______ _______ _____ _____    ______ ____
ROOT
ATOM      1  C   UNL     1      -0.013   1.086   0.008  0.00  0.00    +0.066 C 
ATOM      2  C   UNL     1      -0.718   1.572   1.248  0.00  0.00    +0.044 A 
ATOM      3  C   UNL     1      -2.079   1.784   1.210  0.00  0.00    +0.071 A 
ATOM      4  C   UNL     1      -2.724   2.228   2.360  0.00  0.00    +0.160 A 
ATOM      5  C   UNL     1      -1.959   2.453   3.515  0.00  0.00    +0.149 A 
ATOM      6  C   UNL     1      -0.578   2.218   3.467  0.00  0.00    +0.148 A 
ATOM      7  N   UNL     1      -0.017   1.791   2.348  0.00  0.00    -0.235 NA
ATOM      8  N   UNL     1      -2.823   2.880   4.473  0.00  0.00    -0.210 NA
ATOM      9  C   UNL     1      -4.020   2.919   3.969  0.00  0.00    +0.201 A 
ATOM     10  O   UNL     1      -3.997   2.528   2.684  0.00  0.00    -0.439 OA
ENDROOT
BRANCH   6  11
ATOM     11  N   UNL     1       0.202   2.434   4.596  0.00  0.00    -0.327 N 
ATOM     12  H   UNL     1      -0.265   2.789   5.527  0.00  0.00    +0.148 HD
BRANCH  11  13
ATOM     13  C   UNL     1       1.645   2.188   4.547  0.00  0.00    +0.101 C 
BRANCH  13  14
ATOM     14  C   UNL     1       2.262   2.501   5.912  0.00  0.00    +0.003 C 
BRANCH  14  15
ATOM     15  C   UNL     1       3.770   2.244   5.860  0.00  0.00    -0.070 C 
ATOM     16  C   UNL     1       4.367   2.436   7.256  0.00  0.00    -0.016 C 
ATOM     17  C   UNL     1       5.879   2.198   7.196  0.00  0.00    -0.003 C 
ATOM     18  C   UNL     1       6.499   3.160   6.179  0.00  0.00    -0.019 C 
ATOM     19  C   UNL     1       5.840   2.947   4.814  0.00  0.00    -0.082 C 
ATOM     20  N   UNL     1       4.395   3.187   4.924  0.00  0.00    +0.381 N 
ATOM     21  H   UNL     1       3.943   3.070   3.929  0.00  0.00    -0.086 HD
ATOM     22  H   UNL     1       4.237   4.216   5.280  0.00  0.00    -0.086 HD
ENDBRANCH  14  15
ENDBRANCH  13  14
ENDBRANCH  11  13
ENDBRANCH   6  11
BRANCH   9  23
ATOM     23  C   UNL     1      -5.257   3.342   4.719  0.00  0.00    +0.131 C 
BRANCH  23  24
ATOM     24  C   UNL     1      -5.454   4.828   4.564  0.00  0.00    -0.037 A 
ATOM     25  C   UNL     1      -4.890   5.699   5.478  0.00  0.00    +0.004 A 
ATOM     26  C   UNL     1      -5.066   7.062   5.334  0.00  0.00    +0.002 A 
ATOM     27  C   UNL     1      -5.816   7.556   4.283  0.00  0.00    +0.020 A 
ATOM     28  C   UNL     1      -6.385   6.684   3.371  0.00  0.00    +0.041 A 
ATOM     29  C   UNL     1      -6.204   5.320   3.513  0.00  0.00    +0.024 A 
ATOM     30 CL   UNL     1      -7.327   7.303   2.050  0.00  0.00    -0.084 Cl
ENDBRANCH  23  24
ENDBRANCH   9  23
TORSDOF 6
