REMARK  Name = ZINC20788093
REMARK  8 active torsions:
REMARK  status: ('A' for Active; 'I' for Inactive)
REMARK    1  A    between atoms: C_1  and  O_2
REMARK    2  A    between atoms: O_2  and  C_3
REMARK    3  A    between atoms: C_7  and  N_9
REMARK    4  A    between atoms: C_18  and  S_19
REMARK    5  A    between atoms: S_19  and  C_20
REMARK    6  A    between atoms: C_20  and  C_21
REMARK    7  A    between atoms: N_23  and  C_24
REMARK    8  A    between atoms: C_24  and  C_25
REMARK                            x       y       z     vdW  Elec       q    Type
REMARK                         _______ _______ _______ _____ _____    ______ ____
ROOT
ATOM      1  N   UNL     1       1.891   1.744   4.013  0.00  0.00    -0.255 N 
ATOM      2  C   UNL     1       1.247   0.943   3.144  0.00  0.00    +0.268 A 
ATOM      3  O   UNL     1       1.839   0.040   2.580  0.00  0.00    -0.267 OA
ATOM      4  C   UNL     1      -0.144   1.168   2.893  0.00  0.00    +0.076 A 
ATOM      5  C   UNL     1      -1.035   0.420   1.993  0.00  0.00    -0.023 A 
ATOM      6  C   UNL     1      -2.311   0.841   1.920  0.00  0.00    -0.004 A 
ATOM      7  S   UNL     1      -2.415   2.213   3.040  0.00  0.00    -0.073 S 
ATOM      8  C   UNL     1      -0.729   2.233   3.594  0.00  0.00    +0.117 A 
ATOM      9  N   UNL     1      -0.038   2.988   4.441  0.00  0.00    -0.215 NA
ATOM     10  C   UNL     1       1.242   2.761   4.656  0.00  0.00    +0.178 A 
ATOM     11  C   UNL     1      -3.413   0.280   1.076  0.00  0.00    +0.043 C 
ATOM     12  C   UNL     1      -3.459  -1.244   1.248  0.00  0.00    +0.005 C 
ATOM     13  C   UNL     1      -2.542  -1.872   0.203  0.00  0.00    +0.001 C 
ATOM     14  C   UNL     1      -1.353  -0.953  -0.069  0.00  0.00    +0.005 C 
ATOM     15  C   UNL     1      -0.519  -0.773   1.193  0.00  0.00    +0.037 C 
ENDROOT
BRANCH   1  20
ATOM     16  C   UNL     1       4.996   0.470   5.526  0.00  0.00    +0.122 A 
ATOM     17  C   UNL     1       5.949   1.117   4.751  0.00  0.00    +0.046 A 
ATOM     18  C   UNL     1       5.554   1.968   3.736  0.00  0.00    +0.006 A 
ATOM     19  C   UNL     1       4.211   2.173   3.486  0.00  0.00    +0.026 A 
ATOM     20  C   UNL     1       3.254   1.532   4.262  0.00  0.00    +0.055 A 
ATOM     21  C   UNL     1       3.648   0.678   5.282  0.00  0.00    +0.072 A 
BRANCH  16  23
ATOM     22  C   UNL     1       6.792  -0.533   6.719  0.00  0.00    +0.277 C 
ATOM     23  O   UNL     1       5.386  -0.367   6.524  0.00  0.00    -0.495 OA
ENDBRANCH  16  23
ENDBRANCH   1  20
BRANCH  10  24
ATOM     24  S   UNL     1       2.128   3.781   5.786  0.00  0.00    -0.078 S 
BRANCH  24  25
ATOM     25  C   UNL     1       0.804   4.902   6.303  0.00  0.00    +0.173 C 
BRANCH  25  26
ATOM     26  C   UNL     1       1.345   5.893   7.301  0.00  0.00    +0.224 C 
ATOM     27  O   UNL     1       2.512   5.847   7.629  0.00  0.00    -0.275 OA
ATOM     28  N   UNL     1       0.533   6.831   7.827  0.00  0.00    -0.308 N 
ATOM     29  H   UNL     1      -0.524   6.873   7.529  0.00  0.00    +0.149 HD
BRANCH  28  30
ATOM     30  C   UNL     1       1.060   7.795   8.797  0.00  0.00    +0.178 C 
BRANCH  30  31
ATOM     31  C   UNL     1      -0.043   8.728   9.227  0.00  0.00    +0.122 A 
ATOM     32  C   UNL     1      -0.875   8.535  10.266  0.00  0.00    +0.046 A 
ATOM     33  C   UNL     1      -1.745   9.649  10.306  0.00  0.00    +0.041 A 
ATOM     34  C   UNL     1      -1.393  10.455   9.288  0.00  0.00    +0.195 A 
ATOM     35  O   UNL     1      -0.357   9.895   8.642  0.00  0.00    -0.466 OA
ENDBRANCH  30  31
ENDBRANCH  28  30
ENDBRANCH  25  26
ENDBRANCH  24  25
ENDBRANCH  10  24
TORSDOF 7
