REMARK  Name = ZINC26665724
REMARK  8 active torsions:
REMARK  status: ('A' for Active; 'I' for Inactive)
REMARK    1  A    between atoms: C_1  and  C_2
REMARK    2  A    between atoms: C_2  and  C_3
REMARK    3  A    between atoms: C_3  and  C_4
REMARK    4  A    between atoms: C_5  and  O_6
REMARK    5  A    between atoms: C_10  and  C_12
REMARK    6  A    between atoms: C_12  and  C_13
REMARK    7  A    between atoms: C_13  and  N_14
REMARK    8  A    between atoms: N_22  and  C_25
REMARK                            x       y       z     vdW  Elec       q    Type
REMARK                         _______ _______ _______ _____ _____    ______ ____
ROOT
ATOM      1  C   UNL     1       2.958   3.916   0.001  0.00  0.00    +0.061 A 
ATOM      2  C   UNL     1       1.458   4.131  -0.032  0.00  0.00    +0.152 A 
ATOM      3  C   UNL     1       0.630   2.982  -0.016  0.00  0.00    +0.126 A 
ATOM      4  C   UNL     1       1.182   1.711   0.026  0.00  0.00    +0.165 A 
ATOM      5  N   UNL     1       0.130   0.840   0.031  0.00  0.00    -0.215 NA
ATOM      6  C   UNL     1      -1.018   1.574  -0.015  0.00  0.00    +0.112 A 
ATOM      7  N   UNL     1      -0.724   2.839  -0.036  0.00  0.00    -0.338 N 
ATOM      8  N   UNL     1       2.540   1.488   0.056  0.00  0.00    -0.294 N 
ATOM      9  C   UNL     1       3.444   2.483   0.047  0.00  0.00    +0.259 A 
ATOM     10  O   UNL     1       4.631   2.236   0.075  0.00  0.00    -0.267 OA
ATOM     11  C   UNL     1       3.021   0.105   0.101  0.00  0.00    +0.154 C 
ATOM     12  H   UNL     1      -1.370   3.729  -0.067  0.00  0.00    +0.167 HD
ENDROOT
BRANCH   2  13
ATOM     13  O   UNL     1       0.983   5.248  -0.069  0.00  0.00    -0.504 OA
ATOM     14  H   UNL     1      -0.108   5.381  -0.093  0.00  0.00    +0.292 HD
ENDBRANCH   2  13
BRANCH   1  15
ATOM     15  C   UNL     1       3.557   4.577  -1.241  0.00  0.00    +0.044 C 
BRANCH  15  17
ATOM     16  C   UNL     1       5.658   5.470  -2.258  0.00  0.00    +0.004 C 
ATOM     17  C   UNL     1       5.075   4.687  -1.080  0.00  0.00    +0.002 C 
ENDBRANCH  15  17
ENDBRANCH   1  15
BRANCH   6  18
ATOM     18  C   UNL     1      -2.413   1.005  -0.033  0.00  0.00    +0.095 C 
BRANCH  18  19
ATOM     19  C   UNL     1      -3.225   1.609   1.115  0.00  0.00    +0.142 C 
BRANCH  19  20
ATOM     20  N   UNL     1      -4.581   1.056   1.098  0.00  0.00    -0.192 N 
ATOM     21  C   UNL     1      -4.856  -0.067   1.791  0.00  0.00    +0.235 C 
ATOM     22  O   UNL     1      -3.983  -0.625   2.421  0.00  0.00    -0.274 OA
ATOM     23  C   UNL     1      -6.257  -0.625   1.777  0.00  0.00    +0.105 C 
ATOM     24  C   UNL     1      -7.255   0.531   1.677  0.00  0.00    +0.079 C 
ATOM     25  C   UNL     1      -6.819   1.482   0.595  0.00  0.00    +0.125 C 
ATOM     26  N   UNL     1      -5.585   1.699   0.367  0.00  0.00    -0.170 NA
ATOM     27 CL   UNL     1      -8.020   2.304  -0.353  0.00  0.00    -0.065 Cl
ENDBRANCH  19  20
ENDBRANCH  18  19
ENDBRANCH   6  18
TORSDOF 6
