REMARK  Name = ZINC11881305
REMARK  10 active torsions:
REMARK  status: ('A' for Active; 'I' for Inactive)
REMARK    1  A    between atoms: C_1  and  C_2
REMARK    2  A    between atoms: C_2  and  C_3
REMARK    3  A    between atoms: N_5  and  C_6
REMARK    4  A    between atoms: C_10  and  C_19
REMARK    5  A    between atoms: C_14  and  C_15
REMARK    6  A    between atoms: C_15  and  O_17
REMARK    7  A    between atoms: O_17  and  C_18
REMARK    8  A    between atoms: C_19  and  N_59
REMARK    9  A    between atoms: C_22  and  C_25
REMARK   10  A    between atoms: C_22  and  O_32
REMARK                            x       y       z     vdW  Elec       q    Type
REMARK                         _______ _______ _______ _____ _____    ______ ____
ROOT
ATOM      1  C   UNL     1      -2.355  -2.861   0.098  0.00  0.00    +0.064 A 
ATOM      2  C   UNL     1      -2.013  -4.124   0.731  0.00  0.00    +0.030 A 
ATOM      3  C   UNL     1      -2.830  -4.963   1.530  0.00  0.00    +0.014 A 
ATOM      4  C   UNL     1      -2.298  -6.126   2.034  0.00  0.00    +0.022 A 
ATOM      5  C   UNL     1      -0.982  -6.471   1.764  0.00  0.00    +0.026 A 
ATOM      6  N   UNL     1      -0.225  -5.688   1.021  0.00  0.00    -0.246 NA
ATOM      7  C   UNL     1      -0.688  -4.564   0.515  0.00  0.00    +0.111 A 
ATOM      8  S   UNL     1       0.022  -3.299  -0.508  0.00  0.00    -0.060 S 
ATOM      9  C   UNL     1      -1.387  -2.215  -0.639  0.00  0.00    +0.120 A 
ENDROOT
BRANCH   1  12
ATOM     10  C   UNL     1      -4.714  -3.109   0.127  0.00  0.00    +0.217 C 
ATOM     11  O   UNL     1      -4.580  -4.309   0.011  0.00  0.00    -0.275 OA
ATOM     12  N   UNL     1      -3.628  -2.317   0.233  0.00  0.00    -0.284 N 
ATOM     13  H   UNL     1      -3.735  -1.368   0.403  0.00  0.00    +0.155 HD
BRANCH  10  15
ATOM     14  C   UNL     1      -7.140  -3.612   0.019  0.00  0.00    +0.013 C 
ATOM     15  C   UNL     1      -6.094  -2.503   0.155  0.00  0.00    +0.093 C 
ENDBRANCH  10  15
ENDBRANCH   1  12
BRANCH   9  16
ATOM     16  C   UNL     1      -1.488  -0.987  -1.339  0.00  0.00    +0.348 C 
ATOM     17  O   UNL     1      -2.560  -0.416  -1.414  0.00  0.00    -0.244 OA
BRANCH  16  18
ATOM     18  O   UNL     1      -0.396  -0.450  -1.923  0.00  0.00    -0.464 OA
ATOM     19  C   UNL     1      -0.571   0.790  -2.611  0.00  0.00    +0.280 C 
ENDBRANCH  16  18
ENDBRANCH   9  16
BRANCH   5  20
ATOM     20  C   UNL     1      -0.413  -7.749   2.324  0.00  0.00    -0.022 C 
BRANCH  20  26
ATOM     21  C   UNL     1      -1.939  -9.141   1.062  0.00  0.00    -0.075 C 
ATOM     22  C   UNL     1      -2.028 -10.150  -0.086  0.00  0.00    +0.021 C 
ATOM     23  C   UNL     1      -1.256 -11.416   0.294  0.00  0.00    +0.088 C 
ATOM     24  C   UNL     1       0.196 -11.045   0.608  0.00  0.00    +0.021 C 
ATOM     25  C   UNL     1       0.220 -10.010   1.735  0.00  0.00    -0.075 C 
ATOM     26  N   UNL     1      -0.518  -8.807   1.298  0.00  0.00    +0.384 N 
ATOM     27  H   UNL     1      -0.107  -8.464   0.422  0.00  0.00    -0.081 HD
BRANCH  23  28
ATOM     28  C   UNL     1      -1.289 -12.391  -0.855  0.00  0.00    -0.016 A 
ATOM     29  C   UNL     1      -0.306 -12.350  -1.825  0.00  0.00    +0.008 A 
ATOM     30  C   UNL     1      -0.333 -13.247  -2.876  0.00  0.00    +0.020 A 
ATOM     31  C   UNL     1      -1.351 -14.180  -2.962  0.00  0.00    +0.041 A 
ATOM     32  C   UNL     1      -2.338 -14.218  -1.994  0.00  0.00    +0.020 A 
ATOM     33  C   UNL     1      -2.307 -13.323  -0.941  0.00  0.00    +0.008 A 
ATOM     34 CL   UNL     1      -1.389 -15.304  -4.285  0.00  0.00    -0.084 Cl
ENDBRANCH  23  28
BRANCH  23  35
ATOM     35  O   UNL     1      -1.856 -12.014   1.445  0.00  0.00    -0.384 OA
ATOM     36  H   UNL     1      -2.778 -12.275   1.317  0.00  0.00    +0.211 HD
ENDBRANCH  23  35
ENDBRANCH  20  26
ENDBRANCH   5  20
TORSDOF 8
