REMARK  Name = ZINC01060177
REMARK  11 active torsions:
REMARK  status: ('A' for Active; 'I' for Inactive)
REMARK    1  A    between atoms: C_1  and  C_2
REMARK    2  A    between atoms: C_2  and  C_3
REMARK    3  A    between atoms: C_3  and  C_5
REMARK    4  A    between atoms: C_3  and  O_6
REMARK    5  A    between atoms: O_6  and  C_7
REMARK    6  A    between atoms: C_7  and  C_9
REMARK    7  A    between atoms: C_10  and  C_27
REMARK    8  A    between atoms: C_15  and  C_17
REMARK    9  A    between atoms: C_19  and  O_25
REMARK   10  A    between atoms: C_20  and  O_24
REMARK   11  A    between atoms: O_25  and  C_26
REMARK                            x       y       z     vdW  Elec       q    Type
REMARK                         _______ _______ _______ _____ _____    ______ ____
ROOT
ATOM      1  C   UNL     1       3.738   1.257   0.536  0.00  0.00    +0.078 C 
ATOM      2  C   UNL     1       4.539   0.895   1.562  0.00  0.00    +0.021 C 
ATOM      3  N   UNL     1       5.854   1.261   1.591  0.00  0.00    -0.273 N 
ATOM      4  C   UNL     1       6.444   1.989   0.635  0.00  0.00    +0.304 C 
ATOM      5  O   UNL     1       7.622   2.266   0.749  0.00  0.00    -0.252 OA
ATOM      6  N   UNL     1       5.774   2.425  -0.450  0.00  0.00    -0.288 N 
ATOM      7  C   UNL     1       4.349   2.078  -0.581  0.00  0.00    +0.144 C 
ATOM      8  C   UNL     1       3.972   0.074   2.691  0.00  0.00    +0.061 C 
ATOM      9  H   UNL     1       6.391   0.977   2.348  0.00  0.00    +0.156 HD
ATOM     10  H   UNL     1       6.221   2.952  -1.131  0.00  0.00    +0.151 HD
ENDROOT
BRANCH   7  11
ATOM     11  C   UNL     1       3.571   3.363  -0.693  0.00  0.00    -0.018 A 
ATOM     12  C   UNL     1       3.826   4.402   0.183  0.00  0.00    +0.055 A 
ATOM     13  C   UNL     1       3.116   5.587   0.079  0.00  0.00    +0.163 A 
ATOM     14  C   UNL     1       2.138   5.725  -0.902  0.00  0.00    +0.173 A 
ATOM     15  C   UNL     1       1.883   4.678  -1.774  0.00  0.00    +0.063 A 
ATOM     16  C   UNL     1       2.600   3.499  -1.667  0.00  0.00    +0.025 A 
ATOM     17 BR   UNL     1       0.555   4.859  -3.107  0.00  0.00    -0.046 Br
BRANCH  14  18
ATOM     18  O   UNL     1       1.434   6.884  -1.005  0.00  0.00    -0.503 OA
ATOM     19  H   UNL     1       0.625   6.901  -0.475  0.00  0.00    +0.292 HD
ENDBRANCH  14  18
BRANCH  13  20
ATOM     20  O   UNL     1       3.370   6.612   0.936  0.00  0.00    -0.491 OA
ATOM     21  C   UNL     1       4.457   6.441   1.847  0.00  0.00    +0.277 C 
ENDBRANCH  13  20
ENDBRANCH   7  11
BRANCH   1  22
ATOM     22  C   UNL     1       2.375   0.878   0.504  0.00  0.00    +0.339 C 
ATOM     23  O   UNL     1       1.930   0.134   1.358  0.00  0.00    -0.245 OA
BRANCH  22  24
ATOM     24  O   UNL     1       1.569   1.341  -0.474  0.00  0.00    -0.458 OA
BRANCH  24  25
ATOM     25  C   UNL     1       0.182   1.009  -0.384  0.00  0.00    +0.173 C 
ATOM     26  C   UNL     1      -0.529   2.026   0.511  0.00  0.00    +0.052 C 
BRANCH  25  28
ATOM     27  C   UNL     1       0.262   0.009  -2.672  0.00  0.00    +0.007 C 
ATOM     28  C   UNL     1      -0.441   1.035  -1.781  0.00  0.00    +0.041 C 
ENDBRANCH  25  28
ENDBRANCH  24  25
ENDBRANCH  22  24
ENDBRANCH   1  22
TORSDOF 7
