REMARK  Name = ZINC36051307
REMARK  9 active torsions:
REMARK  status: ('A' for Active; 'I' for Inactive)
REMARK    1  A    between atoms: C_1  and  C_2
REMARK    2  A    between atoms: C_2  and  N_3
REMARK    3  A    between atoms: N_3  and  C_4
REMARK    4  A    between atoms: C_4  and  C_5
REMARK    5  A    between atoms: C_10  and  C_20
REMARK    6  A    between atoms: N_12  and  C_13
REMARK    7  A    between atoms: C_16  and  C_19
REMARK    8  A    between atoms: C_23  and  C_26
REMARK    9  A    between atoms: C_27  and  C_29
REMARK                            x       y       z     vdW  Elec       q    Type
REMARK                         _______ _______ _______ _____ _____    ______ ____
ROOT
ATOM      1  C   UNL     1      -1.691  -3.134  -0.888  0.00  0.00    +0.237 C 
ATOM      2  O   UNL     1      -1.160  -3.606   0.095  0.00  0.00    -0.274 OA
ATOM      3  N   UNL     1      -2.167  -3.947  -1.852  0.00  0.00    -0.254 N 
ATOM      4  C   UNL     1      -2.051  -5.324  -1.719  0.00  0.00    +0.207 A 
ATOM      5  N   UNL     1      -1.505  -5.950  -0.705  0.00  0.00    -0.214 NA
ATOM      6  C   UNL     1      -1.569  -7.282  -0.917  0.00  0.00    +0.091 A 
ATOM      7  C   UNL     1      -2.180  -7.488  -2.112  0.00  0.00    +0.122 A 
ATOM      8  N   UNL     1      -2.490  -6.250  -2.619  0.00  0.00    -0.287 N 
ATOM      9  H   UNL     1      -2.592  -3.570  -2.638  0.00  0.00    +0.158 HD
ENDROOT
BRANCH   8  10
ATOM     10  C   UNL     1      -3.136  -5.987  -3.835  0.00  0.00    +0.049 A 
ATOM     11  C   UNL     1      -4.220  -5.121  -3.873  0.00  0.00    +0.026 A 
ATOM     12  C   UNL     1      -4.854  -4.863  -5.074  0.00  0.00    +0.005 A 
ATOM     13  C   UNL     1      -4.409  -5.466  -6.235  0.00  0.00    -0.050 A 
ATOM     14  C   UNL     1      -3.329  -6.329  -6.200  0.00  0.00    +0.005 A 
ATOM     15  C   UNL     1      -2.688  -6.587  -5.004  0.00  0.00    +0.026 A 
ATOM     16  C   UNL     1      -5.103  -5.184  -7.543  0.00  0.00    +0.044 C 
ENDBRANCH   8  10
BRANCH   6  17
ATOM     17  C   UNL     1      -1.061  -8.335  -0.005  0.00  0.00    +0.002 A 
ATOM     18  C   UNL     1      -1.186  -9.680  -0.350  0.00  0.00    +0.010 A 
ATOM     19  C   UNL     1      -0.711 -10.655   0.502  0.00  0.00    +0.004 A 
ATOM     20  C   UNL     1      -0.112 -10.301   1.698  0.00  0.00    -0.050 A 
ATOM     21  C   UNL     1       0.014  -8.968   2.046  0.00  0.00    +0.004 A 
ATOM     22  C   UNL     1      -0.451  -7.984   1.198  0.00  0.00    +0.010 A 
ATOM     23  C   UNL     1       0.404 -11.371   2.625  0.00  0.00    +0.044 C 
ENDBRANCH   6  17
BRANCH   1  24
ATOM     24  C   UNL     1      -1.817  -1.639  -1.033  0.00  0.00    +0.203 C 
BRANCH  24  25
ATOM     25  N   UNL     1      -1.227  -0.984   0.137  0.00  0.00    -0.293 N 
ATOM     26  C   UNL     1      -2.001  -0.667   1.194  0.00  0.00    +0.219 C 
ATOM     27  O   UNL     1      -1.535  -0.038   2.120  0.00  0.00    -0.275 OA
BRANCH  26  28
ATOM     28  C   UNL     1      -3.446  -1.094   1.225  0.00  0.00    +0.075 C 
ATOM     29  C   UNL     1      -4.343   0.037   0.683  0.00  0.00    +0.013 C 
ATOM     30  C   UNL     1      -5.614  -0.030   1.567  0.00  0.00    +0.001 C 
ATOM     31  C   UNL     1      -5.040  -0.365   2.966  0.00  0.00    +0.001 C 
ATOM     32  C   UNL     1      -3.889  -1.350   2.676  0.00  0.00    +0.013 C 
ENDBRANCH  26  28
BRANCH  25  34
ATOM     33  C   UNL     1       0.430   0.730  -0.409  0.00  0.00    +0.024 C 
ATOM     34  C   UNL     1       0.204  -0.673   0.158  0.00  0.00    +0.105 C 
ENDBRANCH  25  34
ENDBRANCH  24  25
ENDBRANCH   1  24
TORSDOF 6
