REMARK  Name = ZINC37365189
REMARK  4 active torsions:
REMARK  status: ('A' for Active; 'I' for Inactive)
REMARK    1  A    between atoms: C_1  and  C_2
REMARK    2  A    between atoms: C_5  and  C_8
REMARK    3  A    between atoms: C_8  and  C_10
REMARK    4  A    between atoms: C_19  and  C_22
REMARK                            x       y       z     vdW  Elec       q    Type
REMARK                         _______ _______ _______ _____ _____    ______ ____
ROOT
ATOM      1  C   UNL     1       0.172  -5.042   1.218  0.00  0.00    +0.024 A 
ATOM      2  C   UNL     1       0.158  -4.401   2.462  0.00  0.00    +0.015 A 
ATOM      3  C   UNL     1       0.262  -5.139   3.620  0.00  0.00    +0.048 A 
ATOM      4  C   UNL     1       0.381  -6.520   3.557  0.00  0.00    +0.143 A 
ATOM      5  C   UNL     1       0.396  -7.167   2.319  0.00  0.00    +0.076 A 
ATOM      6  C   UNL     1       0.286  -6.434   1.154  0.00  0.00    +0.038 A 
ATOM      7  N   UNL     1       0.518  -8.563   2.276  0.00  0.00    -0.280 N 
ATOM      8  C   UNL     1       0.302  -9.274   3.405  0.00  0.00    +0.258 C 
ATOM      9  O   UNL     1       0.431 -10.480   3.399  0.00  0.00    -0.271 OA
ATOM     10  C   UNL     1      -0.100  -8.561   4.670  0.00  0.00    +0.256 C 
ATOM     11  O   UNL     1       0.483  -7.256   4.694  0.00  0.00    -0.478 OA
ATOM     12  C   UNL     1      -1.624  -8.438   4.723  0.00  0.00    +0.062 C 
ATOM     13  H   UNL     1       0.754  -9.012   1.449  0.00  0.00    +0.155 HD
ENDROOT
BRANCH   1  14
ATOM     14  C   UNL     1       0.060  -4.251  -0.021  0.00  0.00    +0.193 C 
ATOM     15  O   UNL     1      -0.528  -4.708  -0.983  0.00  0.00    -0.287 OA
BRANCH  14  20
ATOM     16  C   UNL     1       2.402   0.997  -0.308  0.00  0.00    +0.044 C 
ATOM     17  C   UNL     1       1.788  -0.377  -0.233  0.00  0.00    -0.050 A 
ATOM     18  C   UNL     1       0.990  -0.832  -1.267  0.00  0.00    +0.004 A 
ATOM     19  C   UNL     1       0.425  -2.089  -1.205  0.00  0.00    +0.012 A 
ATOM     20  C   UNL     1       0.661  -2.903  -0.095  0.00  0.00    +0.022 A 
ATOM     21  C   UNL     1       1.469  -2.438   0.945  0.00  0.00    +0.012 A 
ATOM     22  C   UNL     1       2.031  -1.180   0.867  0.00  0.00    +0.004 A 
ENDBRANCH  14  20
ENDBRANCH   1  14
TORSDOF 2
