REMARK  Name = ZINC39940568
REMARK  10 active torsions:
REMARK  status: ('A' for Active; 'I' for Inactive)
REMARK    1  A    between atoms: C_1  and  C_2
REMARK    2  A    between atoms: C_2  and  C_3
REMARK    3  A    between atoms: C_2  and  C_4
REMARK    4  A    between atoms: C_2  and  O_5
REMARK    5  A    between atoms: O_5  and  C_6
REMARK    6  A    between atoms: C_15  and  C_27
REMARK    7  A    between atoms: C_17  and  C_23
REMARK    8  A    between atoms: C_17  and  C_25
REMARK    9  A    between atoms: C_18  and  N_22
REMARK   10  A    between atoms: C_19  and  C_20
REMARK                            x       y       z     vdW  Elec       q    Type
REMARK                         _______ _______ _______ _____ _____    ______ ____
ROOT
ATOM      1  C   UNL     1       2.340   0.470  -0.745  0.00  0.00    +0.404 C 
ATOM      2  O   UNL     1       3.058   0.945   0.113  0.00  0.00    -0.226 OA
ATOM      3  N   UNL     1       2.857   0.121  -1.940  0.00  0.00    -0.263 N 
ATOM      4  C   UNL     1       2.013  -0.453  -3.004  0.00  0.00    +0.138 C 
ATOM      5  C   UNL     1       2.622  -1.778  -3.384  0.00  0.00    -0.003 C 
ATOM      6  C   UNL     1       3.914  -2.001  -3.245  0.00  0.00    -0.026 C 
ATOM      7  C   UNL     1       4.899  -0.986  -2.745  0.00  0.00    +0.048 C 
ATOM      8  C   UNL     1       4.281   0.302  -2.238  0.00  0.00    +0.120 C 
ATOM      9  C   UNL     1       5.787  -1.655  -1.694  0.00  0.00    +0.069 C 
ATOM     10  C   UNL     1       6.582  -2.777  -2.362  0.00  0.00    +0.188 C 
ATOM     11  C   UNL     1       5.696  -3.687  -3.159  0.00  0.00    +0.054 C 
ATOM     12  C   UNL     1       4.457  -3.342  -3.590  0.00  0.00    +0.074 C 
ENDROOT
BRANCH   9  13
ATOM     13  C   UNL     1       4.927  -2.226  -0.596  0.00  0.00    -0.022 A 
ATOM     14  C   UNL     1       4.110  -3.312  -0.852  0.00  0.00    +0.005 A 
ATOM     15  C   UNL     1       3.322  -3.836   0.155  0.00  0.00    +0.000 A 
ATOM     16  C   UNL     1       3.349  -3.275   1.418  0.00  0.00    +0.001 A 
ATOM     17  C   UNL     1       4.165  -2.190   1.675  0.00  0.00    +0.020 A 
ATOM     18  C   UNL     1       4.959  -1.668   0.669  0.00  0.00    +0.045 A 
ATOM     19 CL   UNL     1       5.990  -0.309   0.992  0.00  0.00    -0.083 Cl
ENDBRANCH   9  13
BRANCH  11  20
ATOM     20  N   UNL     1       6.163  -4.934  -3.467  0.00  0.00    -0.358 N 
ATOM     21  H   UNL     1       7.045  -5.208  -3.172  0.00  0.00    +0.142 HD
ATOM     22  H   UNL     1       5.612  -5.545  -3.981  0.00  0.00    +0.142 HD
ENDBRANCH  11  20
BRANCH  12  23
ATOM     23  C   UNL     1       3.680  -4.260  -4.368  0.00  0.00    +0.101 C 
ATOM     24  N   UNL     1       3.064  -4.987  -4.986  0.00  0.00    -0.191 NA
ENDBRANCH  12  23
BRANCH  10  25
ATOM     25  C   UNL     1       7.590  -2.185  -3.257  0.00  0.00    +0.091 C 
ATOM     26  N   UNL     1       8.367  -1.727  -3.948  0.00  0.00    -0.194 NA
ENDBRANCH  10  25
BRANCH  10  27
ATOM     27  C   UNL     1       7.268  -3.563  -1.324  0.00  0.00    +0.091 C 
ATOM     28  N   UNL     1       7.798  -4.170  -0.522  0.00  0.00    -0.194 NA
ENDBRANCH  10  27
BRANCH   1  29
ATOM     29  O   UNL     1       1.028   0.291  -0.501  0.00  0.00    -0.445 OA
BRANCH  29  31
ATOM     30  C   UNL     1       0.805   2.177   0.994  0.00  0.00    +0.055 C 
ATOM     31  C   UNL     1       0.548   0.683   0.787  0.00  0.00    +0.107 C 
ATOM     32  C   UNL     1       1.280  -0.115   1.868  0.00  0.00    +0.055 C 
ATOM     33  C   UNL     1      -0.954   0.407   0.877  0.00  0.00    +0.055 C 
ENDBRANCH  29  31
ENDBRANCH   1  29
TORSDOF 7
