REMARK  Name = ZINC19788254
REMARK  4 active torsions:
REMARK  status: ('A' for Active; 'I' for Inactive)
REMARK    1  A    between atoms: C_1  and  C_2
REMARK    2  A    between atoms: C_7  and  N_10
REMARK    3  A    between atoms: N_13  and  C_16
REMARK    4  A    between atoms: C_16  and  C_17
REMARK                            x       y       z     vdW  Elec       q    Type
REMARK                         _______ _______ _______ _____ _____    ______ ____
ROOT
ATOM      1  N   UNL     1       1.361   2.032   0.000  0.00  0.00    +0.383 N 
ATOM      2  C   UNL     1      -0.019   1.526   0.010  0.00  0.00    -0.063 C 
ATOM      3  C   UNL     1       0.002  -0.004   0.002  0.00  0.00    +0.066 C 
ATOM      4  N   UNL     1       0.746  -0.488   1.173  0.00  0.00    -0.302 NA
ATOM      5  C   UNL     1       2.126   0.018   1.163  0.00  0.00    +0.066 C 
ATOM      6  C   UNL     1       2.105   1.549   1.171  0.00  0.00    -0.063 C 
ATOM      7  H   UNL     1       1.858   1.646  -0.902  0.00  0.00    -0.081 HD
ENDROOT
BRANCH   1  13
ATOM      8  C   UNL     1       4.306   6.005  -0.158  0.00  0.00    +0.007 C 
ATOM      9  C   UNL     1       2.856   5.516  -0.149  0.00  0.00    -0.016 C 
ATOM     10  C   UNL     1       2.130   6.095   1.067  0.00  0.00    +0.003 C 
ATOM     11  C   UNL     1       0.680   5.606   1.077  0.00  0.00    -0.001 C 
ATOM     12  C   UNL     1       0.657   4.078   1.148  0.00  0.00    -0.015 C 
ATOM     13  C   UNL     1       1.383   3.500  -0.069  0.00  0.00    -0.068 C 
ATOM     14  C   UNL     1       2.833   3.988  -0.078  0.00  0.00    -0.012 C 
ENDBRANCH   1  13
BRANCH   4  15
ATOM     15  C   UNL     1       0.724  -1.955   1.242  0.00  0.00    +0.119 C 
BRANCH  15  16
ATOM     16  C   UNL     1       1.278  -2.404   2.570  0.00  0.00    -0.033 A 
ATOM     17  C   UNL     1       2.630  -2.654   2.706  0.00  0.00    +0.006 A 
ATOM     18  C   UNL     1       3.139  -3.061   3.925  0.00  0.00    +0.020 A 
ATOM     19  C   UNL     1       2.293  -3.228   5.006  0.00  0.00    +0.041 A 
ATOM     20  C   UNL     1       0.938  -2.983   4.868  0.00  0.00    +0.020 A 
ATOM     21  C   UNL     1       0.431  -2.571   3.650  0.00  0.00    +0.006 A 
ATOM     22 CL   UNL     1       2.930  -3.745   6.536  0.00  0.00    -0.084 Cl
ENDBRANCH  15  16
ENDBRANCH   4  15
TORSDOF 3
