REMARK  Name = ZINC20096123
REMARK  7 active torsions:
REMARK  status: ('A' for Active; 'I' for Inactive)
REMARK    1  A    between atoms: C_1  and  C_2
REMARK    2  A    between atoms: C_5  and  C_13
REMARK    3  A    between atoms: C_7  and  S_8
REMARK    4  A    between atoms: S_8  and  N_11
REMARK    5  A    between atoms: N_11  and  C_12
REMARK    6  A    between atoms: N_19  and  C_20
REMARK    7  A    between atoms: C_26  and  C_28
REMARK                            x       y       z     vdW  Elec       q    Type
REMARK                         _______ _______ _______ _____ _____    ______ ____
ROOT
ATOM      1  C   UNL     1       4.214   5.255  -1.529  0.00  0.00    +0.093 A 
ATOM      2  C   UNL     1       4.225   3.858  -1.621  0.00  0.00    +0.033 A 
ATOM      3  C   UNL     1       3.165   3.163  -1.068  0.00  0.00    +0.047 A 
ATOM      4  C   UNL     1       2.150   3.897  -0.452  0.00  0.00    +0.141 A 
ATOM      5  N   UNL     1       2.220   5.220  -0.416  0.00  0.00    -0.134 NA
ATOM      6  N   UNL     1       3.205   5.867  -0.924  0.00  0.00    -0.147 NA
ATOM      7  N   UNL     1       1.065   3.242   0.118  0.00  0.00    -0.325 N 
ATOM      8  H   UNL     1       0.266   3.821   0.604  0.00  0.00    +0.148 HD
ENDROOT
BRANCH   1  13
ATOM      9  C   UNL     1       8.534   8.332  -3.772  0.00  0.00    +0.046 C 
ATOM     10  C   UNL     1       7.404   7.527  -3.184  0.00  0.00    -0.024 A 
ATOM     11  C   UNL     1       7.366   6.156  -3.368  0.00  0.00    +0.006 A 
ATOM     12  C   UNL     1       6.333   5.413  -2.833  0.00  0.00    +0.010 A 
ATOM     13  C   UNL     1       5.327   6.047  -2.106  0.00  0.00    +0.004 A 
ATOM     14  C   UNL     1       5.366   7.429  -1.929  0.00  0.00    +0.039 A 
ATOM     15  C   UNL     1       6.407   8.161  -2.464  0.00  0.00    +0.109 A 
BRANCH  15  16
ATOM     16  S   UNL     1       6.463   9.907  -2.236  0.00  0.00    +0.058 S 
ATOM     17  O   UNL     1       5.279  10.263  -1.534  0.00  0.00    -0.153 OA
ATOM     18  O   UNL     1       7.761  10.211  -1.744  0.00  0.00    -0.153 OA
BRANCH  16  19
ATOM     19  N   UNL     1       6.351  10.601  -3.736  0.00  0.00    -0.193 NA
ATOM     20  C   UNL     1       5.125  10.446  -4.524  0.00  0.00    +0.127 C 
ATOM     21  H   UNL     1       7.251  11.032  -4.197  0.00  0.00    +0.148 HD
ENDBRANCH  16  19
ENDBRANCH  15  16
ENDBRANCH   1  13
BRANCH   7  22
ATOM     22  C   UNL     1       0.986   1.780   0.073  0.00  0.00    +0.075 C 
ATOM     23  C   UNL     1       1.772   1.190   1.246  0.00  0.00    +0.022 C 
ATOM     24  C   UNL     1       1.176   1.692   2.563  0.00  0.00    +0.002 C 
ATOM     25  C   UNL     1      -0.288   1.257   2.659  0.00  0.00    +0.000 C 
ATOM     26  C   UNL     1      -1.073   1.847   1.486  0.00  0.00    +0.005 C 
ATOM     27  C   UNL     1      -0.478   1.345   0.169  0.00  0.00    +0.006 C 
ATOM     28  C   UNL     1      -1.263   1.935  -1.004  0.00  0.00    +0.009 C 
ENDBRANCH   7  22
TORSDOF 4
