REMARK  Name = ZINC22416612
REMARK  12 active torsions:
REMARK  status: ('A' for Active; 'I' for Inactive)
REMARK    1  A    between atoms: C_1  and  C_2
REMARK    2  A    between atoms: C_4  and  C_9
REMARK    3  A    between atoms: C_5  and  C_8
REMARK    4  A    between atoms: C_9  and  C_11
REMARK    5  A    between atoms: C_11  and  S_12
REMARK    6  A    between atoms: S_12  and  C_13
REMARK    7  A    between atoms: C_16  and  C_19
REMARK    8  A    between atoms: N_17  and  N_18
REMARK    9  A    between atoms: C_19  and  O_20
REMARK   10  A    between atoms: O_20  and  C_21
REMARK   11  A    between atoms: C_25  and  O_27
REMARK   12  A    between atoms: O_27  and  C_28
REMARK                            x       y       z     vdW  Elec       q    Type
REMARK                         _______ _______ _______ _____ _____    ______ ____
ROOT
ATOM      1  C   UNL     1      -1.729  -0.334   0.017  0.00  0.00    +0.209 A 
ATOM      2  N   UNL     1      -2.693   0.557   0.030  0.00  0.00    -0.121 NA
ATOM      3  N   UNL     1      -3.834  -0.034   0.038  0.00  0.00    -0.128 NA
ATOM      4  C   UNL     1      -3.668  -1.327   0.030  0.00  0.00    +0.189 A 
ATOM      5  N   UNL     1      -2.321  -1.564   0.010  0.00  0.00    -0.225 N 
ENDROOT
BRANCH   5   6
ATOM      6  N   UNL     1      -1.698  -2.779  -0.009  0.00  0.00    -0.295 N 
ATOM      7  H   UNL     1      -2.295  -3.703  -0.012  0.00  0.00    +0.163 HD
ATOM      8  H   UNL     1      -0.599  -2.834  -0.021  0.00  0.00    +0.163 HD
ENDBRANCH   5   6
BRANCH   1   9
ATOM      9  S   UNL     1       0.002  -0.004   0.002  0.00  0.00    -0.077 S 
BRANCH   9  10
ATOM     10  C   UNL     1      -0.022   1.806   0.012  0.00  0.00    +0.157 C 
BRANCH  10  11
ATOM     11  C   UNL     1       1.391   2.327   0.001  0.00  0.00    +0.175 C 
ATOM     12  O   UNL     1       2.324   1.552  -0.012  0.00  0.00    -0.291 OA
BRANCH  11  16
ATOM     13  C   UNL     1       0.699   7.375   0.036  0.00  0.00    +0.063 C 
ATOM     14  C   UNL     1       1.315   6.000   0.022  0.00  0.00    +0.014 A 
ATOM     15  C   UNL     1       0.634   4.842   0.022  0.00  0.00    +0.034 A 
ATOM     16  C   UNL     1       1.639   3.771   0.007  0.00  0.00    +0.039 A 
ATOM     17  C   UNL     1       2.868   4.405   0.004  0.00  0.00    +0.024 A 
ATOM     18  N   UNL     1       2.654   5.733   0.007  0.00  0.00    -0.362 N 
ATOM     19  H   UNL     1       3.380   6.559  -0.000  0.00  0.00    +0.165 HD
ATOM     20  C   UNL     1       4.213   3.726  -0.005  0.00  0.00    +0.064 C 
ENDBRANCH  11  16
ENDBRANCH  10  11
ENDBRANCH   9  10
ENDBRANCH   1   9
BRANCH   4  21
ATOM     21  C   UNL     1      -4.758  -2.367   0.035  0.00  0.00    +0.306 C 
BRANCH  21  22
ATOM     22  O   UNL     1      -5.116  -2.689  -1.310  0.00  0.00    -0.484 OA
BRANCH  22  23
ATOM     23  C   UNL     1      -6.092  -3.618  -1.484  0.00  0.00    +0.125 A 
ATOM     24  C   UNL     1      -6.689  -4.213  -0.380  0.00  0.00    +0.046 A 
ATOM     25  C   UNL     1      -7.685  -5.154  -0.556  0.00  0.00    +0.007 A 
ATOM     26  C   UNL     1      -8.082  -5.514  -1.830  0.00  0.00    +0.046 A 
ATOM     27  C   UNL     1      -7.484  -4.927  -2.936  0.00  0.00    +0.124 A 
ATOM     28  C   UNL     1      -6.488  -3.978  -2.762  0.00  0.00    +0.091 A 
BRANCH  27  29
ATOM     29  O   UNL     1      -7.874  -5.282  -4.188  0.00  0.00    -0.495 OA
ATOM     30  C   UNL     1      -8.906  -6.265  -4.292  0.00  0.00    +0.277 C 
ENDBRANCH  27  29
ENDBRANCH  22  23
ENDBRANCH  21  22
ENDBRANCH   4  21
TORSDOF 9
