REMARK  Name = ZINC43399479
REMARK  4 active torsions:
REMARK  status: ('A' for Active; 'I' for Inactive)
REMARK    1  A    between atoms: C_1  and  C_2
REMARK    2  A    between atoms: C_5  and  C_15
REMARK    3  A    between atoms: C_6  and  N_8
REMARK    4  A    between atoms: N_16  and  O_17
REMARK                            x       y       z     vdW  Elec       q    Type
REMARK                         _______ _______ _______ _____ _____    ______ ____
ROOT
ATOM      1  C   UNL     1      -2.412  -0.679  -1.402  0.00  0.00    +0.065 C 
ATOM      2  C   UNL     1      -1.146  -1.030  -0.664  0.00  0.00    +0.040 A 
ATOM      3  C   UNL     1       0.077  -0.704  -1.220  0.00  0.00    +0.024 A 
ATOM      4  C   UNL     1       1.241  -1.026  -0.543  0.00  0.00    +0.016 A 
ATOM      5  C   UNL     1       1.134  -1.676   0.689  0.00  0.00    +0.058 A 
ATOM      6  C   UNL     1      -0.143  -1.974   1.189  0.00  0.00    +0.132 A 
ATOM      7  N   UNL     1      -1.225  -1.639   0.504  0.00  0.00    -0.237 NA
ENDROOT
BRANCH   6   8
ATOM      8  N   UNL     1      -0.272  -2.618   2.409  0.00  0.00    -0.315 N 
ATOM      9  C   UNL     1      -0.196  -4.061   2.443  0.00  0.00    +0.106 C 
ATOM     10  C   UNL     1      -1.609  -4.662   2.240  0.00  0.00    +0.019 C 
ATOM     11  C   UNL     1      -2.437  -4.431   3.434  0.00  0.00    +0.002 C 
ATOM     12  C   UNL     1      -2.693  -2.960   3.747  0.00  0.00    +0.002 C 
ATOM     13  C   UNL     1      -1.542  -2.413   4.556  0.00  0.00    +0.019 C 
ATOM     14  C   UNL     1      -0.477  -1.801   3.622  0.00  0.00    +0.106 C 
ENDBRANCH   6   8
BRANCH   5  15
ATOM     15  C   UNL     1       2.345  -2.043   1.453  0.00  0.00    +0.166 C 
ATOM     16  N   UNL     1       2.233  -2.552   2.646  0.00  0.00    -0.071 NA
ATOM     17  N   UNL     1       3.599  -1.846   0.900  0.00  0.00    -0.340 N 
ATOM     18  H   UNL     1       3.683  -1.466   0.011  0.00  0.00    +0.144 HD
ATOM     19  H   UNL     1       4.394  -2.087   1.401  0.00  0.00    +0.144 HD
BRANCH  16  20
ATOM     20  O   UNL     1       3.392  -2.805   3.420  0.00  0.00    -0.408 OA
ATOM     21  H   UNL     1       3.208  -3.183   4.291  0.00  0.00    +0.328 HD
ENDBRANCH  16  20
ENDBRANCH   5  15
TORSDOF 3
