REMARK  Name = ZINC32088142
REMARK  5 active torsions:
REMARK  status: ('A' for Active; 'I' for Inactive)
REMARK    1  A    between atoms: C_4  and  C_7
REMARK    2  A    between atoms: C_7  and  C_8
REMARK    3  A    between atoms: C_8  and  O_9
REMARK    4  A    between atoms: O_9  and  C_10
REMARK    5  A    between atoms: C_15  and  C_16
REMARK                            x       y       z     vdW  Elec       q    Type
REMARK                         _______ _______ _______ _____ _____    ______ ____
ROOT
ATOM      1  C   UNL     1       5.970  -1.968   2.586  0.00  0.00    +0.124 A 
ATOM      2  C   UNL     1       5.320  -1.611   3.759  0.00  0.00    +0.046 A 
ATOM      3  C   UNL     1       5.882  -1.924   4.981  0.00  0.00    +0.004 A 
ATOM      4  C   UNL     1       7.091  -2.594   5.036  0.00  0.00    +0.001 A 
ATOM      5  C   UNL     1       7.740  -2.951   3.869  0.00  0.00    +0.008 A 
ATOM      6  C   UNL     1       7.179  -2.645   2.644  0.00  0.00    +0.003 A 
ENDROOT
BRANCH   6   7
ATOM      7  C   UNL     1       7.884  -3.039   1.372  0.00  0.00    +0.071 C 
ATOM      8  C   UNL     1       8.062  -4.564   1.330  0.00  0.00    +0.109 C 
ATOM      9  C   UNL     1       9.202  -4.989   2.211  0.00  0.00    +0.219 C 
ATOM     10  O   UNL     1       9.093  -6.022   2.838  0.00  0.00    -0.275 OA
ATOM     11  N   UNL     1      10.339  -4.281   2.337  0.00  0.00    -0.270 N 
ATOM     12  C   UNL     1      10.395  -2.977   1.780  0.00  0.00    +0.138 A 
ATOM     13  C   UNL     1       9.234  -2.413   1.330  0.00  0.00    +0.041 A 
ATOM     14  S   UNL     1       9.774  -0.840   0.734  0.00  0.00    -0.055 S 
ATOM     15  C   UNL     1      11.407  -1.006   1.119  0.00  0.00    +0.158 A 
ATOM     16  N   UNL     1      11.472  -2.211   1.657  0.00  0.00    -0.210 NA
ATOM     17  N   UNL     1      12.435  -0.098   0.919  0.00  0.00    -0.337 N 
ATOM     18  H   UNL     1      11.105  -4.654   2.800  0.00  0.00    +0.156 HD
ATOM     19  H   UNL     1      12.250   0.761   0.508  0.00  0.00    +0.144 HD
ATOM     20  H   UNL     1      13.339  -0.322   1.190  0.00  0.00    +0.144 HD
ENDBRANCH   6   7
BRANCH   1  21
ATOM     21  O   UNL     1       5.418  -1.661   1.382  0.00  0.00    -0.491 OA
BRANCH  21  22
ATOM     22  C   UNL     1       4.171  -0.963   1.399  0.00  0.00    +0.233 C 
BRANCH  22  23
ATOM     23  C   UNL     1       3.711  -0.707  -0.038  0.00  0.00    +0.076 C 
BRANCH  23  27
ATOM     24  C   UNL     1      -0.017   1.378   0.010  0.00  0.00    +0.000 A 
ATOM     25  C   UNL     1       1.171   2.086   0.002  0.00  0.00    +0.000 A 
ATOM     26  C   UNL     1       2.377   1.411  -0.013  0.00  0.00    +0.004 A 
ATOM     27  C   UNL     1       2.396   0.029  -0.020  0.00  0.00    -0.044 A 
ATOM     28  C   UNL     1       1.208  -0.679  -0.012  0.00  0.00    +0.004 A 
ATOM     29  C   UNL     1       0.002  -0.004   0.002  0.00  0.00    +0.000 A 
ENDBRANCH  23  27
ENDBRANCH  22  23
ENDBRANCH  21  22
ENDBRANCH   1  21
TORSDOF 5
