REMARK  Name = ZINC39272664
REMARK  7 active torsions:
REMARK  status: ('A' for Active; 'I' for Inactive)
REMARK    1  A    between atoms: C_1  and  C_2
REMARK    2  A    between atoms: C_3  and  C_32
REMARK    3  A    between atoms: C_9  and  C_31
REMARK    4  A    between atoms: C_10  and  C_17
REMARK    5  A    between atoms: C_15  and  C_16
REMARK    6  A    between atoms: C_17  and  C_18
REMARK    7  A    between atoms: C_18  and  C_19
REMARK                            x       y       z     vdW  Elec       q    Type
REMARK                         _______ _______ _______ _____ _____    ______ ____
ROOT
ATOM      1  C   UNL     1      -0.018   1.503   0.010  0.00  0.00    +0.048 C 
ATOM      2  C   UNL     1       0.002  -0.004   0.002  0.00  0.00    -0.002 A 
ATOM      3  C   UNL     1       0.009  -0.802  -1.073  0.00  0.00    +0.106 A 
ATOM      4  O   UNL     1       0.028  -2.093  -0.695  0.00  0.00    -0.459 OA
ATOM      5  C   UNL     1       0.035  -2.202   0.649  0.00  0.00    +0.142 A 
ATOM      6  C   UNL     1       0.025  -0.893   1.172  0.00  0.00    +0.024 A 
ATOM      7  C   UNL     1       0.035  -0.683   2.544  0.00  0.00    +0.023 A 
ATOM      8  C   UNL     1       0.058  -1.782   3.403  0.00  0.00    +0.022 A 
ATOM      9  C   UNL     1       0.068  -1.597   4.857  0.00  0.00    -0.030 A 
ATOM     10  C   UNL     1       0.090  -2.703   5.644  0.00  0.00    +0.041 A 
ATOM     11  C   UNL     1       0.102  -3.985   5.054  0.00  0.00    +0.341 A 
ATOM     12  O   UNL     1       0.121  -4.968   5.772  0.00  0.00    -0.245 OA
ATOM     13  O   UNL     1       0.092  -4.149   3.722  0.00  0.00    -0.422 OA
ATOM     14  C   UNL     1       0.071  -3.092   2.879  0.00  0.00    +0.146 A 
ATOM     15  C   UNL     1       0.053  -3.290   1.510  0.00  0.00    +0.035 A 
ATOM     16  C   UNL     1       0.070  -4.690   0.952  0.00  0.00    +0.051 C 
ATOM     17  C   UNL     1       0.056  -0.217   5.462  0.00  0.00    +0.045 C 
ATOM     18  C   UNL     1      -0.004  -0.323  -2.502  0.00  0.00    +0.086 C 
ENDROOT
BRANCH  10  19
ATOM     19  C   UNL     1       0.102  -2.562   7.144  0.00  0.00    +0.052 C 
BRANCH  19  20
ATOM     20  C   UNL     1      -1.329  -2.659   7.677  0.00  0.00    +0.101 C 
BRANCH  20  21
ATOM     21  C   UNL     1      -1.318  -2.518   9.177  0.00  0.00    +0.216 C 
ATOM     22  O   UNL     1      -0.268  -2.357   9.763  0.00  0.00    -0.276 OA
ATOM     23  N   UNL     1      -2.474  -2.572   9.868  0.00  0.00    -0.299 N 
ATOM     24  C   UNL     1      -3.736  -2.773   9.150  0.00  0.00    +0.114 C 
ATOM     25  C   UNL     1      -4.449  -4.024   9.700  0.00  0.00    +0.072 C 
ATOM     26  C   UNL     1      -4.369  -3.933  11.202  0.00  0.00    +0.048 C 
ATOM     27  N   UNL     1      -5.266  -4.001  12.110  0.00  0.00    -0.243 NA
ATOM     28  C   UNL     1      -4.759  -3.734  13.338  0.00  0.00    +0.216 C 
ATOM     29  N   UNL     1      -3.480  -3.520  13.322  0.00  0.00    -0.262 NA
ATOM     30  C   UNL     1      -3.050  -3.703  11.933  0.00  0.00    +0.168 C 
ATOM     31  C   UNL     1      -2.450  -2.433  11.334  0.00  0.00    +0.140 C 
ENDBRANCH  20  21
ENDBRANCH  19  20
ENDBRANCH  10  19
TORSDOF 3
