REMARK  Name = ZINC13127165
REMARK  3 active torsions:
REMARK  status: ('A' for Active; 'I' for Inactive)
REMARK    1  A    between atoms: C_1  and  C_2
REMARK    2  A    between atoms: C_5  and  C_21
REMARK    3  A    between atoms: C_13  and  C_15
REMARK                            x       y       z     vdW  Elec       q    Type
REMARK                         _______ _______ _______ _____ _____    ______ ____
ROOT
ATOM      1  C   UNL     1      -0.019   1.526   0.010  0.00  0.00    +0.028 C 
ATOM      2  C   UNL     1       0.002  -0.004   0.002  0.00  0.00    +0.072 C 
ATOM      3  C   UNL     1      -1.435  -0.538   0.022  0.00  0.00    +0.053 C 
ATOM      4  C   UNL     1      -1.418  -2.071  -0.042  0.00  0.00    +0.142 C 
ATOM      5  N   UNL     1      -0.478  -2.574   0.958  0.00  0.00    -0.224 N 
ATOM      6  C   UNL     1       0.501  -1.831   1.529  0.00  0.00    +0.216 A 
ATOM      7  N   UNL     1       1.147  -2.589   2.374  0.00  0.00    -0.180 NA
ATOM      8  C   UNL     1       0.614  -3.819   2.369  0.00  0.00    +0.242 A 
ATOM      9  N   UNL     1      -0.384  -3.851   1.514  0.00  0.00    -0.131 NA
ATOM     10  N   UNL     1       1.050  -4.895   3.148  0.00  0.00    -0.249 N 
ATOM     11  C   UNL     1       2.088  -4.738   3.992  0.00  0.00    +0.257 C 
ATOM     12  O   UNL     1       2.647  -3.660   4.077  0.00  0.00    -0.269 OA
ATOM     13  N   UNL     1       0.708  -0.496   1.201  0.00  0.00    -0.311 N 
ATOM     14  H   UNL     1       0.604  -5.754   3.081  0.00  0.00    +0.158 HD
ATOM     15  H   UNL     1       1.281   0.079   1.730  0.00  0.00    +0.149 HD
ENDROOT
BRANCH   4  16
ATOM     16  C   UNL     1      -2.798  -2.603   0.245  0.00  0.00    -0.023 A 
ATOM     17  C   UNL     1      -3.410  -2.322   1.453  0.00  0.00    +0.006 A 
ATOM     18  C   UNL     1      -4.676  -2.811   1.716  0.00  0.00    +0.000 A 
ATOM     19  C   UNL     1      -5.331  -3.579   0.772  0.00  0.00    +0.000 A 
ATOM     20  C   UNL     1      -4.720  -3.859  -0.436  0.00  0.00    +0.000 A 
ATOM     21  C   UNL     1      -3.455  -3.367  -0.701  0.00  0.00    +0.006 A 
ENDBRANCH   4  16
BRANCH  11  22
ATOM     22  C   UNL     1       2.545  -5.866   4.809  0.00  0.00    +0.074 A 
ATOM     23  C   UNL     1       3.578  -5.915   5.733  0.00  0.00    +0.021 A 
ATOM     24  C   UNL     1       3.771  -7.128   6.349  0.00  0.00    +0.008 A 
ATOM     25  C   UNL     1       2.963  -8.168   6.025  0.00  0.00    +0.046 A 
ATOM     26  S   UNL     1       1.912  -7.531   4.880  0.00  0.00    -0.092 S 
ENDBRANCH  11  22
TORSDOF 2
