REMARK  Name = ZINC64182219
REMARK  5 active torsions:
REMARK  status: ('A' for Active; 'I' for Inactive)
REMARK    1  A    between atoms: C_7  and  C_10
REMARK    2  A    between atoms: C_16  and  C_18
REMARK    3  A    between atoms: C_18  and  C_19
REMARK    4  A    between atoms: C_19  and  N_20
REMARK    5  A    between atoms: C_24  and  C_27
REMARK                            x       y       z     vdW  Elec       q    Type
REMARK                         _______ _______ _______ _____ _____    ______ ____
ROOT
ATOM      1  C   UNL     1       0.673  -3.130  -0.021  0.00  0.00    -0.043 C 
ATOM      2  C   UNL     1      -0.624  -2.873   0.090  0.00  0.00    -0.004 C 
ATOM      3  C   UNL     1      -1.677  -3.945   0.123  0.00  0.00    +0.135 C 
ATOM      4  N   UNL     1      -1.068  -5.230  -0.249  0.00  0.00    -0.297 N 
ATOM      5  C   UNL     1       0.242  -5.555   0.340  0.00  0.00    +0.113 C 
ATOM      6  C   UNL     1       1.250  -4.509  -0.149  0.00  0.00    +0.054 C 
ATOM      7  C   UNL     1      -1.685  -6.078  -1.096  0.00  0.00    +0.217 C 
ATOM      8  O   UNL     1      -1.161  -7.133  -1.387  0.00  0.00    -0.276 OA
ENDROOT
BRANCH   1  15
ATOM      9  C   UNL     1       5.151  -2.873  -0.693  0.00  0.00    +0.001 A 
ATOM     10  C   UNL     1       5.657  -1.572  -0.610  0.00  0.00    +0.002 A 
ATOM     11  C   UNL     1       4.859  -0.508  -0.351  0.00  0.00    +0.026 A 
ATOM     12  C   UNL     1       3.465  -0.702  -0.156  0.00  0.00    +0.043 A 
ATOM     13  N   UNL     1       2.496   0.148   0.103  0.00  0.00    -0.380 N 
ATOM     14  C   UNL     1       1.229  -0.583   0.211  0.00  0.00    +0.149 C 
ATOM     15  C   UNL     1       1.565  -2.039  -0.024  0.00  0.00    -0.016 C 
ATOM     16  C   UNL     1       2.936  -2.076  -0.245  0.00  0.00    +0.003 A 
ATOM     17  C   UNL     1       3.832  -3.135  -0.518  0.00  0.00    +0.010 A 
ATOM     18  H   UNL     1       2.602   1.107   0.207  0.00  0.00    +0.160 HD
ENDBRANCH   1  15
BRANCH   7  19
ATOM     19  C   UNL     1      -3.025  -5.716  -1.681  0.00  0.00    +0.116 C 
BRANCH  19  20
ATOM     20  C   UNL     1      -3.500  -6.842  -2.603  0.00  0.00    +0.140 C 
BRANCH  20  21
ATOM     21  N   UNL     1      -4.803  -6.490  -3.172  0.00  0.00    -0.199 N 
ATOM     22  C   UNL     1      -5.992  -6.697  -2.578  0.00  0.00    +0.419 C 
ATOM     23  O   UNL     1      -6.138  -7.200  -1.481  0.00  0.00    -0.225 OA
ATOM     24  O   UNL     1      -7.000  -6.269  -3.365  0.00  0.00    -0.424 OA
ATOM     25  C   UNL     1      -6.394  -5.396  -4.338  0.00  0.00    +0.302 C 
ATOM     26  N   UNL     1      -4.999  -5.893  -4.392  0.00  0.00    -0.193 NA
ATOM     27  H   UNL     1      -4.883  -6.557  -5.143  0.00  0.00    +0.149 HD
BRANCH  25  28
ATOM     28  C   UNL     1      -6.432  -3.964  -3.870  0.00  0.00    +0.046 A 
ATOM     29  C   UNL     1      -7.379  -3.019  -4.091  0.00  0.00    +0.016 A 
ATOM     30  C   UNL     1      -7.203  -1.756  -3.557  0.00  0.00    +0.008 A 
ATOM     31  C   UNL     1      -6.089  -1.500  -2.828  0.00  0.00    +0.045 A 
ATOM     32  S   UNL     1      -5.247  -3.074  -2.875  0.00  0.00    -0.096 S 
ENDBRANCH  25  28
ENDBRANCH  20  21
ENDBRANCH  19  20
ENDBRANCH   7  19
TORSDOF 5
