REMARK  Name = ZINC06546706
REMARK  7 active torsions:
REMARK  status: ('A' for Active; 'I' for Inactive)
REMARK    1  A    between atoms: C_1  and  C_2
REMARK    2  A    between atoms: C_5  and  C_9
REMARK    3  A    between atoms: N_11  and  C_12
REMARK    4  A    between atoms: C_12  and  N_14
REMARK    5  A    between atoms: N_14  and  C_15
REMARK    6  A    between atoms: C_18  and  N_22
REMARK    7  A    between atoms: C_20  and  O_21
REMARK                            x       y       z     vdW  Elec       q    Type
REMARK                         _______ _______ _______ _____ _____    ______ ____
ROOT
ATOM      1  C   UNL     1      -4.856   3.802   0.316  0.00  0.00    +0.141 C 
ATOM      2  S   UNL     1      -4.861   5.480   0.658  0.00  0.00    -0.018 S 
ENDROOT
BRANCH   1   5
ATOM      3  C   UNL     1      -2.531   3.767   0.522  0.00  0.00    +0.250 C 
ATOM      4  O   UNL     1      -2.535   4.958   0.765  0.00  0.00    -0.270 OA
ATOM      5  N   UNL     1      -3.692   3.124   0.284  0.00  0.00    -0.264 N 
ATOM      6  H   UNL     1      -3.689   2.174   0.090  0.00  0.00    +0.157 HD
BRANCH   3  11
ATOM      7  C   UNL     1       2.440   0.871   0.387  0.00  0.00    +0.045 C 
ATOM      8  C   UNL     1       1.138   1.630   0.423  0.00  0.00    -0.036 A 
ATOM      9  C   UNL     1      -0.052   0.968   0.178  0.00  0.00    +0.005 A 
ATOM     10  C   UNL     1      -1.246   1.657   0.203  0.00  0.00    +0.013 A 
ATOM     11  C   UNL     1      -1.254   3.024   0.487  0.00  0.00    +0.038 A 
ATOM     12  C   UNL     1      -0.051   3.687   0.734  0.00  0.00    +0.028 A 
ATOM     13  C   UNL     1       1.139   2.986   0.700  0.00  0.00    +0.021 A 
ATOM     14 BR   UNL     1       2.771   3.881   1.034  0.00  0.00    -0.050 Br
ENDBRANCH   3  11
ENDBRANCH   1   5
BRANCH   1  15
ATOM     15  N   UNL     1      -6.016   3.160   0.077  0.00  0.00    -0.294 N 
ATOM     16  H   UNL     1      -6.009   2.224  -0.178  0.00  0.00    +0.154 HD
BRANCH  15  17
ATOM     17  C   UNL     1      -7.233   3.843   0.199  0.00  0.00    +0.075 A 
ATOM     18  C   UNL     1      -7.390   5.093  -0.383  0.00  0.00    +0.029 A 
ATOM     19  C   UNL     1      -8.592   5.765  -0.262  0.00  0.00    +0.035 A 
ATOM     20  C   UNL     1      -9.640   5.194   0.438  0.00  0.00    +0.130 A 
ATOM     21  C   UNL     1      -9.491   3.950   1.020  0.00  0.00    +0.080 A 
ATOM     22  C   UNL     1      -8.291   3.267   0.899  0.00  0.00    +0.140 A 
BRANCH  20  23
ATOM     23  N   UNL     1     -10.924   5.919   0.563  0.00  0.00    +0.057 N 
ATOM     24  O   UNL     1     -11.058   7.016   0.050  0.00  0.00    -0.126 OA
ATOM     25  O   UNL     1     -11.848   5.418   1.179  0.00  0.00    -0.126 OA
ENDBRANCH  20  23
BRANCH  22  26
ATOM     26  O   UNL     1      -8.145   2.040   1.467  0.00  0.00    -0.505 OA
ATOM     27  H   UNL     1      -7.815   2.064   2.376  0.00  0.00    +0.292 HD
ENDBRANCH  22  26
ENDBRANCH  15  17
ENDBRANCH   1  15
TORSDOF 6
