REMARK  Name = ZINC39461201
REMARK  9 active torsions:
REMARK  status: ('A' for Active; 'I' for Inactive)
REMARK    1  A    between atoms: C_1  and  C_2
REMARK    2  A    between atoms: C_3  and  C_12
REMARK    3  A    between atoms: C_5  and  C_7
REMARK    4  A    between atoms: C_12  and  N_13
REMARK    5  A    between atoms: N_13  and  C_14
REMARK    6  A    between atoms: N_13  and  C_21
REMARK    7  A    between atoms: C_14  and  C_15
REMARK    8  A    between atoms: C_21  and  C_22
REMARK    9  A    between atoms: N_25  and  C_28
REMARK                            x       y       z     vdW  Elec       q    Type
REMARK                         _______ _______ _______ _____ _____    ______ ____
ROOT
ATOM      1  N   UNL     1      -3.352  -0.208  -1.194  0.00  0.00    +0.385 N 
ATOM      2  H   UNL     1      -3.296  -1.173  -1.482  0.00  0.00    -0.081 HD
ENDROOT
BRANCH   1   3
ATOM      3  C   UNL     1      -3.042  -0.107   0.239  0.00  0.00    -0.019 C 
BRANCH   3   6
ATOM      4  C   UNL     1      -0.311   1.396   0.461  0.00  0.00    +0.088 C 
ATOM      5  C   UNL     1      -0.526  -0.089   0.603  0.00  0.00    +0.124 A 
ATOM      6  C   UNL     1      -1.700  -0.737   0.508  0.00  0.00    +0.066 A 
ATOM      7  N   UNL     1      -1.466  -2.045   0.696  0.00  0.00    -0.215 NA
ATOM      8  C   UNL     1      -0.178  -2.215   0.903  0.00  0.00    +0.234 A 
ATOM      9  O   UNL     1       0.426  -1.014   0.845  0.00  0.00    -0.440 OA
BRANCH   8  10
ATOM     10  C   UNL     1       0.490  -3.502   1.151  0.00  0.00    +0.074 A 
ATOM     11  C   UNL     1       1.829  -3.758   1.382  0.00  0.00    +0.021 A 
ATOM     12  C   UNL     1       2.219  -5.061   1.590  0.00  0.00    +0.008 A 
ATOM     13  C   UNL     1       1.285  -6.047   1.563  0.00  0.00    +0.046 A 
ATOM     14  S   UNL     1      -0.217  -5.138   1.241  0.00  0.00    -0.092 S 
ENDBRANCH   8  10
ENDBRANCH   3   6
ENDBRANCH   1   3
BRANCH   1  15
ATOM     15  C   UNL     1      -2.386   0.590  -1.961  0.00  0.00    -0.046 C 
BRANCH  15  16
ATOM     16  C   UNL     1      -2.592   0.340  -3.456  0.00  0.00    +0.102 C 
ATOM     17  C   UNL     1      -1.480   1.043  -4.263  0.00  0.00    +0.032 C 
ATOM     18  C   UNL     1      -2.257   1.584  -5.494  0.00  0.00    +0.030 C 
ATOM     19  C   UNL     1      -3.626   1.923  -4.852  0.00  0.00    +0.160 C 
ATOM     20  O   UNL     1      -3.847   0.892  -3.873  0.00  0.00    -0.378 OA
ENDBRANCH  15  16
ENDBRANCH   1  15
BRANCH   1  21
ATOM     21  C   UNL     1      -4.709   0.298  -1.438  0.00  0.00    -0.075 C 
BRANCH  21  22
ATOM     22  C   UNL     1      -5.721  -0.571  -0.688  0.00  0.00    -0.031 C 
ATOM     23  C   UNL     1      -5.673  -2.000  -1.236  0.00  0.00    -0.017 C 
ATOM     24  C   UNL     1      -6.742  -2.844  -0.537  0.00  0.00    -0.078 C 
ATOM     25  N   UNL     1      -8.068  -2.266  -0.786  0.00  0.00    +0.382 N 
ATOM     26  C   UNL     1      -8.144  -0.922  -0.201  0.00  0.00    -0.078 C 
ATOM     27  C   UNL     1      -7.129  -0.004  -0.887  0.00  0.00    -0.017 C 
ATOM     28  H   UNL     1      -8.226  -2.208  -1.781  0.00  0.00    -0.081 HD
BRANCH  25  29
ATOM     29  C   UNL     1      -9.095  -3.122  -0.179  0.00  0.00    -0.069 C 
ATOM     30  C   UNL     1      -9.081  -4.515  -0.842  0.00  0.00    -0.015 C 
ATOM     31  C   UNL     1     -10.575  -4.921  -0.905  0.00  0.00    -0.002 C 
ATOM     32  C   UNL     1     -11.278  -3.582  -1.240  0.00  0.00    -0.002 C 
ATOM     33  C   UNL     1     -10.492  -2.529  -0.433  0.00  0.00    -0.015 C 
ENDBRANCH  25  29
ENDBRANCH  21  22
ENDBRANCH   1  21
TORSDOF 8
