REMARK  Name = ZINC63778182
REMARK  7 active torsions:
REMARK  status: ('A' for Active; 'I' for Inactive)
REMARK    1  A    between atoms: C_1  and  C_2
REMARK    2  A    between atoms: C_8  and  C_10
REMARK    3  A    between atoms: C_10  and  C_12
REMARK    4  A    between atoms: C_10  and  N_13
REMARK    5  A    between atoms: C_14  and  C_16
REMARK    6  A    between atoms: C_25  and  O_26
REMARK    7  A    between atoms: O_26  and  C_27
REMARK                            x       y       z     vdW  Elec       q    Type
REMARK                         _______ _______ _______ _____ _____    ______ ____
ROOT
ATOM      1  N   UNL     1      -0.423  -7.266  -0.034  0.00  0.00    -0.302 N 
ATOM      2  C   UNL     1      -0.254  -8.511   0.453  0.00  0.00    +0.240 C 
ATOM      3  O   UNL     1       0.825  -8.850   0.890  0.00  0.00    -0.273 OA
ATOM      4  H   UNL     1      -1.286  -6.995  -0.384  0.00  0.00    +0.150 HD
ENDROOT
BRANCH   2   5
ATOM      5  C   UNL     1      -1.406  -9.483   0.452  0.00  0.00    +0.190 C 
ATOM      6  C   UNL     1      -2.312  -9.218   1.634  0.00  0.00    +0.020 C 
ATOM      7  C   UNL     1      -2.304 -10.347   2.374  0.00  0.00    +0.038 A 
ATOM      8  C   UNL     1      -1.427 -11.348   1.725  0.00  0.00    +0.047 A 
ATOM      9  N   UNL     1      -0.912 -10.854   0.621  0.00  0.00    -0.370 N 
ATOM     10  C   UNL     1      -1.282 -12.614   2.350  0.00  0.00    +0.026 A 
ATOM     11  C   UNL     1      -1.931 -12.888   3.505  0.00  0.00    +0.006 A 
ATOM     12  C   UNL     1      -2.765 -11.966   4.141  0.00  0.00    +0.046 A 
ATOM     13  C   UNL     1      -2.975 -10.722   3.630  0.00  0.00    +0.129 A 
ATOM     14  H   UNL     1      -0.307 -11.316   0.020  0.00  0.00    +0.161 HD
BRANCH  13  15
ATOM     15  O   UNL     1      -3.787  -9.843   4.266  0.00  0.00    -0.494 OA
ATOM     16  C   UNL     1      -4.400 -10.287   5.478  0.00  0.00    +0.277 C 
ENDBRANCH  13  15
ENDBRANCH   2   5
BRANCH   1  17
ATOM     17  C   UNL     1       0.697  -6.321  -0.034  0.00  0.00    +0.156 C 
ATOM     18  C   UNL     1       1.546  -6.537  -1.287  0.00  0.00    +0.038 C 
BRANCH  17  26
ATOM     19  C   UNL     1      -0.018   1.503   0.010  0.00  0.00    +0.053 C 
ATOM     20  C   UNL     1       0.002  -0.004   0.002  0.00  0.00    +0.008 A 
ATOM     21  C   UNL     1      -1.030  -0.883   0.002  0.00  0.00    +0.124 A 
ATOM     22  N   UNL     1      -0.725  -2.167  -0.007  0.00  0.00    -0.233 NA
ATOM     23  C   UNL     1       0.528  -2.568  -0.014  0.00  0.00    +0.165 A 
ATOM     24  S   UNL     1       1.392  -1.124  -0.018  0.00  0.00    -0.057 S 
ATOM     25  N   UNL     1       1.019  -3.869  -0.023  0.00  0.00    -0.263 N 
ATOM     26  C   UNL     1       0.165  -4.911  -0.024  0.00  0.00    +0.239 C 
ATOM     27  O   UNL     1      -1.032  -4.715  -0.019  0.00  0.00    -0.273 OA
ATOM     28  H   UNL     1       1.976  -4.026  -0.027  0.00  0.00    +0.157 HD
ENDBRANCH  17  26
ENDBRANCH   1  17
TORSDOF 4
