REMARK  Name = ZINC11239748
REMARK  8 active torsions:
REMARK  status: ('A' for Active; 'I' for Inactive)
REMARK    1  A    between atoms: C_1  and  C_2
REMARK    2  A    between atoms: C_2  and  C_3
REMARK    3  A    between atoms: C_6  and  C_15
REMARK    4  A    between atoms: C_13  and  O_14
REMARK    5  A    between atoms: C_15  and  S_16
REMARK    6  A    between atoms: S_16  and  C_17
REMARK    7  A    between atoms: C_20  and  C_23
REMARK    8  A    between atoms: N_21  and  N_22
REMARK                            x       y       z     vdW  Elec       q    Type
REMARK                         _______ _______ _______ _____ _____    ______ ____
ROOT
ATOM      1  C   UNL     1      -0.853   6.101   7.957  0.00  0.00    -0.005 A 
ATOM      2  C   UNL     1      -1.536   5.335   7.057  0.00  0.00    +0.019 A 
ATOM      3  C   UNL     1      -2.925   5.460   6.950  0.00  0.00    +0.022 A 
ATOM      4  C   UNL     1      -3.684   4.650   5.994  0.00  0.00    -0.020 A 
ATOM      5  C   UNL     1      -5.031   4.814   5.941  0.00  0.00    +0.097 A 
ATOM      6  C   UNL     1      -5.658   5.748   6.791  0.00  0.00    +0.338 A 
ATOM      7  O   UNL     1      -6.867   5.885   6.733  0.00  0.00    -0.245 OA
ATOM      8  O   UNL     1      -4.957   6.491   7.662  0.00  0.00    -0.422 OA
ATOM      9  C   UNL     1      -3.615   6.378   7.764  0.00  0.00    +0.143 A 
ATOM     10  C   UNL     1      -2.905   7.152   8.669  0.00  0.00    +0.092 A 
ATOM     11  C   UNL     1      -1.531   7.008   8.770  0.00  0.00    +0.124 A 
ENDROOT
BRANCH   1  13
ATOM     12  C   UNL     1       1.318   7.105   7.304  0.00  0.00    +0.009 C 
ATOM     13  C   UNL     1       0.643   5.967   8.072  0.00  0.00    +0.035 C 
ENDBRANCH   1  13
BRANCH  11  14
ATOM     14  O   UNL     1      -0.838   7.763   9.659  0.00  0.00    -0.506 OA
ATOM     15  H   UNL     1      -0.534   8.609   9.303  0.00  0.00    +0.292 HD
ENDBRANCH  11  14
BRANCH   4  16
ATOM     16  C   UNL     1      -2.989   3.658   5.097  0.00  0.00    +0.113 C 
BRANCH  16  17
ATOM     17  S   UNL     1      -2.518   4.470   3.550  0.00  0.00    -0.080 S 
BRANCH  17  18
ATOM     18  C   UNL     1      -1.749   3.120   2.718  0.00  0.00    +0.209 A 
ATOM     19  N   UNL     1      -1.606   1.899   3.178  0.00  0.00    -0.121 NA
ATOM     20  N   UNL     1      -1.005   1.171   2.305  0.00  0.00    -0.123 NA
ATOM     21  C   UNL     1      -0.722   1.881   1.250  0.00  0.00    +0.255 A 
ATOM     22  N   UNL     1      -1.189   3.147   1.473  0.00  0.00    -0.220 N 
BRANCH  21  23
ATOM     23  C   UNL     1      -0.017   1.395   0.010  0.00  0.00    +0.454 C 
ATOM     24  F   UNL     1       0.002  -0.004   0.002  0.00  0.00    -0.163 F 
ATOM     25  F   UNL     1       1.296   1.879  -0.000  0.00  0.00    -0.163 F 
ATOM     26  F   UNL     1      -0.694   1.858  -1.124  0.00  0.00    -0.163 F 
ENDBRANCH  21  23
BRANCH  22  27
ATOM     27  N   UNL     1      -1.111   4.216   0.626  0.00  0.00    -0.295 N 
ATOM     28  H   UNL     1      -1.919   4.260   0.024  0.00  0.00    +0.163 HD
ATOM     29  H   UNL     1      -0.996   5.076   1.140  0.00  0.00    +0.163 HD
ENDBRANCH  22  27
ENDBRANCH  17  18
ENDBRANCH  16  17
ENDBRANCH   4  16
TORSDOF 7
