REMARK  Name = ZINC47572162
REMARK  6 active torsions:
REMARK  status: ('A' for Active; 'I' for Inactive)
REMARK    1  A    between atoms: C_1  and  C_2
REMARK    2  A    between atoms: C_2  and  C_3
REMARK    3  A    between atoms: C_2  and  N_15
REMARK    4  A    between atoms: C_16  and  C_18
REMARK    5  A    between atoms: C_18  and  O_19
REMARK    6  A    between atoms: O_19  and  C_20
REMARK                            x       y       z     vdW  Elec       q    Type
REMARK                         _______ _______ _______ _____ _____    ______ ____
ROOT
ATOM      1  N   UNL     1       0.711  -0.489   1.189  0.00  0.00    -0.306 N 
ATOM      2  C   UNL     1       2.054  -0.600   1.174  0.00  0.00    +0.251 C 
ATOM      3  O   UNL     1       2.676  -0.297   0.177  0.00  0.00    -0.272 OA
ATOM      4  H   UNL     1       0.213  -0.731   1.986  0.00  0.00    +0.149 HD
ENDROOT
BRANCH   1   6
ATOM      5  C   UNL     1      -0.019   1.526   0.010  0.00  0.00    +0.033 C 
ATOM      6  C   UNL     1       0.002  -0.004   0.002  0.00  0.00    +0.100 C 
BRANCH   6   7
ATOM      7  C   UNL     1      -1.412  -0.526   0.013  0.00  0.00    -0.025 A 
ATOM      8  C   UNL     1      -2.121  -0.570   1.201  0.00  0.00    +0.007 A 
ATOM      9  C   UNL     1      -3.417  -1.046   1.221  0.00  0.00    +0.028 A 
ATOM     10  C   UNL     1      -4.011  -1.482   0.046  0.00  0.00    +0.067 A 
ATOM     11  C   UNL     1      -3.295  -1.438  -1.153  0.00  0.00    +0.067 A 
ATOM     12  C   UNL     1      -1.996  -0.953  -1.164  0.00  0.00    +0.033 A 
ATOM     13  N   UNL     1      -4.139  -1.932  -2.144  0.00  0.00    -0.306 N 
ATOM     14  H   UNL     1      -3.918  -2.023  -3.084  0.00  0.00    +0.170 HD
ATOM     15  C   UNL     1      -5.314  -2.262  -1.575  0.00  0.00    +0.325 A 
ATOM     16  O   UNL     1      -6.272  -2.725  -2.165  0.00  0.00    -0.247 OA
ATOM     17  N   UNL     1      -5.267  -2.002  -0.255  0.00  0.00    -0.306 N 
ATOM     18  H   UNL     1      -5.986  -2.151   0.379  0.00  0.00    +0.170 HD
ENDBRANCH   6   7
ENDBRANCH   1   6
BRANCH   2  19
ATOM     19  C   UNL     1       2.783  -1.099   2.395  0.00  0.00    +0.324 C 
BRANCH  19  20
ATOM     20  O   UNL     1       4.187  -1.127   2.133  0.00  0.00    -0.483 OA
BRANCH  20  21
ATOM     21  C   UNL     1       4.994  -1.556   3.139  0.00  0.00    +0.122 A 
ATOM     22  C   UNL     1       4.429  -1.948   4.356  0.00  0.00    +0.046 A 
ATOM     23  C   UNL     1       5.210  -2.382   5.381  0.00  0.00    +0.012 A 
ATOM     24  C   UNL     1       6.606  -2.439   5.219  0.00  0.00    -0.018 A 
ATOM     25  C   UNL     1       7.442  -2.883   6.257  0.00  0.00    +0.008 A 
ATOM     26  C   UNL     1       8.789  -2.925   6.065  0.00  0.00    +0.001 A 
ATOM     27  C   UNL     1       9.354  -2.535   4.853  0.00  0.00    +0.001 A 
ATOM     28  C   UNL     1       8.576  -2.100   3.825  0.00  0.00    +0.008 A 
ATOM     29  C   UNL     1       7.180  -2.042   3.986  0.00  0.00    -0.014 A 
ATOM     30  C   UNL     1       6.345  -1.603   2.945  0.00  0.00    +0.054 A 
ENDBRANCH  20  21
ENDBRANCH  19  20
ENDBRANCH   2  19
TORSDOF 5
