REMARK  Name = ZINC32593832
REMARK  6 active torsions:
REMARK  status: ('A' for Active; 'I' for Inactive)
REMARK    1  A    between atoms: C_1  and  C_2
REMARK    2  A    between atoms: C_8  and  C_14
REMARK    3  A    between atoms: C_12  and  C_13
REMARK    4  A    between atoms: C_19  and  S_22
REMARK    5  A    between atoms: S_22  and  C_23
REMARK    6  A    between atoms: C_23  and  C_24
REMARK                            x       y       z     vdW  Elec       q    Type
REMARK                         _______ _______ _______ _____ _____    ______ ____
ROOT
ATOM      1  C   UNL     1       9.561  -3.978  -3.145  0.00  0.00    +0.285 C 
ATOM      2  O   UNL     1       9.825  -4.126  -1.968  0.00  0.00    -0.266 OA
ATOM      3  N   UNL     1       8.427  -3.345  -3.507  0.00  0.00    -0.257 N 
ATOM      4  C   UNL     1       7.564  -2.862  -2.537  0.00  0.00    +0.185 A 
ATOM      5  N   UNL     1       6.414  -2.219  -2.685  0.00  0.00    -0.198 NA
ATOM      6  C   UNL     1       5.754  -1.850  -1.608  0.00  0.00    +0.198 A 
ATOM      7  N   UNL     1       6.250  -2.121  -0.418  0.00  0.00    -0.181 NA
ATOM      8  S   UNL     1       7.702  -2.939  -0.810  0.00  0.00    +0.050 S 
ATOM      9  H   UNL     1       8.188  -3.212  -4.573  0.00  0.00    +0.157 HD
ENDROOT
BRANCH   1  17
ATOM     10  C   UNL     1      13.406  -6.133  -9.714  0.00  0.00    +0.044 C 
ATOM     11  C   UNL     1      12.547  -5.652  -8.574  0.00  0.00    -0.047 A 
ATOM     12  C   UNL     1      12.945  -5.873  -7.274  0.00  0.00    +0.019 A 
ATOM     13  C   UNL     1      12.144  -5.424  -6.224  0.00  0.00    +0.064 A 
ATOM     14  C   UNL     1      12.533  -5.641  -4.817  0.00  0.00    +0.193 A 
ATOM     15  O   UNL     1      13.565  -6.218  -4.521  0.00  0.00    -0.287 OA
ATOM     16  C   UNL     1      11.616  -5.128  -3.789  0.00  0.00    +0.103 A 
ATOM     17  C   UNL     1      10.484  -4.495  -4.182  0.00  0.00    +0.194 A 
ATOM     18  O   UNL     1      10.164  -4.323  -5.473  0.00  0.00    -0.450 OA
ATOM     19  C   UNL     1      10.939  -4.751  -6.488  0.00  0.00    +0.140 A 
ATOM     20  C   UNL     1      10.557  -4.539  -7.809  0.00  0.00    +0.050 A 
ATOM     21  C   UNL     1      11.358  -4.987  -8.838  0.00  0.00    -0.044 A 
ATOM     22  C   UNL     1      10.936  -4.752 -10.265  0.00  0.00    +0.044 C 
ENDBRANCH   1  17
BRANCH   6  23
ATOM     23  S   UNL     1       4.222  -0.993  -1.756  0.00  0.00    -0.081 S 
BRANCH  23  24
ATOM     24  C   UNL     1       3.711  -0.707  -0.039  0.00  0.00    +0.112 C 
BRANCH  24  25
ATOM     25  C   UNL     1       2.396   0.029  -0.022  0.00  0.00    -0.037 A 
ATOM     26  C   UNL     1       1.208  -0.679  -0.014  0.00  0.00    +0.004 A 
ATOM     27  C   UNL     1       0.002  -0.004   0.002  0.00  0.00    +0.000 A 
ATOM     28  C   UNL     1      -0.017   1.378   0.010  0.00  0.00    +0.000 A 
ATOM     29  C   UNL     1       1.171   2.086   0.002  0.00  0.00    +0.000 A 
ATOM     30  C   UNL     1       2.377   1.411  -0.014  0.00  0.00    +0.004 A 
ENDBRANCH  24  25
ENDBRANCH  23  24
ENDBRANCH   6  23
TORSDOF 4
