REMARK  Name = ZINC00044565
REMARK  11 active torsions:
REMARK  status: ('A' for Active; 'I' for Inactive)
REMARK    1  A    between atoms: C_1  and  C_2
REMARK    2  A    between atoms: C_3  and  C_19
REMARK    3  A    between atoms: C_4  and  C_10
REMARK    4  A    between atoms: C_13  and  N_16
REMARK    5  A    between atoms: N_16  and  C_17
REMARK    6  A    between atoms: N_16  and  C_18
REMARK    7  A    between atoms: C_19  and  O_21
REMARK    8  A    between atoms: O_21  and  C_22
REMARK    9  A    between atoms: C_22  and  C_23
REMARK   10  A    between atoms: C_23  and  C_24
REMARK   11  A    between atoms: C_23  and  C_25
REMARK                            x       y       z     vdW  Elec       q    Type
REMARK                         _______ _______ _______ _____ _____    ______ ____
ROOT
ATOM      1  C   UNL     1       0.810   1.132  -0.309  0.00  0.00    +0.061 C 
ATOM      2  C   UNL     1       0.547  -0.351  -0.276  0.00  0.00    +0.021 C 
ATOM      3  C   UNL     1      -0.726  -0.800  -0.238  0.00  0.00    +0.078 C 
ATOM      4  C   UNL     1      -0.944  -2.299  -0.205  0.00  0.00    +0.143 C 
ATOM      5  N   UNL     1       0.258  -3.149  -0.217  0.00  0.00    -0.288 N 
ATOM      6  C   UNL     1       1.466  -2.552  -0.255  0.00  0.00    +0.304 C 
ATOM      7  O   UNL     1       2.465  -3.245  -0.265  0.00  0.00    -0.252 OA
ATOM      8  N   UNL     1       1.601  -1.220  -0.289  0.00  0.00    -0.273 N 
ATOM      9  H   UNL     1       0.183  -4.116  -0.197  0.00  0.00    +0.151 HD
ATOM     10  H   UNL     1       2.498  -0.852  -0.320  0.00  0.00    +0.156 HD
ENDROOT
BRANCH   4  11
ATOM     11  C   UNL     1      -1.787  -2.672  -1.398  0.00  0.00    -0.022 A 
ATOM     12  C   UNL     1      -1.230  -2.671  -2.664  0.00  0.00    +0.007 A 
ATOM     13  C   UNL     1      -1.999  -3.013  -3.759  0.00  0.00    +0.023 A 
ATOM     14  C   UNL     1      -3.334  -3.357  -3.587  0.00  0.00    +0.029 A 
ATOM     15  C   UNL     1      -3.890  -3.357  -2.314  0.00  0.00    +0.023 A 
ATOM     16  C   UNL     1      -3.114  -3.020  -1.223  0.00  0.00    +0.007 A 
BRANCH  14  17
ATOM     17  N   UNL     1      -4.115  -3.703  -4.692  0.00  0.00    -0.336 N 
ATOM     18  C   UNL     1      -3.527  -3.701  -6.034  0.00  0.00    +0.129 C 
ATOM     19  C   UNL     1      -5.523  -4.066  -4.510  0.00  0.00    +0.129 C 
ENDBRANCH  14  17
ENDBRANCH   4  11
BRANCH   3  20
ATOM     20  C   UNL     1      -1.818   0.098  -0.230  0.00  0.00    +0.339 C 
ATOM     21  O   UNL     1      -2.956  -0.327  -0.298  0.00  0.00    -0.245 OA
BRANCH  20  22
ATOM     22  O   UNL     1      -1.598   1.427  -0.147  0.00  0.00    -0.461 OA
BRANCH  22  23
ATOM     23  C   UNL     1      -2.747   2.269  -0.040  0.00  0.00    +0.235 C 
BRANCH  23  24
ATOM     24  C   UNL     1      -2.301   3.718   0.167  0.00  0.00    +0.020 C 
ATOM     25  C   UNL     1      -3.527   4.633   0.184  0.00  0.00    +0.010 C 
ATOM     26  C   UNL     1      -1.556   3.837   1.498  0.00  0.00    +0.010 C 
ENDBRANCH  23  24
ENDBRANCH  22  23
ENDBRANCH  20  22
ENDBRANCH   3  20
TORSDOF 6
