REMARK  Name = ZINC21303317
REMARK  8 active torsions:
REMARK  status: ('A' for Active; 'I' for Inactive)
REMARK    1  A    between atoms: C_4  and  C_7
REMARK    2  A    between atoms: C_7  and  C_9
REMARK    3  A    between atoms: C_7  and  O_12
REMARK    4  A    between atoms: O_12  and  C_13
REMARK    5  A    between atoms: C_13  and  C_15
REMARK    6  A    between atoms: C_15  and  N_16
REMARK    7  A    between atoms: N_16  and  S_17
REMARK    8  A    between atoms: S_17  and  C_20
REMARK                            x       y       z     vdW  Elec       q    Type
REMARK                         _______ _______ _______ _____ _____    ______ ____
ROOT
ATOM      1  C   UNL     1       4.713  -3.410  -2.461  0.00  0.00    +0.226 C 
ENDROOT
BRANCH   1   2
ATOM      2  C   UNL     1       4.739  -2.227  -1.528  0.00  0.00    +0.324 C 
ATOM      3  O   UNL     1       5.772  -1.630  -1.337  0.00  0.00    -0.249 OA
BRANCH   2   4
ATOM      4  O   UNL     1       3.614  -1.836  -0.908  0.00  0.00    -0.446 OA
BRANCH   4   5
ATOM      5  C   UNL     1       3.711  -0.707  -0.038  0.00  0.00    +0.292 C 
BRANCH   5   9
ATOM      6  C   UNL     1      -0.017   1.378   0.010  0.00  0.00    +0.000 A 
ATOM      7  C   UNL     1       1.171   2.086   0.002  0.00  0.00    +0.000 A 
ATOM      8  C   UNL     1       2.377   1.411  -0.013  0.00  0.00    +0.008 A 
ATOM      9  C   UNL     1       2.396   0.029  -0.020  0.00  0.00    +0.002 A 
ATOM     10  C   UNL     1       1.208  -0.679  -0.012  0.00  0.00    +0.008 A 
ATOM     11  C   UNL     1       0.002  -0.004   0.002  0.00  0.00    +0.000 A 
ENDBRANCH   5   9
BRANCH   5  12
ATOM     12  C   UNL     1       4.044  -1.175   1.356  0.00  0.00    +0.256 C 
ATOM     13  O   UNL     1       4.095  -2.361   1.601  0.00  0.00    -0.272 OA
ATOM     14  N   UNL     1       4.285  -0.274   2.329  0.00  0.00    -0.326 N 
ATOM     15  H   UNL     1       4.244   0.675   2.133  0.00  0.00    +0.145 HD
ATOM     16  H   UNL     1       4.499  -0.575   3.226  0.00  0.00    +0.145 HD
ENDBRANCH   5  12
ENDBRANCH   4   5
ENDBRANCH   2   4
ENDBRANCH   1   2
BRANCH   1  17
ATOM     17  N   UNL     1       6.056  -3.631  -3.005  0.00  0.00    -0.179 NA
ATOM     18  H   UNL     1       6.731  -2.940  -2.925  0.00  0.00    +0.149 HD
BRANCH  17  19
ATOM     19  S   UNL     1       6.418  -5.061  -3.757  0.00  0.00    +0.059 S 
ATOM     20  O   UNL     1       7.767  -4.961  -4.192  0.00  0.00    -0.153 OA
ATOM     21  O   UNL     1       5.972  -6.098  -2.894  0.00  0.00    -0.153 OA
BRANCH  19  22
ATOM     22  C   UNL     1       5.426  -5.153  -5.210  0.00  0.00    +0.109 A 
ATOM     23  C   UNL     1       4.171  -5.731  -5.152  0.00  0.00    +0.032 A 
ATOM     24  C   UNL     1       3.386  -5.807  -6.288  0.00  0.00    +0.051 A 
ATOM     25  C   UNL     1       3.861  -5.299  -7.486  0.00  0.00    +0.162 A 
ATOM     26  C   UNL     1       5.120  -4.719  -7.544  0.00  0.00    +0.164 A 
ATOM     27  C   UNL     1       5.902  -4.641  -6.403  0.00  0.00    +0.078 A 
ATOM     28  O   UNL     1       5.579  -4.221  -8.729  0.00  0.00    -0.488 OA
ATOM     29  C   UNL     1       5.862  -5.186  -9.744  0.00  0.00    +0.232 C 
ATOM     30  C   UNL     1       4.600  -5.546 -10.512  0.00  0.00    +0.082 C 
ATOM     31  C   UNL     1       3.569  -6.243  -9.638  0.00  0.00    +0.232 C 
ATOM     32  O   UNL     1       3.097  -5.366  -8.614  0.00  0.00    -0.488 OA
ENDBRANCH  19  22
ENDBRANCH  17  19
ENDBRANCH   1  17
TORSDOF 8
