REMARK  Name = ZINC59423667
REMARK  11 active torsions:
REMARK  status: ('A' for Active; 'I' for Inactive)
REMARK    1  A    between atoms: C_1  and  C_2
REMARK    2  A    between atoms: C_2  and  O_3
REMARK    3  A    between atoms: O_3  and  C_4
REMARK    4  A    between atoms: C_4  and  C_6
REMARK    5  A    between atoms: C_7  and  C_15
REMARK    6  A    between atoms: C_12  and  C_14
REMARK    7  A    between atoms: C_15  and  N_16
REMARK    8  A    between atoms: N_16  and  C_17
REMARK    9  A    between atoms: N_16  and  C_18
REMARK   10  A    between atoms: C_20  and  C_25
REMARK   11  A    between atoms: C_22  and  C_24
REMARK                            x       y       z     vdW  Elec       q    Type
REMARK                         _______ _______ _______ _____ _____    ______ ____
ROOT
ATOM      1  C   UNL     1       2.026  -2.469  -2.054  0.00  0.00    +0.075 C 
ATOM      2  C   UNL     1       1.572  -3.644  -2.541  0.00  0.00    +0.041 C 
ATOM      3  N   UNL     1       1.494  -3.866  -3.886  0.00  0.00    -0.271 N 
ATOM      4  C   UNL     1       1.851  -2.965  -4.810  0.00  0.00    +0.304 C 
ATOM      5  O   UNL     1       1.746  -3.255  -5.986  0.00  0.00    -0.253 OA
ATOM      6  N   UNL     1       2.323  -1.747  -4.479  0.00  0.00    -0.292 N 
ATOM      7  C   UNL     1       2.440  -1.405  -3.051  0.00  0.00    +0.110 C 
ATOM      8  C   UNL     1       3.901  -1.044  -2.776  0.00  0.00    +0.033 C 
ATOM      9  H   UNL     1       1.162  -4.726  -4.189  0.00  0.00    +0.156 HD
ATOM     10  H   UNL     1       2.576  -1.109  -5.164  0.00  0.00    +0.151 HD
ENDROOT
BRANCH   1  11
ATOM     11  C   UNL     1       2.107  -2.237  -0.661  0.00  0.00    +0.338 C 
ATOM     12  O   UNL     1       1.879  -3.141   0.120  0.00  0.00    -0.245 OA
BRANCH  11  13
ATOM     13  O   UNL     1       2.437  -1.012  -0.199  0.00  0.00    -0.462 OA
BRANCH  13  15
ATOM     14  C   UNL     1       2.886   0.594   1.550  0.00  0.00    +0.048 C 
ATOM     15  C   UNL     1       2.500  -0.850   1.219  0.00  0.00    +0.229 C 
ENDBRANCH  13  15
ENDBRANCH  11  13
ENDBRANCH   1  11
BRANCH   2  16
ATOM     16  C   UNL     1       1.145  -4.727  -1.584  0.00  0.00    +0.156 C 
BRANCH  16  17
ATOM     17  N   UNL     1       0.207  -5.630  -2.256  0.00  0.00    -0.327 N 
ATOM     18  C   UNL     1       0.686  -6.891  -2.828  0.00  0.00    +0.129 C 
BRANCH  17  19
ATOM     19  C   UNL     1      -1.144  -5.288  -2.351  0.00  0.00    +0.030 A 
ATOM     20  C   UNL     1      -1.608  -4.114  -1.771  0.00  0.00    +0.026 A 
ATOM     21  C   UNL     1      -2.944  -3.779  -1.868  0.00  0.00    -0.048 A 
ATOM     22  C   UNL     1      -3.820  -4.611  -2.541  0.00  0.00    +0.006 A 
ATOM     23  C   UNL     1      -3.362  -5.780  -3.119  0.00  0.00    -0.048 A 
ATOM     24  C   UNL     1      -2.026  -6.119  -3.031  0.00  0.00    +0.026 A 
ATOM     25  C   UNL     1      -4.320  -6.684  -3.851  0.00  0.00    +0.044 C 
ATOM     26  C   UNL     1      -3.448  -2.506  -1.239  0.00  0.00    +0.044 C 
ENDBRANCH  17  19
ENDBRANCH  16  17
ENDBRANCH   2  16
TORSDOF 6
