REMARK  Name = ZINC54837859
REMARK  8 active torsions:
REMARK  status: ('A' for Active; 'I' for Inactive)
REMARK    1  A    between atoms: C_3  and  N_11
REMARK    2  A    between atoms: C_6  and  C_7
REMARK    3  A    between atoms: C_15  and  N_18
REMARK    4  A    between atoms: N_18  and  C_19
REMARK    5  A    between atoms: C_19  and  C_20
REMARK    6  A    between atoms: C_20  and  C_21
REMARK    7  A    between atoms: C_21  and  S_22
REMARK    8  A    between atoms: S_22  and  N_25
REMARK                            x       y       z     vdW  Elec       q    Type
REMARK                         _______ _______ _______ _____ _____    ______ ____
ROOT
ATOM      1  N   UNL     1       3.599   2.002  -0.022  0.00  0.00    -0.177 N 
ATOM      2  C   UNL     1       4.747   1.295  -0.042  0.00  0.00    +0.293 A 
ATOM      3  O   UNL     1       4.717   0.074  -0.054  0.00  0.00    -0.264 OA
ATOM      4  C   UNL     1       5.975   1.971  -0.051  0.00  0.00    +0.129 A 
ATOM      5  C   UNL     1       5.981   3.354  -0.038  0.00  0.00    +0.071 A 
ATOM      6  C   UNL     1       4.753   4.052  -0.017  0.00  0.00    +0.158 A 
ATOM      7  N   UNL     1       3.624   3.400  -0.015  0.00  0.00    -0.168 NA
ATOM      8 CL   UNL     1       7.468   1.085  -0.076  0.00  0.00    -0.076 Cl
ENDROOT
BRANCH   1  11
ATOM      9  C   UNL     1      -0.017   1.383   0.010  0.00  0.00    +0.017 A 
ATOM     10  C   UNL     1       1.191   2.060   0.002  0.00  0.00    +0.049 A 
ATOM     11  C   UNL     1       2.374   1.331  -0.013  0.00  0.00    +0.158 A 
ATOM     12  N   UNL     1       2.351   0.008  -0.020  0.00  0.00    -0.235 NA
ATOM     13  C   UNL     1       1.216  -0.664  -0.013  0.00  0.00    +0.125 A 
ATOM     14  C   UNL     1       0.002  -0.004   0.002  0.00  0.00    +0.073 A 
BRANCH  14  15
ATOM     15  C   UNL     1      -1.288  -0.783   0.011  0.00  0.00    +0.419 C 
ATOM     16  F   UNL     1      -1.700  -1.017  -1.306  0.00  0.00    -0.166 F 
ATOM     17  F   UNL     1      -1.090  -2.006   0.662  0.00  0.00    -0.166 F 
ATOM     18  F   UNL     1      -2.271  -0.050   0.684  0.00  0.00    -0.166 F 
ENDBRANCH  14  15
ENDBRANCH   1  11
BRANCH   5  19
ATOM     19  N   UNL     1       7.179   4.049  -0.046  0.00  0.00    -0.341 N 
ATOM     20  H   UNL     1       8.020   3.565  -0.060  0.00  0.00    +0.146 HD
BRANCH  19  21
ATOM     21  C   UNL     1       7.177   5.513  -0.032  0.00  0.00    +0.103 C 
BRANCH  21  22
ATOM     22  C   UNL     1       8.618   6.026  -0.044  0.00  0.00    +0.043 C 
BRANCH  22  23
ATOM     23  C   UNL     1       8.616   7.556  -0.030  0.00  0.00    +0.186 C 
BRANCH  23  24
ATOM     24  S   UNL     1      10.325   8.163  -0.045  0.00  0.00    +0.027 S 
ATOM     25  O   UNL     1      10.970   7.839   1.180  0.00  0.00    -0.158 OA
ATOM     26  O   UNL     1      10.941   7.862  -1.289  0.00  0.00    -0.158 OA
BRANCH  24  27
ATOM     27  N   UNL     1      10.191   9.813  -0.028  0.00  0.00    -0.208 NA
ATOM     28  H   UNL     1       9.314  10.229  -0.014  0.00  0.00    +0.144 HD
ATOM     29  H   UNL     1      10.988  10.365  -0.032  0.00  0.00    +0.144 HD
ENDBRANCH  24  27
ENDBRANCH  23  24
ENDBRANCH  22  23
ENDBRANCH  21  22
ENDBRANCH  19  21
ENDBRANCH   5  19
TORSDOF 8
