REMARK  Name = ZINC06752350
REMARK  8 active torsions:
REMARK  status: ('A' for Active; 'I' for Inactive)
REMARK    1  A    between atoms: C_1  and  C_2
REMARK    2  A    between atoms: C_2  and  O_3
REMARK    3  A    between atoms: O_3  and  C_4
REMARK    4  A    between atoms: C_4  and  C_6
REMARK    5  A    between atoms: C_11  and  N_12
REMARK    6  A    between atoms: C_13  and  C_15
REMARK    7  A    between atoms: C_15  and  S_16
REMARK    8  A    between atoms: S_16  and  C_17
REMARK                            x       y       z     vdW  Elec       q    Type
REMARK                         _______ _______ _______ _____ _____    ______ ____
ROOT
ATOM      1  N   UNL     1       0.945  -4.698   1.831  0.00  0.00    -0.284 N 
ATOM      2  C   UNL     1       0.915  -6.013   2.126  0.00  0.00    +0.228 C 
ATOM      3  O   UNL     1       1.336  -6.404   3.194  0.00  0.00    -0.275 OA
ATOM      4  H   UNL     1       0.539  -4.376   1.011  0.00  0.00    +0.155 HD
ENDROOT
BRANCH   1  10
ATOM      5  C   UNL     1       1.042  -2.508   2.863  0.00  0.00    +0.080 A 
ATOM      6  C   UNL     1       1.664  -1.621   3.745  0.00  0.00    +0.017 A 
ATOM      7  C   UNL     1       2.781  -2.019   4.447  0.00  0.00    +0.001 A 
ATOM      8  C   UNL     1       3.291  -3.297   4.283  0.00  0.00    +0.002 A 
ATOM      9  C   UNL     1       2.688  -4.184   3.415  0.00  0.00    +0.024 A 
ATOM     10  C   UNL     1       1.559  -3.803   2.703  0.00  0.00    +0.047 A 
BRANCH   5  11
ATOM     11  C   UNL     1      -0.153  -2.088   2.109  0.00  0.00    +0.341 C 
ATOM     12  O   UNL     1      -0.641  -2.831   1.281  0.00  0.00    -0.245 OA
BRANCH  11  13
ATOM     13  O   UNL     1      -0.705  -0.880   2.339  0.00  0.00    -0.461 OA
BRANCH  13  15
ATOM     14  C   UNL     1      -2.342   0.859   1.970  0.00  0.00    +0.048 C 
ATOM     15  C   UNL     1      -1.861  -0.538   1.573  0.00  0.00    +0.229 C 
ENDBRANCH  13  15
ENDBRANCH  11  13
ENDBRANCH   5  11
ENDBRANCH   1  10
BRANCH   2  16
ATOM     16  C   UNL     1       0.357  -6.996   1.129  0.00  0.00    +0.173 C 
BRANCH  16  17
ATOM     17  S   UNL     1       0.455  -8.673   1.815  0.00  0.00    -0.080 S 
BRANCH  17  18
ATOM     18  C   UNL     1      -0.225  -9.691   0.549  0.00  0.00    +0.146 A 
ATOM     19  N   UNL     1      -1.247  -9.332  -0.284  0.00  0.00    -0.333 N 
ATOM     20  H   UNL     1      -1.719  -8.484  -0.283  0.00  0.00    +0.168 HD
ATOM     21  C   UNL     1      -1.483 -10.402  -1.129  0.00  0.00    +0.083 A 
ATOM     22  C   UNL     1      -2.364 -10.653  -2.165  0.00  0.00    +0.138 A 
ATOM     23  N   UNL     1      -2.338 -11.813  -2.794  0.00  0.00    -0.261 NA
ATOM     24  C   UNL     1      -1.486 -12.771  -2.473  0.00  0.00    +0.113 A 
ATOM     25  C   UNL     1      -0.580 -12.611  -1.463  0.00  0.00    +0.047 A 
ATOM     26  C   UNL     1      -0.561 -11.401  -0.759  0.00  0.00    +0.068 A 
ATOM     27  N   UNL     1       0.178 -10.907   0.261  0.00  0.00    -0.334 N 
ATOM     28  H   UNL     1       0.894 -11.380   0.712  0.00  0.00    +0.168 HD
ENDBRANCH  17  18
ENDBRANCH  16  17
ENDBRANCH   2  16
TORSDOF 7
