REMARK  Name = ZINC32635360
REMARK  5 active torsions:
REMARK  status: ('A' for Active; 'I' for Inactive)
REMARK    1  A    between atoms: C_6  and  O_7
REMARK    2  A    between atoms: O_7  and  C_8
REMARK    3  A    between atoms: C_8  and  C_9
REMARK    4  A    between atoms: C_9  and  N_11
REMARK    5  A    between atoms: N_13  and  C_24
REMARK                            x       y       z     vdW  Elec       q    Type
REMARK                         _______ _______ _______ _____ _____    ______ ____
ROOT
ATOM      1  N   UNL     1      -2.525  -4.042  -0.110  0.00  0.00    -0.156 NA
ATOM      2  C   UNL     1      -3.710  -4.641  -0.154  0.00  0.00    +0.154 C 
ATOM      3  N   UNL     1      -4.964  -4.041  -0.247  0.00  0.00    -0.276 N 
ATOM      4  C   UNL     1      -6.038  -4.937  -0.521  0.00  0.00    +0.116 C 
ATOM      5  C   UNL     1      -7.516  -4.590  -0.384  0.00  0.00    +0.190 C 
ATOM      6  S   UNL     1      -8.206  -6.266  -0.788  0.00  0.00    -0.028 S 
ATOM      7  O   UNL     1      -8.438  -6.347  -2.187  0.00  0.00    -0.174 OA
ATOM      8  O   UNL     1      -9.261  -6.563   0.116  0.00  0.00    -0.174 OA
ATOM      9  C   UNL     1      -6.734  -7.303  -0.360  0.00  0.00    +0.182 C 
ATOM     10  C   UNL     1      -5.833  -6.256   0.316  0.00  0.00    +0.097 C 
ATOM     11  S   UNL     1      -4.052  -6.407  -0.113  0.00  0.00    -0.086 S 
ENDROOT
BRANCH   3  12
ATOM     12  C   UNL     1      -5.155  -2.665  -0.084  0.00  0.00    +0.037 A 
ATOM     13  C   UNL     1      -4.923  -2.072   1.151  0.00  0.00    +0.025 A 
ATOM     14  C   UNL     1      -5.112  -0.713   1.310  0.00  0.00    +0.023 A 
ATOM     15  C   UNL     1      -5.533   0.058   0.241  0.00  0.00    +0.059 A 
ATOM     16  C   UNL     1      -5.765  -0.530  -0.991  0.00  0.00    +0.061 A 
ATOM     17  C   UNL     1      -5.571  -1.888  -1.157  0.00  0.00    +0.045 A 
ATOM     18 CL   UNL     1      -6.294   0.441  -2.329  0.00  0.00    -0.082 Cl
ATOM     19 CL   UNL     1      -5.769   1.766   0.445  0.00  0.00    -0.082 Cl
ENDBRANCH   3  12
BRANCH   1  20
ATOM     20  C   UNL     1      -2.437  -2.728  -0.299  0.00  0.00    +0.276 C 
ATOM     21  O   UNL     1      -2.931  -2.221  -1.287  0.00  0.00    -0.270 OA
BRANCH  20  22
ATOM     22  C   UNL     1      -1.723  -1.868   0.712  0.00  0.00    +0.326 C 
BRANCH  22  23
ATOM     23  O   UNL     1      -1.658  -0.523   0.232  0.00  0.00    -0.483 OA
BRANCH  23  29
ATOM     24  C   UNL     1      -0.943   1.711   0.627  0.00  0.00    +0.047 A 
ATOM     25  C   UNL     1      -0.316   2.636   1.440  0.00  0.00    +0.023 A 
ATOM     26  C   UNL     1       0.213   2.242   2.656  0.00  0.00    +0.041 A 
ATOM     27  C   UNL     1       0.115   0.923   3.061  0.00  0.00    +0.023 A 
ATOM     28  C   UNL     1      -0.510  -0.005   2.251  0.00  0.00    +0.047 A 
ATOM     29  C   UNL     1      -1.042   0.388   1.031  0.00  0.00    +0.121 A 
ATOM     30 CL   UNL     1       1.001   3.405   3.676  0.00  0.00    -0.084 Cl
ENDBRANCH  23  29
ENDBRANCH  22  23
ENDBRANCH  20  22
ENDBRANCH   1  20
TORSDOF 5
