REMARK  Name = ZINC12921102
REMARK  10 active torsions:
REMARK  status: ('A' for Active; 'I' for Inactive)
REMARK    1  A    between atoms: C_1  and  C_2
REMARK    2  A    between atoms: C_2  and  C_3
REMARK    3  A    between atoms: C_3  and  C_4
REMARK    4  A    between atoms: C_4  and  N_5
REMARK    5  A    between atoms: N_5  and  C_6
REMARK    6  A    between atoms: C_7  and  N_22
REMARK    7  A    between atoms: N_8  and  C_15
REMARK    8  A    between atoms: C_15  and  C_16
REMARK    9  A    between atoms: C_23  and  C_25
REMARK   10  A    between atoms: C_29  and  C_35
REMARK                            x       y       z     vdW  Elec       q    Type
REMARK                         _______ _______ _______ _____ _____    ______ ____
ROOT
ATOM      1  C   UNL     1       2.896  -2.283  -2.694  0.00  0.00    +0.140 A 
ATOM      2  C   UNL     1       3.612  -2.925  -1.705  0.00  0.00    +0.128 A 
ATOM      3  N   UNL     1       4.972  -3.074  -1.849  0.00  0.00    -0.276 N 
ATOM      4  C   UNL     1       5.596  -2.600  -2.942  0.00  0.00    +0.331 A 
ATOM      5  O   UNL     1       6.799  -2.741  -3.051  0.00  0.00    -0.246 OA
ATOM      6  N   UNL     1       4.914  -1.972  -3.917  0.00  0.00    -0.273 N 
ATOM      7  H   UNL     1       5.388  -1.639  -4.696  0.00  0.00    +0.173 HD
ATOM      8  C   UNL     1       3.580  -1.805  -3.827  0.00  0.00    +0.277 A 
ATOM      9  O   UNL     1       2.971  -1.239  -4.719  0.00  0.00    -0.266 OA
ENDROOT
BRANCH   1  10
ATOM     10  N   UNL     1       1.500  -2.115  -2.575  0.00  0.00    -0.263 N 
ATOM     11  C   UNL     1       0.667  -2.775  -3.407  0.00  0.00    +0.241 C 
ATOM     12  O   UNL     1       1.111  -3.587  -4.192  0.00  0.00    -0.273 OA
BRANCH  11  13
ATOM     13  C   UNL     1      -0.815  -2.505  -3.360  0.00  0.00    +0.173 C 
ATOM     14  C   UNL     1      -1.387  -3.139  -2.071  0.00  0.00    +0.103 C 
ATOM     15  S   UNL     1      -2.930  -3.909  -2.739  0.00  0.00    -0.133 S 
ATOM     16  C   UNL     1      -2.275  -4.192  -4.436  0.00  0.00    +0.082 C 
ATOM     17  N   UNL     1      -1.414  -2.996  -4.605  0.00  0.00    -0.275 N 
ATOM     18  C   UNL     1      -1.456  -2.647  -5.919  0.00  0.00    +0.217 C 
ATOM     19  O   UNL     1      -0.677  -1.890  -6.458  0.00  0.00    -0.276 OA
ATOM     20  C   UNL     1      -2.610  -3.333  -6.613  0.00  0.00    +0.099 C 
ATOM     21  C   UNL     1      -3.395  -4.011  -5.474  0.00  0.00    +0.046 C 
ATOM     22  C   UNL     1      -1.533  -5.522  -4.582  0.00  0.00    +0.044 C 
ENDBRANCH  11  13
BRANCH  10  23
ATOM     23  C   UNL     1       0.955  -1.222  -1.549  0.00  0.00    +0.114 C 
BRANCH  23  24
ATOM     24  C   UNL     1       0.939   0.213  -2.078  0.00  0.00    +0.019 C 
BRANCH  24  26
ATOM     25  C   UNL     1       0.354   2.581  -1.535  0.00  0.00    +0.004 C 
ATOM     26  C   UNL     1       0.370   1.145  -1.006  0.00  0.00    -0.002 C 
ENDBRANCH  24  26
ENDBRANCH  23  24
ENDBRANCH  10  23
ENDBRANCH   1  10
BRANCH   2  27
ATOM     27  N   UNL     1       2.974  -3.409  -0.588  0.00  0.00    -0.343 N 
ATOM     28  H   UNL     1       2.021  -3.271  -0.476  0.00  0.00    +0.144 HD
ATOM     29  H   UNL     1       3.478  -3.888   0.089  0.00  0.00    +0.144 HD
ENDBRANCH   2  27
BRANCH   3  30
ATOM     30  C   UNL     1       5.745  -3.753  -0.806  0.00  0.00    +0.163 C 
BRANCH  30  31
ATOM     31  C   UNL     1       5.803  -5.229  -1.105  0.00  0.00    -0.028 A 
ATOM     32  C   UNL     1       4.825  -6.073  -0.614  0.00  0.00    +0.005 A 
ATOM     33  C   UNL     1       4.879  -7.427  -0.889  0.00  0.00    +0.000 A 
ATOM     34  C   UNL     1       5.911  -7.937  -1.655  0.00  0.00    +0.000 A 
ATOM     35  C   UNL     1       6.889  -7.092  -2.147  0.00  0.00    +0.000 A 
ATOM     36  C   UNL     1       6.832  -5.738  -1.876  0.00  0.00    +0.005 A 
ENDBRANCH  30  31
ENDBRANCH   3  30
TORSDOF 8
