REMARK  Name = ZINC28294585
REMARK  6 active torsions:
REMARK  status: ('A' for Active; 'I' for Inactive)
REMARK    1  A    between atoms: C_1  and  C_2
REMARK    2  A    between atoms: C_2  and  C_3
REMARK    3  A    between atoms: C_3  and  O_31
REMARK    4  A    between atoms: C_8  and  C_30
REMARK    5  A    between atoms: C_19  and  C_29
REMARK    6  A    between atoms: N_23  and  N_24
REMARK                            x       y       z     vdW  Elec       q    Type
REMARK                         _______ _______ _______ _____ _____    ______ ____
ROOT
ATOM      1  C   UNL     1       7.099   3.179  -0.572  0.00  0.00    +0.071 C 
ATOM      2  C   UNL     1       6.886   4.107   0.652  0.00  0.00    +0.035 C 
ATOM      3  C   UNL     1       5.412   3.913   1.100  0.00  0.00    +0.007 C 
ATOM      4  C   UNL     1       4.951   2.676   0.314  0.00  0.00    +0.001 C 
ATOM      5  C   UNL     1       5.665   2.867  -1.039  0.00  0.00    -0.000 C 
ATOM      6  C   UNL     1       5.498   1.671  -1.935  0.00  0.00    +0.010 C 
ATOM      7  C   UNL     1       4.120   1.019  -1.745  0.00  0.00    +0.005 C 
ATOM      8  C   UNL     1       3.096   2.018  -1.228  0.00  0.00    -0.001 C 
ATOM      9  C   UNL     1       3.470   2.485   0.177  0.00  0.00    -0.004 C 
ATOM     10  C   UNL     1       2.643   3.704   0.569  0.00  0.00    +0.004 C 
ATOM     11  C   UNL     1       1.172   3.448   0.199  0.00  0.00    +0.005 C 
ATOM     12  C   UNL     1       0.967   1.948   0.043  0.00  0.00    +0.001 C 
ATOM     13  C   UNL     1       1.685   1.430  -1.205  0.00  0.00    -0.025 C 
ATOM     14  C   UNL     1       1.697  -0.095  -1.184  0.00  0.00    +0.013 C 
ATOM     15  C   UNL     1       0.255  -0.619  -1.225  0.00  0.00    +0.053 C 
ATOM     16  C   UNL     1      -0.561   0.044  -0.139  0.00  0.00    +0.037 C 
ATOM     17  N   UNL     1      -1.288  -0.655   0.648  0.00  0.00    -0.188 NA
ATOM     18  C   UNL     1      -0.506   1.554   0.002  0.00  0.00    +0.056 C 
ATOM     19  C   UNL     1       0.967   1.914  -2.467  0.00  0.00    +0.012 C 
ATOM     20  C   UNL     1       5.174   4.134  -1.762  0.00  0.00    +0.014 C 
ENDROOT
BRANCH  17  21
ATOM     21  N   UNL     1      -1.968  -0.039   1.706  0.00  0.00    -0.191 N 
ATOM     22  C   UNL     1      -2.642  -0.788   2.602  0.00  0.00    +0.317 C 
ATOM     23  O   UNL     1      -3.232  -0.254   3.520  0.00  0.00    -0.251 OA
ATOM     24  N   UNL     1      -2.661  -2.130   2.478  0.00  0.00    -0.312 N 
ATOM     25  H   UNL     1      -1.952   1.056   1.807  0.00  0.00    +0.179 HD
ATOM     26  H   UNL     1      -3.211  -2.742   3.209  0.00  0.00    +0.147 HD
ATOM     27  H   UNL     1      -2.127  -2.614   1.647  0.00  0.00    +0.147 HD
ENDBRANCH  17  21
BRANCH   1  29
ATOM     28  C   UNL     1       9.222   2.322   0.416  0.00  0.00    +0.007 C 
ATOM     29  C   UNL     1       7.857   1.926  -0.150  0.00  0.00    +0.032 C 
ENDBRANCH   1  29
BRANCH   1  30
ATOM     30  O   UNL     1       7.801   3.873  -1.603  0.00  0.00    -0.388 OA
ATOM     31  H   UNL     1       7.386   4.803  -2.020  0.00  0.00    +0.210 HD
ENDBRANCH   1  30
TORSDOF 3
