REMARK  Name = ZINC05778302
REMARK  4 active torsions:
REMARK  status: ('A' for Active; 'I' for Inactive)
REMARK    1  A    between atoms: C_5  and  C_6
REMARK    2  A    between atoms: C_14  and  N_26
REMARK    3  A    between atoms: C_15  and  N_23
REMARK    4  A    between atoms: C_16  and  C_18
REMARK                            x       y       z     vdW  Elec       q    Type
REMARK                         _______ _______ _______ _____ _____    ______ ____
ROOT
ATOM      1  C   UNL     1       0.167   0.604   0.498  0.00  0.00    +0.015 C 
ATOM      2  C   UNL     1       0.014   1.929   0.040  0.00  0.00    -0.004 C 
ATOM      3  C   UNL     1       1.235   2.742  -0.294  0.00  0.00    +0.039 C 
ATOM      4  C   UNL     1       0.936   4.225  -0.050  0.00  0.00    +0.009 C 
ATOM      5  C   UNL     1      -0.268   4.631  -0.903  0.00  0.00    +0.036 C 
ATOM      6  C   UNL     1      -1.451   3.767  -0.546  0.00  0.00    -0.013 C 
ATOM      7  C   UNL     1      -1.265   2.462  -0.101  0.00  0.00    +0.133 C 
ATOM      8  O   UNL     1      -2.332   1.693   0.221  0.00  0.00    -0.440 OA
ATOM      9  C   UNL     1      -3.522   2.265   0.485  0.00  0.00    +0.211 C 
ATOM     10  C   UNL     1      -3.820   3.493   0.090  0.00  0.00    +0.172 C 
ATOM     11  C   UNL     1      -2.842   4.330  -0.684  0.00  0.00    +0.108 C 
ENDROOT
BRANCH   1  16
ATOM     12  C   UNL     1       1.752  -1.140   1.298  0.00  0.00    +0.015 A 
ATOM     13  C   UNL     1       2.988  -1.650   1.194  0.00  0.00    +0.046 A 
ATOM     14  S   UNL     1       3.800  -0.623  -0.011  0.00  0.00    -0.104 S 
ATOM     15  C   UNL     1       2.514   0.474  -0.387  0.00  0.00    +0.053 A 
ATOM     16  C   UNL     1       1.420  -0.001   0.474  0.00  0.00    -0.018 A 
ENDBRANCH   1  16
BRANCH  11  17
ATOM     17  C   UNL     1      -3.235   4.341  -2.139  0.00  0.00    -0.027 A 
ATOM     18  C   UNL     1      -3.557   5.528  -2.770  0.00  0.00    +0.012 A 
ATOM     19  C   UNL     1      -3.900   5.503  -4.081  0.00  0.00    +0.045 A 
ATOM     20  S   UNL     1      -3.788   3.762  -4.459  0.00  0.00    -0.105 S 
ATOM     21  C   UNL     1      -3.284   3.186  -2.846  0.00  0.00    +0.049 A 
ENDBRANCH  11  17
BRANCH  10  22
ATOM     22  N   UNL     1      -5.150   4.054   0.418  0.00  0.00    +0.058 N 
ATOM     23  O   UNL     1      -6.062   3.295   0.992  0.00  0.00    -0.126 OA
ATOM     24  O   UNL     1      -5.422   5.311   0.138  0.00  0.00    -0.126 OA
ENDBRANCH  10  22
BRANCH   9  25
ATOM     25  N   UNL     1      -4.469   1.543   1.198  0.00  0.00    -0.328 N 
ATOM     26  H   UNL     1      -4.606   0.602   1.007  0.00  0.00    +0.145 HD
ATOM     27  H   UNL     1      -4.994   1.979   1.887  0.00  0.00    +0.145 HD
ENDBRANCH   9  25
TORSDOF 4
