REMARK  Name = ZINC08712497
REMARK  8 active torsions:
REMARK  status: ('A' for Active; 'I' for Inactive)
REMARK    1  A    between atoms: C_4  and  C_7
REMARK    2  A    between atoms: C_7  and  N_8
REMARK    3  A    between atoms: N_8  and  C_9
REMARK    4  A    between atoms: C_9  and  C_11
REMARK    5  A    between atoms: C_9  and  C_16
REMARK    6  A    between atoms: N_18  and  C_19
REMARK    7  A    between atoms: C_28  and  C_30
REMARK    8  A    between atoms: C_30  and  N_31
REMARK                            x       y       z     vdW  Elec       q    Type
REMARK                         _______ _______ _______ _____ _____    ______ ____
ROOT
ATOM      1  N   UNL     1       2.624   3.474   0.273  0.00  0.00    -0.280 N 
ATOM      2  C   UNL     1       2.106   4.551   0.897  0.00  0.00    +0.238 C 
ATOM      3  O   UNL     1       0.912   4.756   0.861  0.00  0.00    -0.274 OA
ENDROOT
BRANCH   1   4
ATOM      4  C   UNL     1       4.057   3.188   0.372  0.00  0.00    +0.144 C 
BRANCH   4   8
ATOM      5  C   UNL     1       6.274   6.776  -0.304  0.00  0.00    +0.000 A 
ATOM      6  C   UNL     1       6.316   6.161   0.933  0.00  0.00    +0.000 A 
ATOM      7  C   UNL     1       5.598   5.000   1.152  0.00  0.00    +0.005 A 
ATOM      8  C   UNL     1       4.839   4.454   0.133  0.00  0.00    -0.030 A 
ATOM      9  C   UNL     1       4.802   5.066  -1.106  0.00  0.00    +0.005 A 
ATOM     10  C   UNL     1       5.516   6.230  -1.323  0.00  0.00    +0.000 A 
ENDBRANCH   4   8
ENDBRANCH   1   4
BRANCH   1  11
ATOM     11  C   UNL     1       1.752   2.589  -0.504  0.00  0.00    +0.199 C 
BRANCH  11  12
ATOM     12  C   UNL     1       1.709   1.230   0.145  0.00  0.00    +0.019 A 
ATOM     13  C   UNL     1       0.637   0.440   0.401  0.00  0.00    +0.013 A 
ATOM     14  C   UNL     1       0.837  -0.783   1.013  0.00  0.00    +0.008 A 
ATOM     15  C   UNL     1       2.099  -1.157   1.339  0.00  0.00    +0.045 A 
ATOM     16  S   UNL     1       3.055   0.242   0.777  0.00  0.00    -0.099 S 
ENDBRANCH  11  12
BRANCH  11  17
ATOM     17  C   UNL     1       2.290   2.459  -1.906  0.00  0.00    +0.243 C 
ATOM     18  O   UNL     1       3.421   2.818  -2.158  0.00  0.00    -0.273 OA
ATOM     19  N   UNL     1       1.514   1.943  -2.880  0.00  0.00    -0.284 N 
ATOM     20  H   UNL     1       0.637   1.589  -2.665  0.00  0.00    +0.155 HD
BRANCH  19  21
ATOM     21  C   UNL     1       1.976   1.916  -4.203  0.00  0.00    +0.037 A 
ATOM     22  C   UNL     1       2.820   2.918  -4.664  0.00  0.00    +0.027 A 
ATOM     23  C   UNL     1       3.279   2.891  -5.967  0.00  0.00    +0.051 A 
ATOM     24  C   UNL     1       2.891   1.870  -6.819  0.00  0.00    +0.166 A 
ATOM     25  C   UNL     1       2.041   0.867  -6.361  0.00  0.00    +0.168 A 
ATOM     26  C   UNL     1       1.585   0.892  -5.054  0.00  0.00    +0.072 A 
ATOM     27  O   UNL     1       1.812  -0.011  -7.381  0.00  0.00    -0.453 OA
ATOM     28  C   UNL     1       2.200   0.684  -8.581  0.00  0.00    +0.466 C 
ATOM     29  O   UNL     1       3.195   1.620  -8.127  0.00  0.00    -0.453 OA
ENDBRANCH  19  21
ENDBRANCH  11  17
ENDBRANCH   1  11
BRANCH   2  30
ATOM     30  C   UNL     1       3.013   5.499   1.638  0.00  0.00    +0.241 C 
BRANCH  30  31
ATOM     31  N   UNL     1       2.204   6.508   2.328  0.00  0.00    -0.235 N 
ATOM     32  C   UNL     1       1.805   7.725   1.828  0.00  0.00    +0.090 A 
ATOM     33  C   UNL     1       1.984   8.376   0.612  0.00  0.00    +0.029 A 
ATOM     34  C   UNL     1       1.437   9.613   0.417  0.00  0.00    +0.002 A 
ATOM     35  C   UNL     1       0.697  10.225   1.421  0.00  0.00    +0.002 A 
ATOM     36  C   UNL     1       0.502   9.605   2.620  0.00  0.00    +0.032 A 
ATOM     37  C   UNL     1       1.052   8.336   2.845  0.00  0.00    +0.113 A 
ATOM     38  N   UNL     1       1.031   7.496   3.900  0.00  0.00    -0.129 NA
ATOM     39  N   UNL     1       1.691   6.425   3.631  0.00  0.00    -0.064 NA
ENDBRANCH  30  31
ENDBRANCH   2  30
TORSDOF 8
