REMARK  Name = ZINC17068803
REMARK  9 active torsions:
REMARK  status: ('A' for Active; 'I' for Inactive)
REMARK    1  A    between atoms: C_1  and  C_2
REMARK    2  A    between atoms: C_4  and  C_23
REMARK    3  A    between atoms: C_5  and  S_9
REMARK    4  A    between atoms: C_6  and  C_8
REMARK    5  A    between atoms: S_9  and  N_12
REMARK    6  A    between atoms: N_12  and  N_13
REMARK    7  A    between atoms: C_14  and  C_15
REMARK    8  A    between atoms: C_18  and  O_22
REMARK    9  A    between atoms: C_19  and  O_21
REMARK                            x       y       z     vdW  Elec       q    Type
REMARK                         _______ _______ _______ _____ _____    ______ ____
ROOT
ATOM      1  N   UNL     1      -0.230   1.583  -0.375  0.00  0.00    -0.137 N 
ATOM      2  H   UNL     1      -0.575   0.678  -0.420  0.00  0.00    +0.197 HD
ENDROOT
BRANCH   1   3
ATOM      3  S   UNL     1       1.366   1.845  -0.021  0.00  0.00    +0.087 S 
ATOM      4  O   UNL     1       1.924   0.578   0.301  0.00  0.00    -0.149 OA
ATOM      5  O   UNL     1       1.884   2.663  -1.062  0.00  0.00    -0.149 OA
BRANCH   3  10
ATOM      6  C   UNL     1       1.558   5.146   5.026  0.00  0.00    +0.044 C 
ATOM      7  C   UNL     1       1.510   4.322   3.765  0.00  0.00    -0.050 A 
ATOM      8  C   UNL     1       1.307   4.937   2.544  0.00  0.00    +0.008 A 
ATOM      9  C   UNL     1       1.264   4.181   1.388  0.00  0.00    -0.023 A 
ATOM     10  C   UNL     1       1.423   2.809   1.452  0.00  0.00    +0.116 A 
ATOM     11  C   UNL     1       1.620   2.193   2.674  0.00  0.00    -0.023 A 
ATOM     12  C   UNL     1       1.669   2.950   3.830  0.00  0.00    +0.008 A 
ATOM     13  C   UNL     1       1.787   0.697   2.746  0.00  0.00    +0.046 C 
ATOM     14  C   UNL     1       1.042   4.851   0.056  0.00  0.00    +0.046 C 
ENDBRANCH   3  10
ENDBRANCH   1   3
BRANCH   1  15
ATOM     15  N   UNL     1      -1.082   2.670  -0.613  0.00  0.00    -0.174 NA
ATOM     16  C   UNL     1      -2.332   2.465  -0.895  0.00  0.00    +0.139 C 
BRANCH  16  17
ATOM     17  C   UNL     1      -3.228   3.608  -1.147  0.00  0.00    -0.002 A 
ATOM     18  C   UNL     1      -2.735   4.914  -1.076  0.00  0.00    +0.013 A 
ATOM     19  C   UNL     1      -3.574   5.982  -1.317  0.00  0.00    +0.050 A 
ATOM     20  C   UNL     1      -4.910   5.764  -1.619  0.00  0.00    +0.158 A 
ATOM     21  C   UNL     1      -5.410   4.466  -1.685  0.00  0.00    +0.159 A 
ATOM     22  C   UNL     1      -4.574   3.390  -1.450  0.00  0.00    +0.058 A 
BRANCH  21  23
ATOM     23  O   UNL     1      -6.721   4.256  -1.982  0.00  0.00    -0.503 OA
ATOM     24  H   UNL     1      -7.300   4.228  -1.208  0.00  0.00    +0.292 HD
ENDBRANCH  21  23
BRANCH  20  25
ATOM     25  O   UNL     1      -5.734   6.821  -1.850  0.00  0.00    -0.503 OA
ATOM     26  H   UNL     1      -6.172   7.159  -1.057  0.00  0.00    +0.292 HD
ENDBRANCH  20  25
ENDBRANCH  16  17
ENDBRANCH   1  15
TORSDOF 6
