REMARK  Name = ZINC59456574
REMARK  5 active torsions:
REMARK  status: ('A' for Active; 'I' for Inactive)
REMARK    1  A    between atoms: C_1  and  C_2
REMARK    2  A    between atoms: C_2  and  N_3
REMARK    3  A    between atoms: C_18  and  S_19
REMARK    4  A    between atoms: S_19  and  C_20
REMARK    5  A    between atoms: C_20  and  C_21
REMARK                            x       y       z     vdW  Elec       q    Type
REMARK                         _______ _______ _______ _____ _____    ______ ____
ROOT
ATOM      1  N   UNL     1      -1.372  -0.511   0.012  0.00  0.00    -0.325 N 
ATOM      2  C   UNL     1      -2.069  -0.877   1.150  0.00  0.00    +0.053 A 
ATOM      3  C   UNL     1      -1.733  -0.884   2.499  0.00  0.00    +0.026 A 
ATOM      4  C   UNL     1      -2.650  -1.312   3.436  0.00  0.00    +0.002 A 
ATOM      5  C   UNL     1      -3.911  -1.739   3.045  0.00  0.00    +0.001 A 
ATOM      6  C   UNL     1      -4.262  -1.740   1.713  0.00  0.00    +0.012 A 
ATOM      7  C   UNL     1      -3.346  -1.310   0.756  0.00  0.00    +0.029 A 
ATOM      8  C   UNL     1      -3.387  -1.183  -0.711  0.00  0.00    +0.136 A 
ATOM      9  C   UNL     1      -2.146  -0.683  -1.097  0.00  0.00    +0.152 A 
ATOM     10  N   UNL     1      -1.929  -0.467  -2.435  0.00  0.00    -0.237 N 
ATOM     11  C   UNL     1      -2.942  -0.748  -3.332  0.00  0.00    +0.276 A 
ATOM     12  N   UNL     1      -4.114  -1.224  -2.886  0.00  0.00    -0.108 NA
ATOM     13  N   UNL     1      -4.322  -1.439  -1.635  0.00  0.00    -0.142 NA
ATOM     14  N   UNL     1      -2.475  -0.455  -4.531  0.00  0.00    -0.106 NA
ATOM     15  N   UNL     1      -1.268  -0.020  -4.435  0.00  0.00    -0.120 NA
ATOM     16  C   UNL     1      -0.886  -0.007  -3.176  0.00  0.00    +0.199 A 
ENDROOT
BRANCH   1  18
ATOM     17  C   UNL     1      -0.019   1.525  -0.044  0.00  0.00    +0.027 C 
ATOM     18  C   UNL     1       0.002  -0.004   0.002  0.00  0.00    +0.120 C 
ENDBRANCH   1  18
BRANCH  16  19
ATOM     19  S   UNL     1       0.684   0.509  -2.565  0.00  0.00    -0.076 S 
BRANCH  19  20
ATOM     20  C   UNL     1       1.596   0.996  -4.055  0.00  0.00    +0.173 C 
BRANCH  20  21
ATOM     21  C   UNL     1       2.975   1.465  -3.669  0.00  0.00    +0.229 C 
ATOM     22  O   UNL     1       3.310   1.470  -2.503  0.00  0.00    -0.275 OA
ATOM     23  N   UNL     1       3.837   1.879  -4.619  0.00  0.00    -0.264 N 
ATOM     24  C   UNL     1       5.109   2.311  -4.263  0.00  0.00    +0.164 A 
ATOM     25  N   UNL     1       5.643   2.380  -3.062  0.00  0.00    -0.233 NA
ATOM     26  C   UNL     1       6.876   2.818  -2.888  0.00  0.00    +0.120 A 
ATOM     27  C   UNL     1       7.561   3.190  -3.998  0.00  0.00    +0.068 A 
ATOM     28  S   UNL     1       6.343   2.867  -5.263  0.00  0.00    -0.061 S 
ATOM     29  H   UNL     1       3.570   1.874  -5.552  0.00  0.00    +0.157 HD
ENDBRANCH  20  21
ENDBRANCH  19  20
ENDBRANCH  16  19
TORSDOF 4
