REMARK  Name = ZINC12722632
REMARK  7 active torsions:
REMARK  status: ('A' for Active; 'I' for Inactive)
REMARK    1  A    between atoms: C_1  and  N_2
REMARK    2  A    between atoms: C_3  and  C_19
REMARK    3  A    between atoms: C_6  and  S_7
REMARK    4  A    between atoms: S_7  and  C_8
REMARK    5  A    between atoms: C_8  and  C_9
REMARK    6  A    between atoms: N_15  and  C_16
REMARK    7  A    between atoms: N_15  and  C_17
REMARK                            x       y       z     vdW  Elec       q    Type
REMARK                         _______ _______ _______ _____ _____    ______ ____
ROOT
ATOM      1  S   UNL     1       4.223   2.244  -1.777  0.00  0.00    -0.078 S 
ENDROOT
BRANCH   1   7
ATOM      2  C   UNL     1       6.477   3.493  -3.846  0.00  0.00    +0.153 C 
ATOM      3  N   UNL     1       6.510   3.729  -2.400  0.00  0.00    -0.305 N 
ATOM      4  C   UNL     1       7.431   4.472  -1.699  0.00  0.00    +0.165 A 
ATOM      5  N   UNL     1       7.090   4.415  -0.433  0.00  0.00    -0.128 NA
ATOM      6  N   UNL     1       6.029   3.701  -0.297  0.00  0.00    -0.122 NA
ATOM      7  C   UNL     1       5.629   3.259  -1.468  0.00  0.00    +0.192 A 
BRANCH   4   8
ATOM      8  C   UNL     1       8.591   5.194  -2.265  0.00  0.00    +0.019 A 
ATOM      9  C   UNL     1       9.642   5.589  -1.436  0.00  0.00    +0.011 A 
ATOM     10  C   UNL     1      10.724   6.257  -1.972  0.00  0.00    +0.001 A 
ATOM     11  C   UNL     1      10.763   6.545  -3.324  0.00  0.00    +0.000 A 
ATOM     12  C   UNL     1       9.722   6.161  -4.150  0.00  0.00    +0.001 A 
ATOM     13  C   UNL     1       8.636   5.488  -3.629  0.00  0.00    +0.011 A 
ENDBRANCH   4   8
ENDBRANCH   1   7
BRANCH   1  14
ATOM     14  C   UNL     1       3.598   2.051  -0.089  0.00  0.00    +0.153 C 
BRANCH  14  15
ATOM     15  C   UNL     1       2.359   1.192  -0.107  0.00  0.00    +0.146 A 
ATOM     16  N   UNL     1       1.171   1.753  -0.248  0.00  0.00    -0.199 NA
ATOM     17  C   UNL     1       0.074   0.998  -0.264  0.00  0.00    +0.217 A 
ATOM     18  N   UNL     1       0.176  -0.321  -0.139  0.00  0.00    -0.181 NA
ATOM     19  C   UNL     1       1.373  -0.881   0.002  0.00  0.00    +0.222 A 
ATOM     20  N   UNL     1       2.464  -0.119   0.018  0.00  0.00    -0.198 NA
ATOM     21  N   UNL     1       1.484  -2.250   0.133  0.00  0.00    -0.306 N 
ATOM     22  C   UNL     1       0.281  -3.087   0.116  0.00  0.00    +0.132 C 
ATOM     23  C   UNL     1       2.803  -2.866   0.288  0.00  0.00    +0.132 C 
ATOM     24  N   UNL     1      -1.166   1.584  -0.417  0.00  0.00    -0.327 N 
ATOM     25  H   UNL     1      -1.964   1.033  -0.432  0.00  0.00    +0.145 HD
ATOM     26  H   UNL     1      -1.239   2.547  -0.508  0.00  0.00    +0.145 HD
ENDBRANCH  14  15
ENDBRANCH   1  14
TORSDOF 4
