REMARK  Name = ZINC23616278
REMARK  7 active torsions:
REMARK  status: ('A' for Active; 'I' for Inactive)
REMARK    1  A    between atoms: C_1  and  C_2
REMARK    2  A    between atoms: C_3  and  C_7
REMARK    3  A    between atoms: C_10  and  S_13
REMARK    4  A    between atoms: N_11  and  N_12
REMARK    5  A    between atoms: S_13  and  C_14
REMARK    6  A    between atoms: C_14  and  C_16
REMARK    7  A    between atoms: C_14  and  C_17
REMARK                            x       y       z     vdW  Elec       q    Type
REMARK                         _______ _______ _______ _____ _____    ______ ____
ROOT
ATOM      1  C   UNL     1      -1.209   2.341   0.021  0.00  0.00    +0.185 A 
ATOM      2  N   UNL     1      -1.211   3.654   0.033  0.00  0.00    -0.127 NA
ATOM      3  N   UNL     1      -2.420   4.090   0.036  0.00  0.00    -0.121 NA
ATOM      4  C   UNL     1      -3.264   3.084   0.035  0.00  0.00    +0.209 A 
ATOM      5  N   UNL     1      -2.523   1.935   0.026  0.00  0.00    -0.224 N 
ENDROOT
BRANCH   1   8
ATOM      6  C   UNL     1       1.784   3.273   0.002  0.00  0.00    +0.087 C 
ATOM      7  C   UNL     1       1.286   1.851  -0.000  0.00  0.00    +0.112 A 
ATOM      8  C   UNL     1      -0.018   1.464   0.010  0.00  0.00    +0.061 A 
ATOM      9  C   UNL     1       0.002  -0.004   0.002  0.00  0.00    +0.053 A 
ATOM     10  C   UNL     1       1.298  -0.357  -0.012  0.00  0.00    +0.196 A 
ATOM     11  O   UNL     1       2.054   0.751  -0.013  0.00  0.00    -0.467 OA
ENDBRANCH   1   8
BRANCH   5  12
ATOM     12  N   UNL     1      -2.990   0.652   0.021  0.00  0.00    -0.295 N 
ATOM     13  H   UNL     1      -4.074   0.461   0.026  0.00  0.00    +0.163 HD
ATOM     14  H   UNL     1      -2.284  -0.191   0.012  0.00  0.00    +0.163 HD
ENDBRANCH   5  12
BRANCH   4  15
ATOM     15  S   UNL     1      -5.022   3.195   0.046  0.00  0.00    -0.072 S 
BRANCH  15  16
ATOM     16  C   UNL     1      -5.224   4.993   0.056  0.00  0.00    +0.137 C 
ATOM     17  C   UNL     1      -4.683   5.574  -1.252  0.00  0.00    +0.029 C 
BRANCH  16  18
ATOM     18  C   UNL     1      -6.686   5.334   0.189  0.00  0.00    +0.229 C 
ATOM     19  O   UNL     1      -7.529   4.508  -0.089  0.00  0.00    -0.274 OA
ATOM     20  N   UNL     1      -7.056   6.557   0.619  0.00  0.00    -0.296 N 
ATOM     21  C   UNL     1      -8.480   6.902   0.747  0.00  0.00    +0.113 C 
ATOM     22  C   UNL     1      -8.779   7.147   2.239  0.00  0.00    +0.061 C 
ATOM     23  C   UNL     1      -7.670   7.962   2.821  0.00  0.00    -0.004 A 
ATOM     24  C   UNL     1      -6.431   8.182   2.302  0.00  0.00    -0.020 A 
ATOM     25  C   UNL     1      -5.571   8.981   3.052  0.00  0.00    +0.013 A 
ATOM     26  C   UNL     1      -5.984   9.498   4.232  0.00  0.00    +0.046 A 
ATOM     27  S   UNL     1      -7.650   8.864   4.348  0.00  0.00    -0.101 S 
ATOM     28  C   UNL     1      -6.044   7.565   0.959  0.00  0.00    +0.143 C 
ENDBRANCH  16  18
ENDBRANCH  15  16
ENDBRANCH   4  15
TORSDOF 5
