REMARK  Name = ZINC01771577
REMARK  13 active torsions:
REMARK  status: ('A' for Active; 'I' for Inactive)
REMARK    1  A    between atoms: C_1  and  C_2
REMARK    2  A    between atoms: C_2  and  C_3
REMARK    3  A    between atoms: C_3  and  C_4
REMARK    4  A    between atoms: C_4  and  C_5
REMARK    5  A    between atoms: C_5  and  O_6
REMARK    6  A    between atoms: O_6  and  C_7
REMARK    7  A    between atoms: C_10  and  C_15
REMARK    8  A    between atoms: C_12  and  O_13
REMARK    9  A    between atoms: O_13  and  C_14
REMARK   10  A    between atoms: C_16  and  C_17
REMARK   11  A    between atoms: N_19  and  C_20
REMARK   12  A    between atoms: C_21  and  C_31
REMARK   13  A    between atoms: C_26  and  C_30
REMARK                            x       y       z     vdW  Elec       q    Type
REMARK                         _______ _______ _______ _____ _____    ______ ____
ROOT
ATOM      1  C   UNL     1      -2.168  -1.335   3.539  0.00  0.00    +0.241 C 
ATOM      2  O   UNL     1      -3.201  -1.947   3.341  0.00  0.00    -0.270 OA
ATOM      3  N   UNL     1      -1.439  -0.889   2.497  0.00  0.00    -0.276 N 
ATOM      4  H   UNL     1      -0.616  -0.401   2.654  0.00  0.00    +0.156 HD
ENDROOT
BRANCH   3   5
ATOM      5  C   UNL     1      -1.865  -1.129   1.201  0.00  0.00    +0.085 A 
ATOM      6  C   UNL     1      -1.257  -0.754   0.010  0.00  0.00    +0.068 A 
ATOM      7  C   UNL     1      -1.919  -1.129  -1.228  0.00  0.00    -0.023 A 
ATOM      8  C   UNL     1      -3.069  -1.821  -1.079  0.00  0.00    -0.004 A 
ATOM      9  S   UNL     1      -3.285  -1.969   0.672  0.00  0.00    -0.077 S 
ATOM     10  C   UNL     1      -3.960  -2.339  -2.166  0.00  0.00    +0.046 C 
ATOM     11  C   UNL     1      -3.567  -1.651  -3.482  0.00  0.00    -0.009 C 
ATOM     12  C   UNL     1      -2.045  -1.717  -3.638  0.00  0.00    +0.008 C 
ATOM     13  C   UNL     1      -1.376  -0.799  -2.613  0.00  0.00    +0.037 C 
ATOM     14  C   UNL     1      -4.237  -2.367  -4.655  0.00  0.00    +0.008 C 
BRANCH   6  15
ATOM     15  C   UNL     1       0.002  -0.004   0.002  0.00  0.00    +0.244 C 
ATOM     16  O   UNL     1       1.064  -0.598  -0.011  0.00  0.00    -0.270 OA
ATOM     17  N   UNL     1      -0.016   1.344   0.009  0.00  0.00    -0.325 N 
ATOM     18  H   UNL     1       0.817   1.840   0.004  0.00  0.00    +0.145 HD
ATOM     19  H   UNL     1      -0.863   1.817   0.016  0.00  0.00    +0.145 HD
ENDBRANCH   6  15
ENDBRANCH   3   5
BRANCH   1  21
ATOM     20  C   UNL     1      -2.449  -1.528   5.951  0.00  0.00    +0.013 C 
ATOM     21  C   UNL     1      -1.719  -1.082   4.907  0.00  0.00    +0.068 C 
BRANCH  20  25
ATOM     22  C   UNL     1      -1.139  -0.791   9.920  0.00  0.00    +0.162 A 
ATOM     23  C   UNL     1      -0.389  -0.333   8.846  0.00  0.00    +0.050 A 
ATOM     24  C   UNL     1      -0.807  -0.575   7.556  0.00  0.00    +0.012 A 
ATOM     25  C   UNL     1      -1.997  -1.274   7.326  0.00  0.00    -0.021 A 
ATOM     26  C   UNL     1      -2.753  -1.735   8.410  0.00  0.00    +0.057 A 
ATOM     27  C   UNL     1      -2.323  -1.494   9.700  0.00  0.00    +0.162 A 
BRANCH  27  28
ATOM     28  O   UNL     1      -3.055  -1.940  10.755  0.00  0.00    -0.491 OA
ATOM     29  C   UNL     1      -4.257  -2.653  10.456  0.00  0.00    +0.277 C 
ENDBRANCH  27  28
BRANCH  22  30
ATOM     30  O   UNL     1      -0.719  -0.554  11.190  0.00  0.00    -0.488 OA
BRANCH  30  31
ATOM     31  C   UNL     1       0.503   0.171  11.344  0.00  0.00    +0.229 C 
BRANCH  31  32
ATOM     32  C   UNL     1       0.812   0.339  12.833  0.00  0.00    +0.041 C 
BRANCH  32  33
ATOM     33  C   UNL     1       2.119   1.116  12.998  0.00  0.00    +0.003 C 
BRANCH  33  35
ATOM     34  C   UNL     1       3.736   2.061  14.652  0.00  0.00    +0.004 C 
ATOM     35  C   UNL     1       2.428   1.284  14.487  0.00  0.00    -0.003 C 
ENDBRANCH  33  35
ENDBRANCH  32  33
ENDBRANCH  31  32
ENDBRANCH  30  31
ENDBRANCH  22  30
ENDBRANCH  20  25
ENDBRANCH   1  21
TORSDOF 10
