REMARK  Name = ZINC67028011
REMARK  6 active torsions:
REMARK  status: ('A' for Active; 'I' for Inactive)
REMARK    1  A    between atoms: C_1  and  C_2
REMARK    2  A    between atoms: C_3  and  C_18
REMARK    3  A    between atoms: C_4  and  C_13
REMARK    4  A    between atoms: N_9  and  C_10
REMARK    5  A    between atoms: C_10  and  C_11
REMARK    6  A    between atoms: N_20  and  C_21
REMARK                            x       y       z     vdW  Elec       q    Type
REMARK                         _______ _______ _______ _____ _____    ______ ____
ROOT
ATOM      1  C   UNL     1      -0.062   0.873   0.410  0.00  0.00    +0.061 C 
ATOM      2  C   UNL     1      -0.102  -0.619   0.200  0.00  0.00    +0.022 C 
ATOM      3  C   UNL     1      -1.258  -1.206  -0.175  0.00  0.00    +0.058 C 
ATOM      4  C   UNL     1      -1.254  -2.707  -0.377  0.00  0.00    +0.162 C 
ATOM      5  N   UNL     1       0.020  -3.409  -0.146  0.00  0.00    -0.286 N 
ATOM      6  C   UNL     1       1.093  -2.683   0.227  0.00  0.00    +0.307 C 
ATOM      7  O   UNL     1       2.149  -3.253   0.420  0.00  0.00    -0.252 OA
ATOM      8  N   UNL     1       1.034  -1.355   0.386  0.00  0.00    -0.255 N 
ATOM      9  H   UNL     1       0.085  -4.370  -0.258  0.00  0.00    +0.151 HD
ENDROOT
BRANCH   4  10
ATOM     10  C   UNL     1      -1.687  -2.987  -1.793  0.00  0.00    +0.097 A 
ATOM     11  C   UNL     1      -0.897  -3.644  -2.681  0.00  0.00    +0.094 A 
ATOM     12  S   UNL     1      -1.862  -3.668  -4.055  0.00  0.00    +0.028 S 
ATOM     13  N   UNL     1      -3.158  -2.886  -3.483  0.00  0.00    -0.110 NA
ATOM     14  N   UNL     1      -2.861  -2.616  -2.260  0.00  0.00    -0.144 NA
ENDBRANCH   4  10
BRANCH   3  15
ATOM     15  C   UNL     1      -2.436  -0.443  -0.373  0.00  0.00    +0.248 C 
ATOM     16  O   UNL     1      -3.309  -0.440   0.475  0.00  0.00    -0.270 OA
ATOM     17  N   UNL     1      -2.589   0.279  -1.501  0.00  0.00    -0.282 N 
ATOM     18  H   UNL     1      -1.941   0.202  -2.219  0.00  0.00    +0.155 HD
BRANCH  17  19
ATOM     19  C   UNL     1      -3.682   1.141  -1.635  0.00  0.00    +0.035 A 
ATOM     20  C   UNL     1      -4.196   1.793  -0.521  0.00  0.00    +0.023 A 
ATOM     21  C   UNL     1      -5.275   2.644  -0.657  0.00  0.00    +0.003 A 
ATOM     22  C   UNL     1      -5.845   2.848  -1.901  0.00  0.00    +0.020 A 
ATOM     23  C   UNL     1      -5.335   2.201  -3.013  0.00  0.00    +0.043 A 
ATOM     24  C   UNL     1      -4.252   1.352  -2.884  0.00  0.00    +0.043 A 
ATOM     25 CL   UNL     1      -6.054   2.460  -4.572  0.00  0.00    -0.083 Cl
ENDBRANCH  17  19
ENDBRANCH   3  15
BRANCH   8  26
ATOM     26  C   UNL     1       2.255  -0.652   0.787  0.00  0.00    +0.141 C 
BRANCH  26  27
ATOM     27  C   UNL     1       2.285  -0.513   2.288  0.00  0.00    -0.015 C 
ATOM     28  C   UNL     1       3.314  -0.956   2.966  0.00  0.00    +0.005 C 
ENDBRANCH  26  27
ENDBRANCH   8  26
TORSDOF 5
