REMARK  Name = ZINC08378106
REMARK  6 active torsions:
REMARK  status: ('A' for Active; 'I' for Inactive)
REMARK    1  A    between atoms: C_1  and  O_2
REMARK    2  A    between atoms: O_2  and  C_3
REMARK    3  A    between atoms: C_6  and  S_21
REMARK    4  A    between atoms: C_8  and  C_9
REMARK    5  A    between atoms: N_11  and  C_12
REMARK    6  A    between atoms: S_21  and  N_24
REMARK                            x       y       z     vdW  Elec       q    Type
REMARK                         _______ _______ _______ _____ _____    ______ ____
ROOT
ATOM      1  C   UNL     1       2.462   1.264   0.325  0.00  0.00    +0.132 A 
ATOM      2  C   UNL     1       3.656   1.969   0.305  0.00  0.00    +0.048 A 
ATOM      3  C   UNL     1       3.648   3.340   0.136  0.00  0.00    +0.032 A 
ATOM      4  C   UNL     1       2.451   4.020  -0.020  0.00  0.00    +0.106 A 
ATOM      5  C   UNL     1       1.256   3.335  -0.008  0.00  0.00    +0.045 A 
ATOM      6  C   UNL     1       1.249   1.948   0.162  0.00  0.00    +0.080 A 
ENDROOT
BRANCH   6   7
ATOM      7  C   UNL     1      -0.027   1.208   0.175  0.00  0.00    +0.252 C 
ATOM      8  O   UNL     1      -0.029   0.002   0.324  0.00  0.00    -0.270 OA
ATOM      9  N   UNL     1      -1.191   1.870   0.018  0.00  0.00    -0.281 N 
ATOM     10  H   UNL     1      -1.196   2.839  -0.024  0.00  0.00    +0.155 HD
BRANCH   9  11
ATOM     11  C   UNL     1      -2.390   1.159  -0.086  0.00  0.00    +0.034 A 
ATOM     12  C   UNL     1      -3.566   1.697   0.423  0.00  0.00    +0.023 A 
ATOM     13  C   UNL     1      -4.746   0.991   0.318  0.00  0.00    +0.006 A 
ATOM     14  C   UNL     1      -4.766  -0.253  -0.293  0.00  0.00    -0.044 A 
ATOM     15  C   UNL     1      -3.598  -0.791  -0.801  0.00  0.00    -0.042 A 
ATOM     16  C   UNL     1      -2.412  -0.084  -0.703  0.00  0.00    +0.027 A 
ATOM     17  C   UNL     1      -3.882  -2.146  -1.413  0.00  0.00    +0.036 C 
ATOM     18  C   UNL     1      -5.412  -2.184  -1.615  0.00  0.00    +0.009 C 
ATOM     19  C   UNL     1      -5.915  -1.210  -0.529  0.00  0.00    +0.036 C 
ENDBRANCH   9  11
ENDBRANCH   6   7
BRANCH   4  20
ATOM     20  S   UNL     1       2.458   5.769  -0.235  0.00  0.00    +0.056 S 
ATOM     21  O   UNL     1       3.736   6.109  -0.755  0.00  0.00    -0.153 OA
ATOM     22  O   UNL     1       1.250   6.100  -0.905  0.00  0.00    -0.153 OA
BRANCH  20  23
ATOM     23  N   UNL     1       2.365   6.447   1.273  0.00  0.00    -0.204 NA
ATOM     24  H   UNL     1       2.773   7.311   1.442  0.00  0.00    +0.144 HD
ATOM     25  H   UNL     1       1.903   5.981   1.987  0.00  0.00    +0.144 HD
ENDBRANCH  20  23
ENDBRANCH   4  20
BRANCH   1  27
ATOM     26  C   UNL     1       3.741  -0.709   0.658  0.00  0.00    +0.277 C 
ATOM     27  O   UNL     1       2.468  -0.081   0.497  0.00  0.00    -0.494 OA
ENDBRANCH   1  27
TORSDOF 5
