REMARK  Name = ZINC38132219
REMARK  7 active torsions:
REMARK  status: ('A' for Active; 'I' for Inactive)
REMARK    1  A    between atoms: C_1  and  C_2
REMARK    2  A    between atoms: C_2  and  N_3
REMARK    3  A    between atoms: N_3  and  C_4
REMARK    4  A    between atoms: C_4  and  C_6
REMARK    5  A    between atoms: C_4  and  C_16
REMARK    6  A    between atoms: C_6  and  C_7
REMARK    7  A    between atoms: C_12  and  N_13
REMARK                            x       y       z     vdW  Elec       q    Type
REMARK                         _______ _______ _______ _____ _____    ______ ____
ROOT
ATOM      1  C   UNL     1       0.823  -1.938  -1.112  0.00  0.00    -0.037 C 
ENDROOT
BRANCH   1   2
ATOM      2  C   UNL     1       1.814  -2.532  -2.080  0.00  0.00    -0.061 A 
ATOM      3  C   UNL     1       1.859  -2.083  -3.386  0.00  0.00    +0.003 A 
ATOM      4  C   UNL     1       2.768  -2.627  -4.273  0.00  0.00    +0.014 A 
ATOM      5  C   UNL     1       3.633  -3.622  -3.854  0.00  0.00    +0.013 A 
ATOM      6  C   UNL     1       3.587  -4.071  -2.547  0.00  0.00    +0.014 A 
ATOM      7  C   UNL     1       2.682  -3.523  -1.659  0.00  0.00    +0.003 A 
ATOM      8  I   UNL     1       5.011  -4.448  -5.199  0.00  0.00    -0.044 I 
ENDBRANCH   1   2
BRANCH   1   9
ATOM      9  N   UNL     1       0.730  -0.489  -1.334  0.00  0.00    +0.384 N 
ATOM     10  H   UNL     1       0.327  -0.313  -2.242  0.00  0.00    -0.085 HD
ATOM     11  H   UNL     1       1.653  -0.083  -1.291  0.00  0.00    -0.085 HD
BRANCH   9  13
ATOM     12  C   UNL     1      -0.109   1.634  -0.448  0.00  0.00    -0.017 C 
ATOM     13  C   UNL     1      -0.118   0.112  -0.296  0.00  0.00    -0.085 C 
ENDBRANCH   9  13
ENDBRANCH   1   9
BRANCH   1  14
ATOM     14  C   UNL     1      -0.550  -2.577  -1.333  0.00  0.00    +0.026 C 
BRANCH  14  15
ATOM     15  C   UNL     1      -0.471  -4.053  -1.040  0.00  0.00    -0.018 A 
ATOM     16  C   UNL     1      -0.392  -4.961  -2.079  0.00  0.00    +0.006 A 
ATOM     17  C   UNL     1      -0.319  -6.315  -1.810  0.00  0.00    +0.000 A 
ATOM     18  C   UNL     1      -0.326  -6.760  -0.501  0.00  0.00    +0.002 A 
ATOM     19  C   UNL     1      -0.404  -5.852   0.538  0.00  0.00    +0.033 A 
ATOM     20  C   UNL     1      -0.472  -4.498   0.269  0.00  0.00    +0.129 A 
BRANCH  20  21
ATOM     21  N   UNL     1      -0.551  -3.525   1.382  0.00  0.00    +0.057 N 
ATOM     22  O   UNL     1      -0.455  -3.906   2.525  0.00  0.00    -0.126 OA
ATOM     23  O   UNL     1      -0.712  -2.350   1.147  0.00  0.00    -0.126 OA
ENDBRANCH  20  21
ENDBRANCH  14  15
ENDBRANCH   1  14
TORSDOF 6
