REMARK  Name = ZINC47006434
REMARK  11 active torsions:
REMARK  status: ('A' for Active; 'I' for Inactive)
REMARK    1  A    between atoms: C_1  and  C_2
REMARK    2  A    between atoms: C_3  and  C_8
REMARK    3  A    between atoms: N_6  and  C_7
REMARK    4  A    between atoms: C_8  and  C_10
REMARK    5  A    between atoms: C_8  and  N_11
REMARK    6  A    between atoms: N_14  and  C_15
REMARK    7  A    between atoms: C_18  and  N_22
REMARK    8  A    between atoms: N_22  and  C_23
REMARK    9  A    between atoms: N_22  and  C_24
REMARK   10  A    between atoms: C_24  and  C_25
REMARK   11  A    between atoms: C_24  and  C_26
REMARK                            x       y       z     vdW  Elec       q    Type
REMARK                         _______ _______ _______ _____ _____    ______ ____
ROOT
ATOM      1  N   UNL     1       0.483  -1.401  -3.395  0.00  0.00    -0.292 N 
ATOM      2  C   UNL     1       1.026  -1.105  -4.593  0.00  0.00    +0.304 C 
ATOM      3  O   UNL     1       1.113   0.054  -4.951  0.00  0.00    -0.252 OA
ATOM      4  N   UNL     1       1.473  -2.093  -5.393  0.00  0.00    -0.269 N 
ATOM      5  H   UNL     1       0.413  -2.325  -3.110  0.00  0.00    +0.151 HD
ATOM      6  H   UNL     1       1.465  -3.011  -5.080  0.00  0.00    +0.156 HD
ENDROOT
BRANCH   4   7
ATOM      7  C   UNL     1       1.948  -1.794  -6.677  0.00  0.00    +0.038 A 
ATOM      8  C   UNL     1       1.725  -2.679  -7.723  0.00  0.00    +0.025 A 
ATOM      9  C   UNL     1       2.193  -2.385  -8.989  0.00  0.00    +0.028 A 
ATOM     10  C   UNL     1       2.887  -1.205  -9.217  0.00  0.00    +0.065 A 
ATOM     11  C   UNL     1       3.111  -0.318  -8.169  0.00  0.00    +0.146 A 
ATOM     12  C   UNL     1       2.637  -0.611  -6.904  0.00  0.00    +0.063 A 
ATOM     13  F   UNL     1       3.787   0.831  -8.390  0.00  0.00    -0.203 F 
BRANCH  10  14
ATOM     14  N   UNL     1       3.362  -0.908 -10.501  0.00  0.00    -0.328 N 
ATOM     15  C   UNL     1       2.520  -0.162 -11.439  0.00  0.00    +0.129 C 
BRANCH  14  16
ATOM     16  C   UNL     1       4.701  -1.343 -10.905  0.00  0.00    +0.067 C 
ATOM     17  C   UNL     1       4.593  -2.267 -12.119  0.00  0.00    +0.027 C 
ATOM     18  C   UNL     1       5.546  -0.120 -11.269  0.00  0.00    +0.027 C 
ENDBRANCH  14  16
ENDBRANCH  10  14
ENDBRANCH   4   7
BRANCH   1  19
ATOM     19  C   UNL     1      -0.002  -0.327  -2.526  0.00  0.00    +0.105 C 
ATOM     20  C   UNL     1      -1.434   0.041  -2.920  0.00  0.00    +0.033 C 
BRANCH  19  23
ATOM     21  C   UNL     1      -0.013   1.510   0.007  0.00  0.00    +0.065 C 
ATOM     22  C   UNL     1       0.015   0.003   0.003  0.00  0.00    +0.041 A 
ATOM     23  C   UNL     1       0.020  -0.792  -1.092  0.00  0.00    +0.013 A 
ATOM     24  C   UNL     1       0.050  -2.122  -0.659  0.00  0.00    +0.140 A 
ATOM     25  N   UNL     1       0.062  -2.125   0.649  0.00  0.00    -0.179 NA
ATOM     26  N   UNL     1       0.046  -0.795   1.091  0.00  0.00    -0.271 N 
ATOM     27  C   UNL     1       0.057  -0.350   2.486  0.00  0.00    +0.172 C 
ENDBRANCH  19  23
ENDBRANCH   1  19
TORSDOF 5
