REMARK  Name = ZINC59417641
REMARK  7 active torsions:
REMARK  status: ('A' for Active; 'I' for Inactive)
REMARK    1  A    between atoms: C_3  and  O_24
REMARK    2  A    between atoms: C_4  and  O_23
REMARK    3  A    between atoms: C_6  and  C_7
REMARK    4  A    between atoms: C_7  and  C_9
REMARK    5  A    between atoms: C_9  and  S_10
REMARK    6  A    between atoms: S_10  and  C_11
REMARK    7  A    between atoms: C_16  and  N_20
REMARK                            x       y       z     vdW  Elec       q    Type
REMARK                         _______ _______ _______ _____ _____    ______ ____
ROOT
ATOM      1  C   UNL     1      -2.575  -0.024   0.026  0.00  0.00    +0.156 C 
ENDROOT
BRANCH   1   2
ATOM      2  C   UNL     1      -1.258  -0.758   0.010  0.00  0.00    +0.173 C 
ATOM      3  O   UNL     1      -1.240  -1.970   0.003  0.00  0.00    -0.291 OA
BRANCH   2   9
ATOM      4  C   UNL     1      -0.017   1.395   0.010  0.00  0.00    +0.015 A 
ATOM      5  C   UNL     1       1.167   2.100   0.002  0.00  0.00    +0.050 A 
ATOM      6  C   UNL     1       2.380   1.425  -0.013  0.00  0.00    +0.158 A 
ATOM      7  C   UNL     1       2.408   0.030  -0.021  0.00  0.00    +0.159 A 
ATOM      8  C   UNL     1       1.227  -0.684  -0.013  0.00  0.00    +0.060 A 
ATOM      9  C   UNL     1       0.002  -0.004   0.002  0.00  0.00    +0.022 A 
BRANCH   7  10
ATOM     10  O   UNL     1       3.599  -0.626  -0.036  0.00  0.00    -0.503 OA
ATOM     11  H   UNL     1       3.952  -0.821   0.843  0.00  0.00    +0.292 HD
ENDBRANCH   7  10
BRANCH   6  12
ATOM     12  O   UNL     1       3.543   2.125  -0.021  0.00  0.00    -0.503 OA
ATOM     13  H   UNL     1       3.889   2.323   0.860  0.00  0.00    +0.292 HD
ENDBRANCH   6  12
ENDBRANCH   2   9
ENDBRANCH   1   2
BRANCH   1  14
ATOM     14  S   UNL     1      -3.935  -1.224   0.033  0.00  0.00    -0.091 S 
BRANCH  14  15
ATOM     15  C   UNL     1      -5.386  -0.224   0.052  0.00  0.00    +0.136 A 
ATOM     16  N   UNL     1      -5.483   1.087   0.054  0.00  0.00    -0.233 NA
ATOM     17  C   UNL     1      -6.674   1.726   0.069  0.00  0.00    +0.080 A 
ATOM     18  C   UNL     1      -6.917   3.119   0.074  0.00  0.00    +0.031 A 
ATOM     19  C   UNL     1      -8.198   3.606   0.091  0.00  0.00    +0.035 A 
ATOM     20  C   UNL     1      -9.296   2.758   0.104  0.00  0.00    +0.127 A 
ATOM     21  C   UNL     1      -9.094   1.389   0.099  0.00  0.00    +0.050 A 
ATOM     22  C   UNL     1      -7.815   0.893   0.083  0.00  0.00    +0.042 A 
ATOM     23  S   UNL     1      -7.099  -0.733   0.066  0.00  0.00    -0.061 S 
BRANCH  20  24
ATOM     24  N   UNL     1     -10.668   3.312   0.123  0.00  0.00    +0.056 N 
ATOM     25  O   UNL     1     -10.837   4.509   0.127  0.00  0.00    -0.126 OA
ATOM     26  O   UNL     1     -11.620   2.567   0.134  0.00  0.00    -0.126 OA
ENDBRANCH  20  24
ENDBRANCH  14  15
ENDBRANCH   1  14
TORSDOF 7
