REMARK  Name = ZINC04177417
REMARK  3 active torsions:
REMARK  status: ('A' for Active; 'I' for Inactive)
REMARK    1  A    between atoms: C_6  and  C_7
REMARK    2  A    between atoms: C_10  and  C_21
REMARK    3  A    between atoms: C_14  and  C_17
REMARK                            x       y       z     vdW  Elec       q    Type
REMARK                         _______ _______ _______ _____ _____    ______ ____
ROOT
ATOM      1  C   UNL     1       2.490   1.046  -0.016  0.00  0.00    +0.104 C 
ATOM      2  C   UNL     1       3.070   1.006   1.402  0.00  0.00    +0.063 C 
ATOM      3  C   UNL     1       4.309   0.099   1.406  0.00  0.00    +0.215 C 
ATOM      4  N   UNL     1       5.135   0.464   0.247  0.00  0.00    -0.238 N 
ATOM      5  C   UNL     1       4.698   1.212  -0.790  0.00  0.00    +0.130 A 
ATOM      6  C   UNL     1       5.757   1.340  -1.678  0.00  0.00    +0.095 A 
ATOM      7  C   UNL     1       6.850   0.632  -1.121  0.00  0.00    +0.149 A 
ATOM      8  N   UNL     1       6.467   0.120   0.016  0.00  0.00    -0.177 NA
ATOM      9  N   UNL     1       3.428   1.736  -0.913  0.00  0.00    -0.322 N 
ATOM     10  H   UNL     1       3.111   1.694  -1.870  0.00  0.00    +0.148 HD
ENDROOT
BRANCH   1  16
ATOM     11  C   UNL     1       1.161   3.165   0.008  0.00  0.00    +0.009 A 
ATOM     12  C   UNL     1      -0.043   3.846   0.022  0.00  0.00    +0.050 A 
ATOM     13  C   UNL     1      -1.236   3.145   0.030  0.00  0.00    +0.166 A 
ATOM     14  C   UNL     1      -1.222   1.752   0.017  0.00  0.00    +0.167 A 
ATOM     15  C   UNL     1      -0.013   1.076   0.008  0.00  0.00    +0.055 A 
ATOM     16  C   UNL     1       1.176   1.783   0.000  0.00  0.00    -0.024 A 
ATOM     17  O   UNL     1      -2.510   1.302   0.021  0.00  0.00    -0.453 OA
ATOM     18  C   UNL     1      -3.312   2.428  -0.381  0.00  0.00    +0.466 C 
ATOM     19  O   UNL     1      -2.534   3.567   0.045  0.00  0.00    -0.453 OA
ENDBRANCH   1  16
BRANCH   6  20
ATOM     20  C   UNL     1       5.746   2.070  -2.952  0.00  0.00    +0.246 C 
ATOM     21  O   UNL     1       4.736   2.640  -3.318  0.00  0.00    -0.270 OA
ATOM     22  N   UNL     1       6.856   2.108  -3.716  0.00  0.00    -0.325 N 
ATOM     23  H   UNL     1       7.662   1.654  -3.424  0.00  0.00    +0.145 HD
ATOM     24  H   UNL     1       6.849   2.591  -4.557  0.00  0.00    +0.145 HD
ENDBRANCH   6  20
BRANCH   3  25
ATOM     25  C   UNL     1       5.103   0.311   2.696  0.00  0.00    +0.412 C 
ATOM     26  F   UNL     1       5.476   1.655   2.799  0.00  0.00    -0.168 F 
ATOM     27  F   UNL     1       4.310  -0.039   3.794  0.00  0.00    -0.168 F 
ATOM     28  F   UNL     1       6.250  -0.491   2.675  0.00  0.00    -0.168 F 
ENDBRANCH   3  25
TORSDOF 3
