REMARK  Name = ZINC45026236
REMARK  5 active torsions:
REMARK  status: ('A' for Active; 'I' for Inactive)
REMARK    1  A    between atoms: C_4  and  C_7
REMARK    2  A    between atoms: C_7  and  C_8
REMARK    3  A    between atoms: C_11  and  S_19
REMARK    4  A    between atoms: N_12  and  C_13
REMARK    5  A    between atoms: S_19  and  C_20
REMARK                            x       y       z     vdW  Elec       q    Type
REMARK                         _______ _______ _______ _____ _____    ______ ____
ROOT
ATOM      1  C   UNL     1       4.211  -1.122   1.336  0.00  0.00    +0.143 A 
ATOM      2  N   UNL     1       4.847  -0.355   2.177  0.00  0.00    -0.133 NA
ATOM      3  N   UNL     1       4.871  -0.900   3.341  0.00  0.00    -0.122 NA
ATOM      4  C   UNL     1       4.247  -2.054   3.308  0.00  0.00    +0.202 A 
ATOM      5  N   UNL     1       3.801  -2.231   2.027  0.00  0.00    -0.274 N 
ENDROOT
BRANCH   5   6
ATOM      6  C   UNL     1       3.076  -3.321   1.525  0.00  0.00    +0.050 A 
ATOM      7  C   UNL     1       1.766  -3.149   1.100  0.00  0.00    +0.026 A 
ATOM      8  C   UNL     1       1.054  -4.224   0.606  0.00  0.00    +0.002 A 
ATOM      9  C   UNL     1       1.645  -5.473   0.535  0.00  0.00    +0.000 A 
ATOM     10  C   UNL     1       2.950  -5.647   0.958  0.00  0.00    +0.002 A 
ATOM     11  C   UNL     1       3.668  -4.574   1.447  0.00  0.00    +0.026 A 
ENDBRANCH   5   6
BRANCH   1  12
ATOM     12  C   UNL     1       3.967  -0.838  -0.123  0.00  0.00    +0.111 C 
BRANCH  12  16
ATOM     13  C   UNL     1       7.348  -2.104  -2.407  0.00  0.00    +0.000 A 
ATOM     14  C   UNL     1       6.272  -2.955  -2.235  0.00  0.00    +0.000 A 
ATOM     15  C   UNL     1       5.178  -2.545  -1.496  0.00  0.00    +0.004 A 
ATOM     16  C   UNL     1       5.160  -1.285  -0.928  0.00  0.00    -0.040 A 
ATOM     17  C   UNL     1       6.236  -0.435  -1.100  0.00  0.00    +0.004 A 
ATOM     18  C   UNL     1       7.330  -0.844  -1.840  0.00  0.00    +0.000 A 
ENDBRANCH  12  16
ENDBRANCH   1  12
BRANCH   4  19
ATOM     19  S   UNL     1       4.021  -3.163   4.658  0.00  0.00    -0.030 S 
BRANCH  19  20
ATOM     20  C   UNL     1       4.815  -2.356   6.009  0.00  0.00    +0.111 A 
ATOM     21  C   UNL     1       4.845  -2.952   7.271  0.00  0.00    +0.075 A 
ATOM     22  C   UNL     1       5.480  -2.283   8.301  0.00  0.00    +0.135 A 
ATOM     23  N   UNL     1       6.038  -1.103   8.062  0.00  0.00    -0.203 NA
ATOM     24  C   UNL     1       5.993  -0.562   6.853  0.00  0.00    +0.215 A 
ATOM     25  N   UNL     1       5.399  -1.173   5.840  0.00  0.00    -0.208 NA
ATOM     26  N   UNL     1       6.587   0.670   6.644  0.00  0.00    -0.327 N 
ATOM     27 CL   UNL     1       5.546  -2.979   9.890  0.00  0.00    -0.062 Cl
ATOM     28  H   UNL     1       7.028   1.127   7.377  0.00  0.00    +0.145 HD
ATOM     29  H   UNL     1       6.562   1.077   5.764  0.00  0.00    +0.145 HD
ENDBRANCH  19  20
ENDBRANCH   4  19
TORSDOF 5
