REMARK  Name = ZINC40778520
REMARK  6 active torsions:
REMARK  status: ('A' for Active; 'I' for Inactive)
REMARK    1  A    between atoms: C_1  and  C_2
REMARK    2  A    between atoms: C_11  and  C_13
REMARK    3  A    between atoms: C_11  and  C_14
REMARK    4  A    between atoms: N_16  and  C_17
REMARK    5  A    between atoms: C_20  and  O_24
REMARK    6  A    between atoms: O_24  and  C_25
REMARK                            x       y       z     vdW  Elec       q    Type
REMARK                         _______ _______ _______ _____ _____    ______ ____
ROOT
ATOM      1  C   UNL     1      -0.001   1.501  -0.240  0.00  0.00    +0.044 C 
ATOM      2  C   UNL     1       0.016  -0.005  -0.202  0.00  0.00    -0.048 A 
ATOM      3  C   UNL     1       0.190  -0.722  -1.372  0.00  0.00    +0.007 A 
ATOM      4  C   UNL     1       0.201  -2.105  -1.346  0.00  0.00    +0.048 A 
ATOM      5  C   UNL     1       0.039  -2.774  -0.145  0.00  0.00    +0.144 A 
ATOM      6  C   UNL     1      -0.126  -2.052   1.035  0.00  0.00    +0.076 A 
ATOM      7  C   UNL     1      -0.138  -0.666   1.002  0.00  0.00    +0.030 A 
ATOM      8  N   UNL     1      -0.255  -2.736   2.251  0.00  0.00    -0.279 N 
ATOM      9  C   UNL     1      -0.000  -4.061   2.291  0.00  0.00    +0.270 C 
ATOM     10  O   UNL     1      -0.211  -4.691   3.306  0.00  0.00    -0.271 OA
ATOM     11  C   UNL     1       0.546  -4.755   1.070  0.00  0.00    +0.258 C 
ATOM     12  O   UNL     1       0.029  -4.134  -0.109  0.00  0.00    -0.465 OA
ATOM     13  C   UNL     1       2.073  -4.657   1.069  0.00  0.00    +0.076 C 
ATOM     14  H   UNL     1      -0.523  -2.263   3.054  0.00  0.00    +0.155 HD
ENDROOT
BRANCH  11  15
ATOM     15  C   UNL     1       0.138  -6.205   1.092  0.00  0.00    +0.270 C 
ATOM     16  O   UNL     1      -0.113  -6.749   2.147  0.00  0.00    -0.271 OA
ATOM     17  N   UNL     1       0.052  -6.899  -0.060  0.00  0.00    -0.282 N 
ATOM     18  H   UNL     1       0.178  -6.447  -0.909  0.00  0.00    +0.155 HD
BRANCH  17  19
ATOM     19  C   UNL     1      -0.220  -8.273  -0.032  0.00  0.00    +0.035 A 
ATOM     20  C   UNL     1      -0.959  -8.857  -1.053  0.00  0.00    +0.027 A 
ATOM     21  C   UNL     1      -1.226 -10.211  -1.025  0.00  0.00    +0.049 A 
ATOM     22  C   UNL     1      -0.756 -10.990   0.022  0.00  0.00    +0.138 A 
ATOM     23  C   UNL     1      -0.018 -10.408   1.044  0.00  0.00    +0.084 A 
ATOM     24  C   UNL     1       0.255  -9.054   1.014  0.00  0.00    +0.047 A 
ATOM     25 CL   UNL     1       0.569 -11.383   2.354  0.00  0.00    -0.080 Cl
BRANCH  22  26
ATOM     26  O   UNL     1      -1.020 -12.324   0.049  0.00  0.00    -0.494 OA
ATOM     27  C   UNL     1      -1.785 -12.855  -1.035  0.00  0.00    +0.277 C 
ENDBRANCH  22  26
ENDBRANCH  17  19
ENDBRANCH  11  15
TORSDOF 3
