REMARK  Name = ZINC46280761
REMARK  10 active torsions:
REMARK  status: ('A' for Active; 'I' for Inactive)
REMARK    1  A    between atoms: C_1  and  C_2
REMARK    2  A    between atoms: C_2  and  N_3
REMARK    3  A    between atoms: N_3  and  C_4
REMARK    4  A    between atoms: N_3  and  C_6
REMARK    5  A    between atoms: C_4  and  C_5
REMARK    6  A    between atoms: C_6  and  C_8
REMARK    7  A    between atoms: C_6  and  C_9
REMARK    8  A    between atoms: C_9  and  N_10
REMARK    9  A    between atoms: N_13  and  N_14
REMARK   10  A    between atoms: C_15  and  C_17
REMARK                            x       y       z     vdW  Elec       q    Type
REMARK                         _______ _______ _______ _____ _____    ______ ____
ROOT
ATOM      1  N   UNL     1      -3.427  -1.929  -1.163  0.00  0.00    -0.300 N 
ATOM      2  C   UNL     1      -4.721  -2.177  -1.446  0.00  0.00    +0.316 C 
ATOM      3  O   UNL     1      -5.433  -2.710  -0.617  0.00  0.00    -0.251 OA
ATOM      4  N   UNL     1      -5.225  -1.835  -2.648  0.00  0.00    -0.218 N 
ATOM      5  H   UNL     1      -2.877  -1.440  -1.795  0.00  0.00    +0.150 HD
ATOM      6  H   UNL     1      -6.172  -1.949  -2.827  0.00  0.00    +0.174 HD
ENDROOT
BRANCH   4   7
ATOM      7  N   UNL     1      -4.383  -1.315  -3.639  0.00  0.00    -0.229 N 
ATOM      8  C   UNL     1      -4.902  -0.873  -4.802  0.00  0.00    +0.267 C 
ATOM      9  O   UNL     1      -6.103  -0.927  -4.991  0.00  0.00    -0.268 OA
ATOM     10  H   UNL     1      -3.425  -1.272  -3.488  0.00  0.00    +0.173 HD
BRANCH   8  11
ATOM     11  C   UNL     1      -4.020  -0.329  -5.839  0.00  0.00    +0.076 A 
ATOM     12  C   UNL     1      -4.345   0.175  -7.082  0.00  0.00    +0.024 A 
ATOM     13  C   UNL     1      -3.295   0.631  -7.874  0.00  0.00    -0.036 A 
ATOM     14  C   UNL     1      -2.048   0.532  -7.342  0.00  0.00    -0.006 A 
ATOM     15  S   UNL     1      -2.249  -0.137  -5.821  0.00  0.00    -0.088 S 
ATOM     16  C   UNL     1      -0.747   0.935  -7.970  0.00  0.00    +0.043 C 
ATOM     17  C   UNL     1      -0.988   2.086  -8.953  0.00  0.00    +0.005 C 
ATOM     18  C   UNL     1      -1.301   1.496 -10.325  0.00  0.00    +0.001 C 
ATOM     19  C   UNL     1      -2.558   0.633 -10.265  0.00  0.00    +0.005 C 
ATOM     20  C   UNL     1      -3.552   1.209  -9.261  0.00  0.00    +0.036 C 
ENDBRANCH   8  11
ENDBRANCH   4   7
BRANCH   1  21
ATOM     21  C   UNL     1      -2.850  -2.397   0.100  0.00  0.00    +0.090 C 
BRANCH  21  22
ATOM     22  C   UNL     1      -1.418  -1.876   0.231  0.00  0.00    -0.054 C 
ATOM     23  C   UNL     1      -0.848  -2.287   1.590  0.00  0.00    -0.012 C 
BRANCH  22  24
ATOM     24  N   UNL     1      -1.418  -0.411   0.123  0.00  0.00    +0.382 N 
ATOM     25  H   UNL     1      -1.856  -0.137  -0.744  0.00  0.00    -0.081 HD
BRANCH  24  27
ATOM     26  C   UNL     1      -2.272   1.679   1.073  0.00  0.00    -0.017 C 
ATOM     27  C   UNL     1      -2.165   0.163   1.251  0.00  0.00    -0.082 C 
ENDBRANCH  24  27
BRANCH  24  28
ATOM     28  C   UNL     1      -0.035   0.083   0.150  0.00  0.00    -0.082 C 
ATOM     29  C   UNL     1       0.702  -0.397  -1.102  0.00  0.00    -0.017 C 
ENDBRANCH  24  28
ENDBRANCH  22  24
ENDBRANCH  21  22
ENDBRANCH   1  21
TORSDOF 7
