REMARK  Name = ZINC21535807
REMARK  11 active torsions:
REMARK  status: ('A' for Active; 'I' for Inactive)
REMARK    1  A    between atoms: C_1  and  C_2
REMARK    2  A    between atoms: C_6  and  N_9
REMARK    3  A    between atoms: C_7  and  C_8
REMARK    4  A    between atoms: C_10  and  C_12
REMARK    5  A    between atoms: C_12  and  C_14
REMARK    6  A    between atoms: C_12  and  N_18
REMARK    7  A    between atoms: C_14  and  C_15
REMARK    8  A    between atoms: C_15  and  C_16
REMARK    9  A    between atoms: C_15  and  C_17
REMARK   10  A    between atoms: N_18  and  S_19
REMARK   11  A    between atoms: S_19  and  C_22
REMARK                            x       y       z     vdW  Elec       q    Type
REMARK                         _______ _______ _______ _____ _____    ______ ____
ROOT
ATOM      1  N   UNL     1      -4.267  -1.117   1.739  0.00  0.00    -0.178 NA
ATOM      2  H   UNL     1      -3.329  -1.676   1.869  0.00  0.00    +0.149 HD
ENDROOT
BRANCH   1   3
ATOM      3  S   UNL     1      -5.177  -1.367   0.378  0.00  0.00    +0.059 S 
ATOM      4  O   UNL     1      -6.537  -1.349   0.789  0.00  0.00    -0.153 OA
ATOM      5  O   UNL     1      -4.600  -2.476  -0.298  0.00  0.00    -0.153 OA
BRANCH   3   6
ATOM      6  C   UNL     1      -4.947   0.034  -0.666  0.00  0.00    +0.106 A 
ATOM      7  C   UNL     1      -5.830   1.097  -0.610  0.00  0.00    +0.030 A 
ATOM      8  C   UNL     1      -5.640   2.179  -1.433  0.00  0.00    +0.025 A 
ATOM      9  C   UNL     1      -4.565   2.233  -2.339  0.00  0.00    +0.037 A 
ATOM     10  C   UNL     1      -3.684   1.174  -2.384  0.00  0.00    -0.024 A 
ATOM     11  C   UNL     1      -3.890   0.078  -1.545  0.00  0.00    +0.034 A 
ATOM     12  C   UNL     1      -2.487   1.086  -3.274  0.00  0.00    +0.037 C 
ATOM     13  C   UNL     1      -1.766   2.373  -3.525  0.00  0.00    +0.014 C 
ATOM     14  C   UNL     1      -2.459   3.266  -4.526  0.00  0.00    +0.096 C 
ATOM     15  C   UNL     1      -3.677   3.899  -3.956  0.00  0.00    +0.217 C 
ATOM     16  O   UNL     1      -3.917   5.031  -4.319  0.00  0.00    -0.275 OA
ATOM     17  N   UNL     1      -4.515   3.372  -3.109  0.00  0.00    -0.285 N 
ATOM     18  H   UNL     1      -5.345   4.093  -3.079  0.00  0.00    +0.155 HD
ENDBRANCH   3   6
ENDBRANCH   1   3
BRANCH   1  19
ATOM     19  C   UNL     1      -4.594  -0.014   2.646  0.00  0.00    +0.163 C 
BRANCH  19  21
ATOM     20  N   UNL     1      -5.930   0.329   4.699  0.00  0.00    -0.284 N 
ATOM     21  C   UNL     1      -5.498  -0.516   3.743  0.00  0.00    +0.236 C 
ATOM     22  O   UNL     1      -5.835  -1.681   3.765  0.00  0.00    -0.274 OA
ATOM     23  H   UNL     1      -5.682   1.399   4.641  0.00  0.00    +0.155 HD
BRANCH  20  29
ATOM     24  C   UNL     1      -7.427   0.742   9.364  0.00  0.00    +0.044 C 
ATOM     25  C   UNL     1      -7.440   0.026   8.038  0.00  0.00    -0.046 A 
ATOM     26  C   UNL     1      -8.211  -1.110   7.875  0.00  0.00    +0.004 A 
ATOM     27  C   UNL     1      -8.226  -1.770   6.660  0.00  0.00    +0.002 A 
ATOM     28  C   UNL     1      -7.471  -1.296   5.605  0.00  0.00    +0.023 A 
ATOM     29  C   UNL     1      -6.696  -0.154   5.766  0.00  0.00    +0.037 A 
ATOM     30  C   UNL     1      -6.679   0.503   6.989  0.00  0.00    -0.026 A 
ATOM     31  C   UNL     1      -5.834   1.738   7.170  0.00  0.00    +0.046 C 
ENDBRANCH  20  29
ENDBRANCH  19  21
BRANCH  19  32
ATOM     32  C   UNL     1      -3.307   0.540   3.260  0.00  0.00    +0.032 C 
BRANCH  32  33
ATOM     33  C   UNL     1      -2.462   1.196   2.166  0.00  0.00    -0.015 C 
ATOM     34  C   UNL     1      -1.258   1.895   2.801  0.00  0.00    +0.007 C 
ATOM     35  C   UNL     1      -1.972   0.125   1.188  0.00  0.00    +0.007 C 
ENDBRANCH  32  33
ENDBRANCH  19  32
ENDBRANCH   1  19
TORSDOF 7
