REMARK  Name = ZINC27643498
REMARK  7 active torsions:
REMARK  status: ('A' for Active; 'I' for Inactive)
REMARK    1  A    between atoms: C_1  and  C_2
REMARK    2  A    between atoms: C_5  and  N_9
REMARK    3  A    between atoms: C_6  and  C_8
REMARK    4  A    between atoms: C_10  and  C_12
REMARK    5  A    between atoms: C_12  and  S_13
REMARK    6  A    between atoms: S_13  and  C_14
REMARK    7  A    between atoms: N_20  and  C_21
REMARK                            x       y       z     vdW  Elec       q    Type
REMARK                         _______ _______ _______ _____ _____    ______ ____
ROOT
ATOM      1  S   UNL     1       4.000   3.670   0.218  0.00  0.00    -0.076 S 
ENDROOT
BRANCH   1   2
ATOM      2  C   UNL     1       2.341   4.258   0.122  0.00  0.00    +0.197 A 
ATOM      3  N   UNL     1       1.977   5.508   0.127  0.00  0.00    -0.144 NA
ATOM      4  N   UNL     1       0.579   5.553   0.035  0.00  0.00    -0.225 N 
ATOM      5  H   UNL     1       0.060   6.522   0.028  0.00  0.00    +0.194 HD
ATOM      6  C   UNL     1       0.137   4.280  -0.029  0.00  0.00    +0.349 A 
ATOM      7  O   UNL     1      -1.026   3.926  -0.121  0.00  0.00    -0.245 OA
ATOM      8  N   UNL     1       1.213   3.471   0.028  0.00  0.00    -0.239 N 
BRANCH   8   9
ATOM      9  C   UNL     1       1.190   2.073  -0.006  0.00  0.00    +0.056 A 
ATOM     10  C   UNL     1       0.605   1.342   1.026  0.00  0.00    +0.046 A 
ATOM     11  C   UNL     1       0.602  -0.036   0.954  0.00  0.00    +0.113 A 
ATOM     12  N   UNL     1       1.143  -0.660  -0.075  0.00  0.00    -0.263 NA
ATOM     13  C   UNL     1       1.707  -0.004  -1.071  0.00  0.00    +0.113 A 
ATOM     14  C   UNL     1       1.751   1.375  -1.074  0.00  0.00    +0.046 A 
ENDBRANCH   8   9
ENDBRANCH   1   2
BRANCH   1  15
ATOM     15  C   UNL     1       4.886   5.245   0.314  0.00  0.00    +0.173 C 
BRANCH  15  17
ATOM     16  N   UNL     1       7.231   6.015   0.488  0.00  0.00    -0.285 N 
ATOM     17  C   UNL     1       6.368   4.983   0.406  0.00  0.00    +0.227 C 
ATOM     18  O   UNL     1       6.783   3.844   0.407  0.00  0.00    -0.275 OA
ATOM     19  H   UNL     1       6.851   7.045   0.553  0.00  0.00    +0.155 HD
BRANCH  16  24
ATOM     20  C   UNL     1      12.820   5.044   0.493  0.00  0.00    +0.044 C 
ATOM     21  C   UNL     1      11.335   5.302   0.491  0.00  0.00    -0.050 A 
ATOM     22  C   UNL     1      10.464   4.322   0.931  0.00  0.00    +0.005 A 
ATOM     23  C   UNL     1       9.103   4.555   0.931  0.00  0.00    +0.024 A 
ATOM     24  C   UNL     1       8.609   5.775   0.489  0.00  0.00    +0.036 A 
ATOM     25  C   UNL     1       9.486   6.755   0.043  0.00  0.00    -0.029 A 
ATOM     26  C   UNL     1      10.847   6.518   0.050  0.00  0.00    +0.008 A 
ATOM     27  C   UNL     1       8.954   8.079  -0.444  0.00  0.00    +0.045 C 
ENDBRANCH  16  24
ENDBRANCH  15  17
ENDBRANCH   1  15
TORSDOF 5
