REMARK  Name = ZINC39920717
REMARK  7 active torsions:
REMARK  status: ('A' for Active; 'I' for Inactive)
REMARK    1  A    between atoms: C_1  and  C_2
REMARK    2  A    between atoms: C_5  and  C_8
REMARK    3  A    between atoms: N_19  and  N_20
REMARK    4  A    between atoms: C_21  and  C_23
REMARK    5  A    between atoms: C_23  and  C_25
REMARK    6  A    between atoms: C_23  and  O_26
REMARK    7  A    between atoms: O_26  and  C_27
REMARK                            x       y       z     vdW  Elec       q    Type
REMARK                         _______ _______ _______ _____ _____    ______ ____
ROOT
ATOM      1  C   UNL     1      -0.569  -4.279  -0.144  0.00  0.00    +0.212 C 
ATOM      2  N   UNL     1      -0.125  -4.763  -1.457  0.00  0.00    -0.320 N 
ATOM      3  C   UNL     1       1.234  -4.732  -1.752  0.00  0.00    +0.041 A 
ATOM      4  C   UNL     1       1.700  -4.574  -3.045  0.00  0.00    +0.024 A 
ATOM      5  C   UNL     1       3.061  -4.547  -3.283  0.00  0.00    +0.002 A 
ATOM      6  C   UNL     1       3.962  -4.676  -2.237  0.00  0.00    +0.001 A 
ATOM      7  C   UNL     1       3.513  -4.835  -0.942  0.00  0.00    +0.015 A 
ATOM      8  C   UNL     1       2.144  -4.866  -0.688  0.00  0.00    +0.059 A 
ATOM      9  C   UNL     1       1.611  -5.043   0.674  0.00  0.00    +0.266 C 
ATOM     10  O   UNL     1       2.339  -5.408   1.577  0.00  0.00    -0.268 OA
ATOM     11  N   UNL     1       0.308  -4.796   0.906  0.00  0.00    -0.191 N 
ATOM     12  H   UNL     1      -0.765  -5.097  -2.105  0.00  0.00    +0.148 HD
ENDROOT
BRANCH   1  17
ATOM     13  C   UNL     1      -0.434   1.497  -0.084  0.00  0.00    +0.044 C 
ATOM     14  C   UNL     1      -0.469  -0.009  -0.100  0.00  0.00    -0.050 A 
ATOM     15  C   UNL     1      -0.701  -0.683  -1.285  0.00  0.00    +0.004 A 
ATOM     16  C   UNL     1      -0.733  -2.065  -1.299  0.00  0.00    +0.007 A 
ATOM     17  C   UNL     1      -0.533  -2.773  -0.129  0.00  0.00    -0.008 A 
ATOM     18  C   UNL     1      -0.300  -2.099   1.056  0.00  0.00    +0.007 A 
ATOM     19  C   UNL     1      -0.263  -0.718   1.069  0.00  0.00    +0.004 A 
ENDBRANCH   1  17
BRANCH  11  20
ATOM     20  N   UNL     1      -0.216  -5.037   2.183  0.00  0.00    -0.227 N 
ATOM     21  C   UNL     1      -0.452  -6.301   2.586  0.00  0.00    +0.270 C 
ATOM     22  O   UNL     1      -0.211  -7.230   1.844  0.00  0.00    -0.270 OA
ATOM     23  H   UNL     1      -0.408  -4.295   2.776  0.00  0.00    +0.173 HD
BRANCH  21  24
ATOM     24  C   UNL     1      -1.016  -6.561   3.959  0.00  0.00    +0.257 C 
ATOM     25  C   UNL     1      -2.427  -5.977   4.050  0.00  0.00    +0.062 C 
BRANCH  24  26
ATOM     26  O   UNL     1      -1.067  -7.970   4.194  0.00  0.00    -0.480 OA
BRANCH  26  27
ATOM     27  C   UNL     1      -1.042  -8.380   5.490  0.00  0.00    +0.122 A 
ATOM     28  C   UNL     1      -0.971  -9.733   5.789  0.00  0.00    +0.045 A 
ATOM     29  C   UNL     1      -0.945 -10.148   7.106  0.00  0.00    +0.004 A 
ATOM     30  C   UNL     1      -0.991  -9.216   8.127  0.00  0.00    +0.000 A 
ATOM     31  C   UNL     1      -1.063  -7.867   7.831  0.00  0.00    +0.004 A 
ATOM     32  C   UNL     1      -1.082  -7.447   6.515  0.00  0.00    +0.045 A 
ENDBRANCH  26  27
ENDBRANCH  24  26
ENDBRANCH  21  24
ENDBRANCH  11  20
TORSDOF 5
