REMARK  Name = ZINC65479482
REMARK  8 active torsions:
REMARK  status: ('A' for Active; 'I' for Inactive)
REMARK    1  A    between atoms: C_1  and  C_2
REMARK    2  A    between atoms: C_2  and  C_3
REMARK    3  A    between atoms: C_2  and  N_14
REMARK    4  A    between atoms: C_6  and  S_9
REMARK    5  A    between atoms: S_9  and  N_12
REMARK    6  A    between atoms: N_12  and  C_13
REMARK    7  A    between atoms: C_21  and  C_22
REMARK    8  A    between atoms: N_26  and  C_27
REMARK                            x       y       z     vdW  Elec       q    Type
REMARK                         _______ _______ _______ _____ _____    ______ ____
ROOT
ATOM      1  N   UNL     1      -0.574  -0.199   0.747  0.00  0.00    -0.293 N 
ATOM      2  C   UNL     1      -1.447  -0.415   1.750  0.00  0.00    +0.303 C 
ATOM      3  O   UNL     1      -1.153  -0.103   2.889  0.00  0.00    -0.253 OA
ATOM      4  N   UNL     1      -2.645  -0.976   1.493  0.00  0.00    -0.277 N 
ATOM      5  C   UNL     1      -3.125  -1.406   0.167  0.00  0.00    +0.110 C 
ATOM      6  C   UNL     1      -4.189  -2.492   0.464  0.00  0.00    +0.021 C 
ATOM      7  C   UNL     1      -4.864  -1.926   1.741  0.00  0.00    +0.030 C 
ATOM      8  C   UNL     1      -3.687  -1.267   2.489  0.00  0.00    +0.124 C 
ATOM      9  H   UNL     1      -0.808  -0.447  -0.162  0.00  0.00    +0.151 HD
ENDROOT
BRANCH   8  10
ATOM     10  C   UNL     1      -4.147   0.013   3.137  0.00  0.00    +0.039 A 
ATOM     11  C   UNL     1      -4.219   1.221   2.541  0.00  0.00    +0.024 A 
ATOM     12  C   UNL     1      -4.697   2.137   3.499  0.00  0.00    +0.019 A 
ATOM     13  C   UNL     1      -4.899   1.454   4.644  0.00  0.00    +0.085 A 
ATOM     14  N   UNL     1      -4.569   0.149   4.427  0.00  0.00    -0.352 N 
ATOM     15  C   UNL     1      -4.649  -0.928   5.417  0.00  0.00    +0.148 C 
ENDBRANCH   8  10
BRANCH   1  17
ATOM     16  C   UNL     1       0.586   1.935   1.035  0.00  0.00    +0.033 C 
ATOM     17  C   UNL     1       0.728   0.411   1.026  0.00  0.00    +0.102 C 
BRANCH  17  18
ATOM     18  C   UNL     1       1.713   0.004  -0.039  0.00  0.00    -0.027 A 
ATOM     19  C   UNL     1       1.315  -0.054  -1.362  0.00  0.00    +0.007 A 
ATOM     20  C   UNL     1       2.219  -0.428  -2.339  0.00  0.00    +0.029 A 
ATOM     21  C   UNL     1       3.520  -0.742  -1.994  0.00  0.00    +0.105 A 
ATOM     22  C   UNL     1       3.918  -0.682  -0.671  0.00  0.00    +0.029 A 
ATOM     23  C   UNL     1       3.016  -0.305   0.305  0.00  0.00    +0.007 A 
BRANCH  21  24
ATOM     24  S   UNL     1       4.671  -1.219  -3.240  0.00  0.00    +0.058 S 
ATOM     25  O   UNL     1       5.675  -1.988  -2.592  0.00  0.00    -0.153 OA
ATOM     26  O   UNL     1       3.908  -1.724  -4.327  0.00  0.00    -0.153 OA
BRANCH  24  27
ATOM     27  N   UNL     1       5.408   0.162  -3.780  0.00  0.00    -0.193 NA
ATOM     28  C   UNL     1       6.257   0.942  -2.876  0.00  0.00    +0.127 C 
ATOM     29  H   UNL     1       5.277   0.455  -4.696  0.00  0.00    +0.148 HD
ENDBRANCH  24  27
ENDBRANCH  21  24
ENDBRANCH  17  18
ENDBRANCH   1  17
TORSDOF 5
