REMARK  Name = ZINC59860024
REMARK  10 active torsions:
REMARK  status: ('A' for Active; 'I' for Inactive)
REMARK    1  A    between atoms: C_1  and  C_2
REMARK    2  A    between atoms: C_2  and  N_3
REMARK    3  A    between atoms: N_3  and  C_4
REMARK    4  A    between atoms: N_3  and  C_6
REMARK    5  A    between atoms: C_4  and  C_5
REMARK    6  A    between atoms: C_9  and  C_13
REMARK    7  A    between atoms: C_10  and  O_12
REMARK    8  A    between atoms: N_20  and  C_23
REMARK    9  A    between atoms: C_26  and  C_30
REMARK   10  A    between atoms: C_28  and  C_29
REMARK                            x       y       z     vdW  Elec       q    Type
REMARK                         _______ _______ _______ _____ _____    ______ ____
ROOT
ATOM      1  C   UNL     1      -3.917  -1.494   4.872  0.00  0.00    +0.030 C 
ATOM      2  C   UNL     1      -3.214  -1.352   6.062  0.00  0.00    +0.102 C 
ATOM      3  C   UNL     1      -1.838  -0.835   6.083  0.00  0.00    +0.276 C 
ATOM      4  O   UNL     1      -1.216  -0.481   4.939  0.00  0.00    -0.268 OA
ATOM      5  N   UNL     1      -1.224  -0.723   7.249  0.00  0.00    -0.123 NA
ATOM      6  C   UNL     1      -1.813  -1.064   8.393  0.00  0.00    +0.340 C 
ATOM      7  O   UNL     1      -1.182  -0.932   9.427  0.00  0.00    -0.250 OA
ATOM      8  N   UNL     1      -3.063  -1.543   8.469  0.00  0.00    -0.188 N 
ATOM      9  C   UNL     1      -3.816  -1.706   7.360  0.00  0.00    +0.264 C 
ATOM     10  O   UNL     1      -4.952  -2.137   7.430  0.00  0.00    -0.269 OA
ENDROOT
BRANCH   8  11
ATOM     11  C   UNL     1      -3.598  -1.875   9.721  0.00  0.00    +0.049 A 
ATOM     12  C   UNL     1      -4.292  -0.922  10.455  0.00  0.00    +0.024 A 
ATOM     13  C   UNL     1      -4.819  -1.251  11.688  0.00  0.00    +0.005 A 
ATOM     14  C   UNL     1      -4.657  -2.529  12.192  0.00  0.00    -0.050 A 
ATOM     15  C   UNL     1      -3.966  -3.480  11.463  0.00  0.00    +0.008 A 
ATOM     16  C   UNL     1      -3.442  -3.158  10.227  0.00  0.00    -0.028 A 
ATOM     17  C   UNL     1      -2.696  -4.197   9.430  0.00  0.00    +0.046 C 
ATOM     18  C   UNL     1      -5.233  -2.886  13.538  0.00  0.00    +0.044 C 
ENDBRANCH   8  11
BRANCH   1  22
ATOM     19  C   UNL     1      -1.937  -1.069   1.209  0.00  0.00    +0.033 A 
ATOM     20  C   UNL     1      -1.408  -1.897   2.202  0.00  0.00    +0.024 A 
ATOM     21  C   UNL     1      -2.048  -2.038   3.395  0.00  0.00    +0.013 A 
ATOM     22  C   UNL     1      -3.250  -1.349   3.635  0.00  0.00    +0.017 A 
ATOM     23  C   UNL     1      -3.787  -0.512   2.634  0.00  0.00    +0.126 A 
ATOM     24  C   UNL     1      -3.122  -0.375   1.430  0.00  0.00    +0.069 A 
BRANCH  23  25
ATOM     25  O   UNL     1      -4.946   0.157   2.853  0.00  0.00    -0.506 OA
ATOM     26  H   UNL     1      -4.826   1.034   3.243  0.00  0.00    +0.292 HD
ENDBRANCH  23  25
BRANCH  19  27
ATOM     27  N   UNL     1      -1.275  -0.934  -0.003  0.00  0.00    -0.330 N 
BRANCH  27  29
ATOM     28  C   UNL     1       1.158  -0.807   0.211  0.00  0.00    +0.024 C 
ATOM     29  C   UNL     1      -0.027  -1.663  -0.240  0.00  0.00    +0.102 C 
ENDBRANCH  27  29
BRANCH  27  30
ATOM     30  C   UNL     1      -1.823  -0.062  -1.044  0.00  0.00    +0.102 C 
ATOM     31  C   UNL     1      -2.765  -0.869  -1.941  0.00  0.00    +0.024 C 
ENDBRANCH  27  30
ENDBRANCH  19  27
ENDBRANCH   1  22
TORSDOF 6
