REMARK  Name = ZINC06195901
REMARK  10 active torsions:
REMARK  status: ('A' for Active; 'I' for Inactive)
REMARK    1  A    between atoms: C_1  and  C_2
REMARK    2  A    between atoms: C_5  and  C_41
REMARK    3  A    between atoms: C_6  and  N_8
REMARK    4  A    between atoms: C_13  and  C_15
REMARK    5  A    between atoms: C_13  and  C_29
REMARK    6  A    between atoms: C_13  and  N_74
REMARK    7  A    between atoms: C_20  and  O_27
REMARK    8  A    between atoms: O_27  and  C_28
REMARK    9  A    between atoms: N_33  and  C_34
REMARK   10  A    between atoms: C_34  and  C_35
REMARK                            x       y       z     vdW  Elec       q    Type
REMARK                         _______ _______ _______ _____ _____    ______ ____
ROOT
ATOM      1  C   UNL     1      -8.158   2.692   1.162  0.00  0.00    +0.039 C 
ENDROOT
BRANCH   1   2
ATOM      2  C   UNL     1      -8.867   1.385   0.917  0.00  0.00    +0.011 A 
ATOM      3  C   UNL     1      -9.812   0.955   1.791  0.00  0.00    +0.017 A 
ATOM      4  C   UNL     1     -10.486  -0.315   1.523  0.00  0.00    -0.001 A 
ATOM      5  C   UNL     1     -11.473  -0.806   2.385  0.00  0.00    +0.013 A 
ATOM      6  C   UNL     1     -12.080  -1.997   2.113  0.00  0.00    +0.046 A 
ATOM      7  C   UNL     1     -11.726  -2.730   0.981  0.00  0.00    +0.122 A 
ATOM      8  C   UNL     1     -10.752  -2.261   0.115  0.00  0.00    +0.072 A 
ATOM      9  C   UNL     1     -10.123  -1.051   0.377  0.00  0.00    +0.053 A 
ATOM     10  N   UNL     1      -9.150  -0.561  -0.468  0.00  0.00    -0.322 N 
ATOM     11  H   UNL     1      -8.901  -1.069  -1.256  0.00  0.00    +0.169 HD
ATOM     12  C   UNL     1      -8.540   0.611  -0.215  0.00  0.00    +0.251 A 
ATOM     13  O   UNL     1      -7.685   1.014  -0.984  0.00  0.00    -0.268 OA
BRANCH   7  14
ATOM     14  O   UNL     1     -12.341  -3.913   0.725  0.00  0.00    -0.495 OA
ATOM     15  C   UNL     1     -13.336  -4.341   1.656  0.00  0.00    +0.277 C 
ENDBRANCH   7  14
ENDBRANCH   1   2
BRANCH   1  21
ATOM     16  N   UNL     1      -4.112   2.446   2.353  0.00  0.00    -0.333 N 
ATOM     17  C   UNL     1      -4.838   1.191   2.116  0.00  0.00    +0.086 C 
ATOM     18  C   UNL     1      -6.344   1.454   2.183  0.00  0.00    -0.058 C 
ATOM     19  C   UNL     1      -5.981   3.722   1.417  0.00  0.00    -0.058 C 
ATOM     20  C   UNL     1      -4.475   3.458   1.350  0.00  0.00    +0.086 C 
ATOM     21  N   UNL     1      -6.698   2.456   1.156  0.00  0.00    +0.391 N 
ATOM     22  H   UNL     1      -6.422   2.100   0.233  0.00  0.00    -0.080 HD
BRANCH  16  28
ATOM     23  C   UNL     1      -0.013   1.086   0.008  0.00  0.00    +0.044 C 
ATOM     24  C   UNL     1      -0.718   1.572   1.248  0.00  0.00    -0.049 A 
ATOM     25  C   UNL     1       0.002   1.806   2.405  0.00  0.00    +0.004 A 
ATOM     26  C   UNL     1      -0.641   2.251   3.545  0.00  0.00    +0.005 A 
ATOM     27  C   UNL     1      -2.006   2.465   3.531  0.00  0.00    -0.029 A 
ATOM     28  C   UNL     1      -2.732   2.231   2.370  0.00  0.00    +0.033 A 
ATOM     29  C   UNL     1      -2.082   1.789   1.225  0.00  0.00    +0.026 A 
ATOM     30  C   UNL     1      -2.706   2.951   4.774  0.00  0.00    +0.045 C 
ENDBRANCH  16  28
ENDBRANCH   1  21
BRANCH   1  31
ATOM     31  C   UNL     1      -8.501   3.663   0.062  0.00  0.00    +0.143 A 
ATOM     32  N   UNL     1      -8.037   3.652  -1.164  0.00  0.00    -0.115 NA
ATOM     33  N   UNL     1      -8.569   4.640  -1.799  0.00  0.00    -0.023 NA
ATOM     34  N   UNL     1      -9.353   5.285  -1.007  0.00  0.00    -0.044 NA
ATOM     35  N   UNL     1      -9.338   4.713   0.149  0.00  0.00    -0.228 N 
BRANCH  35  36
ATOM     36  C   UNL     1     -10.091   5.130   1.335  0.00  0.00    +0.178 C 
BRANCH  36  37
ATOM     37  C   UNL     1      -9.254   6.117   2.151  0.00  0.00    +0.140 C 
ATOM     38  C   UNL     1      -9.992   6.472   3.460  0.00  0.00    +0.035 C 
ATOM     39  C   UNL     1      -9.694   7.990   3.604  0.00  0.00    +0.031 C 
ATOM     40  C   UNL     1      -9.675   8.428   2.118  0.00  0.00    +0.160 C 
ATOM     41  O   UNL     1      -9.077   7.331   1.411  0.00  0.00    -0.375 OA
ENDBRANCH  36  37
ENDBRANCH  35  36
ENDBRANCH   1  31
TORSDOF 7
