REMARK  Name = ZINC02366108
REMARK  12 active torsions:
REMARK  status: ('A' for Active; 'I' for Inactive)
REMARK    1  A    between atoms: C_1  and  C_2
REMARK    2  A    between atoms: C_2  and  C_3
REMARK    3  A    between atoms: C_3  and  C_4
REMARK    4  A    between atoms: C_4  and  C_6
REMARK    5  A    between atoms: C_4  and  N_23
REMARK    6  A    between atoms: C_6  and  O_8
REMARK    7  A    between atoms: O_8  and  C_9
REMARK    8  A    between atoms: C_16  and  C_21
REMARK    9  A    between atoms: C_21  and  C_22
REMARK   10  A    between atoms: N_23  and  S_24
REMARK   11  A    between atoms: S_24  and  C_27
REMARK   12  A    between atoms: C_30  and  C_33
REMARK                            x       y       z     vdW  Elec       q    Type
REMARK                         _______ _______ _______ _____ _____    ______ ____
ROOT
ATOM      1  C   UNL     1      -4.383  -4.640   3.349  0.00  0.00    +0.331 C 
ATOM      2  O   UNL     1      -4.993  -3.886   2.628  0.00  0.00    -0.249 OA
ENDROOT
BRANCH   1   3
ATOM      3  C   UNL     1      -5.115  -5.720   4.102  0.00  0.00    +0.185 C 
BRANCH   3   4
ATOM      4  N   UNL     1      -6.545  -5.648   3.793  0.00  0.00    -0.176 NA
ATOM      5  H   UNL     1      -7.119  -5.047   4.293  0.00  0.00    +0.149 HD
BRANCH   4   6
ATOM      6  S   UNL     1      -7.181  -6.592   2.590  0.00  0.00    +0.059 S 
ATOM      7  O   UNL     1      -8.580  -6.345   2.577  0.00  0.00    -0.153 OA
ATOM      8  O   UNL     1      -6.362  -6.398   1.445  0.00  0.00    -0.153 OA
BRANCH   6   9
ATOM      9  C   UNL     1      -6.970  -8.272   3.080  0.00  0.00    +0.105 A 
ATOM     10  C   UNL     1      -5.788  -8.931   2.799  0.00  0.00    +0.029 A 
ATOM     11  C   UNL     1      -5.622 -10.247   3.188  0.00  0.00    +0.005 A 
ATOM     12  C   UNL     1      -6.641 -10.907   3.849  0.00  0.00    -0.050 A 
ATOM     13  C   UNL     1      -7.824 -10.249   4.126  0.00  0.00    +0.005 A 
ATOM     14  C   UNL     1      -7.990  -8.932   3.741  0.00  0.00    +0.029 A 
ATOM     15  C   UNL     1      -6.461 -12.343   4.268  0.00  0.00    +0.044 C 
ENDBRANCH   6   9
ENDBRANCH   4   6
ENDBRANCH   3   4
BRANCH   3  16
ATOM     16  C   UNL     1      -4.908  -5.524   5.606  0.00  0.00    +0.031 C 
BRANCH  16  18
ATOM     17  C   UNL     1      -5.443  -6.434   7.870  0.00  0.00    +0.004 C 
ATOM     18  C   UNL     1      -5.547  -6.689   6.365  0.00  0.00    -0.001 C 
ENDBRANCH  16  18
ENDBRANCH   3  16
ENDBRANCH   1   3
BRANCH   1  19
ATOM     19  O   UNL     1      -3.052  -4.514   3.479  0.00  0.00    -0.423 OA
BRANCH  19  20
ATOM     20  C   UNL     1      -2.469  -3.456   2.860  0.00  0.00    +0.153 A 
ATOM     21  C   UNL     1      -1.871  -3.628   1.622  0.00  0.00    +0.094 A 
ATOM     22  C   UNL     1      -1.276  -2.548   0.988  0.00  0.00    +0.143 A 
ATOM     23  C   UNL     1      -1.287  -1.287   1.613  0.00  0.00    +0.022 A 
ATOM     24  C   UNL     1      -1.896  -1.130   2.863  0.00  0.00    +0.035 A 
ATOM     25  C   UNL     1      -2.478  -2.204   3.474  0.00  0.00    +0.084 A 
ATOM     26 CL   UNL     1      -3.233  -2.010   5.025  0.00  0.00    -0.080 Cl
ATOM     27  C   UNL     1      -0.656  -0.153   0.933  0.00  0.00    -0.030 A 
ATOM     28  C   UNL     1      -0.087  -0.368  -0.281  0.00  0.00    +0.096 A 
ATOM     29  C   UNL     1      -0.108  -1.660  -0.847  0.00  0.00    +0.337 A 
ATOM     30  O   UNL     1       0.409  -1.840  -1.934  0.00  0.00    -0.245 OA
ATOM     31  O   UNL     1      -0.688  -2.695  -0.219  0.00  0.00    -0.422 OA
BRANCH  27  32
ATOM     32  C   UNL     1      -0.643   1.216   1.562  0.00  0.00    +0.033 C 
ATOM     33  C   UNL     1       0.545   1.327   2.520  0.00  0.00    +0.009 C 
ENDBRANCH  27  32
ENDBRANCH  19  20
ENDBRANCH   1  19
TORSDOF 9
