REMARK  Name = ZINC67012389
REMARK  9 active torsions:
REMARK  status: ('A' for Active; 'I' for Inactive)
REMARK    1  A    between atoms: C_1  and  C_2
REMARK    2  A    between atoms: C_3  and  C_13
REMARK    3  A    between atoms: N_6  and  C_7
REMARK    4  A    between atoms: C_13  and  C_15
REMARK    5  A    between atoms: C_13  and  N_16
REMARK    6  A    between atoms: N_19  and  C_20
REMARK    7  A    between atoms: N_24  and  C_25
REMARK    8  A    between atoms: C_25  and  C_26
REMARK    9  A    between atoms: C_25  and  C_27
REMARK                            x       y       z     vdW  Elec       q    Type
REMARK                         _______ _______ _______ _____ _____    ______ ____
ROOT
ATOM      1  C   UNL     1      -0.006  -0.327  -2.527  0.00  0.00    +0.105 C 
ATOM      2  C   UNL     1       1.425  -0.028  -2.980  0.00  0.00    +0.033 C 
ENDROOT
BRANCH   1   5
ATOM      3  C   UNL     1      -0.018   1.503   0.010  0.00  0.00    +0.066 C 
ATOM      4  C   UNL     1       0.002  -0.004   0.002  0.00  0.00    +0.047 A 
ATOM      5  C   UNL     1       0.008  -0.796  -1.095  0.00  0.00    +0.013 A 
ATOM      6  C   UNL     1       0.029  -2.127  -0.665  0.00  0.00    +0.140 A 
ATOM      7  N   UNL     1       0.035  -2.135   0.644  0.00  0.00    -0.174 NA
ATOM      8  N   UNL     1       0.024  -0.807   1.090  0.00  0.00    -0.237 N 
BRANCH   8   9
ATOM      9  C   UNL     1       0.031  -0.386   2.426  0.00  0.00    +0.066 A 
ATOM     10  C   UNL     1       0.704   0.774   2.786  0.00  0.00    +0.028 A 
ATOM     11  C   UNL     1       0.709   1.187   4.104  0.00  0.00    +0.002 A 
ATOM     12  C   UNL     1       0.045   0.446   5.065  0.00  0.00    +0.000 A 
ATOM     13  C   UNL     1      -0.625  -0.710   4.710  0.00  0.00    +0.002 A 
ATOM     14  C   UNL     1      -0.638  -1.125   3.393  0.00  0.00    +0.028 A 
ENDBRANCH   8   9
ENDBRANCH   1   5
BRANCH   1  15
ATOM     15  N   UNL     1      -0.579  -1.373  -3.378  0.00  0.00    -0.292 N 
ATOM     16  C   UNL     1      -1.156  -1.046  -4.551  0.00  0.00    +0.305 C 
ATOM     17  O   UNL     1      -1.202   0.117  -4.904  0.00  0.00    -0.252 OA
ATOM     18  N   UNL     1      -1.684  -2.009  -5.334  0.00  0.00    -0.254 N 
ATOM     19  H   UNL     1      -0.543  -2.301  -3.097  0.00  0.00    +0.151 HD
ATOM     20  H   UNL     1      -1.647  -2.936  -5.053  0.00  0.00    +0.158 HD
BRANCH  18  21
ATOM     21  C   UNL     1      -2.281  -1.670  -6.548  0.00  0.00    +0.125 A 
ATOM     22  C   UNL     1      -2.396  -0.417  -7.067  0.00  0.00    +0.065 A 
ATOM     23  C   UNL     1      -3.056  -0.521  -8.294  0.00  0.00    +0.136 A 
ATOM     24  N   UNL     1      -3.328  -1.782  -8.510  0.00  0.00    -0.178 NA
ATOM     25  N   UNL     1      -2.846  -2.529  -7.427  0.00  0.00    -0.248 N 
BRANCH  25  26
ATOM     26  C   UNL     1      -2.941  -3.983  -7.273  0.00  0.00    +0.103 C 
ATOM     27  C   UNL     1      -4.412  -4.402  -7.277  0.00  0.00    +0.032 C 
ATOM     28  C   UNL     1      -2.213  -4.667  -8.432  0.00  0.00    +0.032 C 
ENDBRANCH  25  26
ENDBRANCH  18  21
ENDBRANCH   1  15
TORSDOF 5
