REMARK  Name = ZINC12033925
REMARK  6 active torsions:
REMARK  status: ('A' for Active; 'I' for Inactive)
REMARK    1  A    between atoms: C_1  and  C_2
REMARK    2  A    between atoms: C_2  and  S_3
REMARK    3  A    between atoms: S_3  and  N_6
REMARK    4  A    between atoms: C_14  and  N_16
REMARK    5  A    between atoms: C_17  and  C_19
REMARK    6  A    between atoms: C_24  and  N_25
REMARK                            x       y       z     vdW  Elec       q    Type
REMARK                         _______ _______ _______ _____ _____    ______ ____
ROOT
ATOM      1  N   UNL     1      -0.541   1.723   3.131  0.00  0.00    -0.207 N 
ATOM      2  C   UNL     1       0.390   1.487   2.019  0.00  0.00    +0.131 C 
ATOM      3  C   UNL     1      -0.311   1.909   0.721  0.00  0.00    +0.025 C 
ATOM      4  C   UNL     1      -1.532   1.014   0.506  0.00  0.00    +0.039 C 
ATOM      5  C   UNL     1      -2.390   0.986   1.744  0.00  0.00    -0.023 A 
ATOM      6  C   UNL     1      -1.880   1.329   2.987  0.00  0.00    +0.054 A 
ATOM      7  C   UNL     1      -2.696   1.288   4.112  0.00  0.00    +0.027 A 
ATOM      8  C   UNL     1      -4.019   0.911   3.995  0.00  0.00    +0.025 A 
ATOM      9  C   UNL     1      -4.532   0.570   2.751  0.00  0.00    +0.034 A 
ATOM     10  C   UNL     1      -3.717   0.608   1.629  0.00  0.00    +0.028 A 
ENDROOT
BRANCH   9  11
ATOM     11  N   UNL     1      -5.874   0.187   2.628  0.00  0.00    -0.281 N 
ATOM     12  C   UNL     1      -6.813   0.762   3.406  0.00  0.00    +0.250 C 
ATOM     13  O   UNL     1      -6.513   1.682   4.141  0.00  0.00    -0.270 OA
ATOM     14  H   UNL     1      -6.128  -0.492   1.983  0.00  0.00    +0.155 HD
BRANCH  12  15
ATOM     15  C   UNL     1      -8.207   0.274   3.365  0.00  0.00    +0.067 A 
ATOM     16  C   UNL     1      -8.485  -1.075   3.593  0.00  0.00    +0.015 A 
ATOM     17  C   UNL     1      -9.789  -1.524   3.557  0.00  0.00    +0.001 A 
ATOM     18  C   UNL     1     -10.820  -0.641   3.286  0.00  0.00    +0.002 A 
ATOM     19  C   UNL     1     -10.551   0.696   3.054  0.00  0.00    +0.033 A 
ATOM     20  C   UNL     1      -9.252   1.158   3.091  0.00  0.00    +0.138 A 
BRANCH  20  21
ATOM     21  N   UNL     1      -8.966   2.589   2.841  0.00  0.00    +0.057 N 
ATOM     22  O   UNL     1      -9.883   3.382   2.727  0.00  0.00    -0.126 OA
ATOM     23  O   UNL     1      -7.814   2.973   2.751  0.00  0.00    -0.126 OA
ENDBRANCH  20  21
ENDBRANCH  12  15
ENDBRANCH   9  11
BRANCH   1  24
ATOM     24  S   UNL     1      -0.019   2.442   4.528  0.00  0.00    +0.045 S 
ATOM     25  O   UNL     1       1.202   3.076   4.175  0.00  0.00    -0.155 OA
ATOM     26  O   UNL     1      -1.129   3.208   4.978  0.00  0.00    -0.155 OA
BRANCH  24  28
ATOM     27  C   UNL     1       0.788   1.621   7.009  0.00  0.00    +0.030 C 
ATOM     28  C   UNL     1       0.296   1.069   5.670  0.00  0.00    +0.185 C 
ENDBRANCH  24  28
ENDBRANCH   1  24
TORSDOF 5
