REMARK  Name = ZINC41096431
REMARK  4 active torsions:
REMARK  status: ('A' for Active; 'I' for Inactive)
REMARK    1  A    between atoms: C_1  and  C_2
REMARK    2  A    between atoms: N_5  and  C_9
REMARK    3  A    between atoms: C_12  and  S_15
REMARK    4  A    between atoms: S_15  and  N_18
REMARK                            x       y       z     vdW  Elec       q    Type
REMARK                         _______ _______ _______ _____ _____    ______ ____
ROOT
ATOM      1  C   UNL     1       2.862  -1.945  -1.432  0.00  0.00    +0.048 A 
ATOM      2  C   UNL     1       2.809  -1.917  -2.820  0.00  0.00    +0.026 A 
ATOM      3  C   UNL     1       3.772  -2.574  -3.560  0.00  0.00    +0.030 A 
ATOM      4  C   UNL     1       4.790  -3.259  -2.921  0.00  0.00    +0.106 A 
ATOM      5  C   UNL     1       4.845  -3.289  -1.539  0.00  0.00    +0.030 A 
ATOM      6  C   UNL     1       3.888  -2.630  -0.793  0.00  0.00    +0.026 A 
ENDROOT
BRANCH   1  10
ATOM      7  C   UNL     1      -0.019   1.526   0.010  0.00  0.00    +0.019 C 
ATOM      8  C   UNL     1       0.002  -0.004   0.002  0.00  0.00    +0.092 C 
ATOM      9  C   UNL     1       0.757  -0.525  -1.234  0.00  0.00    +0.140 C 
ATOM     10  N   UNL     1       1.889  -1.282  -0.681  0.00  0.00    -0.250 N 
ATOM     11  N   UNL     1       1.839  -1.234   0.711  0.00  0.00    -0.234 N 
ATOM     12  C   UNL     1       0.796  -0.528   1.177  0.00  0.00    +0.234 C 
ATOM     13  O   UNL     1       0.533  -0.341   2.346  0.00  0.00    -0.274 OA
ATOM     14  H   UNL     1       2.491  -1.667   1.284  0.00  0.00    +0.173 HD
ENDBRANCH   1  10
BRANCH   4  15
ATOM     15  S   UNL     1       6.017  -4.096  -3.869  0.00  0.00    +0.061 S 
ATOM     16  O   UNL     1       6.548  -5.116  -3.034  0.00  0.00    -0.153 OA
ATOM     17  O   UNL     1       5.433  -4.373  -5.134  0.00  0.00    -0.153 OA
BRANCH  15  18
ATOM     18  N   UNL     1       7.245  -3.018  -4.139  0.00  0.00    -0.177 NA
ATOM     19  C   UNL     1       7.231  -2.150  -5.325  0.00  0.00    +0.109 C 
ATOM     20  C   UNL     1       7.392  -0.695  -4.872  0.00  0.00    +0.017 C 
ATOM     21  C   UNL     1       8.654  -0.569  -4.015  0.00  0.00    +0.003 C 
ATOM     22  C   UNL     1       8.518  -1.450  -2.771  0.00  0.00    +0.017 C 
ATOM     23  C   UNL     1       8.366  -2.909  -3.196  0.00  0.00    +0.109 C 
ENDBRANCH  15  18
ENDBRANCH   4  15
TORSDOF 3
