REMARK  Name = ZINC04131278
REMARK  4 active torsions:
REMARK  status: ('A' for Active; 'I' for Inactive)
REMARK    1  A    between atoms: C_1  and  C_2
REMARK    2  A    between atoms: C_2  and  C_3
REMARK    3  A    between atoms: C_21  and  C_22
REMARK    4  A    between atoms: C_21  and  N_49
REMARK                            x       y       z     vdW  Elec       q    Type
REMARK                         _______ _______ _______ _____ _____    ______ ____
ROOT
ATOM      1  C   UNL     1      -2.333   3.186  -4.431  0.00  0.00    +0.132 A 
ATOM      2  N   UNL     1      -1.756   2.747  -3.326  0.00  0.00    -0.217 NA
ATOM      3  C   UNL     1      -1.407   3.560  -2.342  0.00  0.00    +0.133 A 
ATOM      4  C   UNL     1      -1.664   4.953  -2.472  0.00  0.00    +0.051 A 
ATOM      5  C   UNL     1      -1.363   6.032  -1.529  0.00  0.00    -0.025 A 
ATOM      6  C   UNL     1      -1.706   7.282  -1.900  0.00  0.00    -0.004 A 
ATOM      7  S   UNL     1      -2.434   7.104  -3.507  0.00  0.00    -0.073 S 
ATOM      8  C   UNL     1      -2.276   5.346  -3.679  0.00  0.00    +0.114 A 
ATOM      9  N   UNL     1      -2.591   4.467  -4.610  0.00  0.00    -0.225 NA
ATOM     10  C   UNL     1      -1.512   8.546  -1.119  0.00  0.00    +0.043 C 
ATOM     11  C   UNL     1      -1.196   8.174   0.336  0.00  0.00    +0.005 C 
ATOM     12  C   UNL     1      -0.115   7.089   0.342  0.00  0.00    +0.005 C 
ATOM     13  C   UNL     1      -0.697   5.774  -0.181  0.00  0.00    +0.037 C 
ATOM     14  N   UNL     1      -0.806   3.062  -1.200  0.00  0.00    -0.318 N 
ATOM     15  C   UNL     1       0.462   2.392  -1.522  0.00  0.00    +0.088 C 
ATOM     16  C   UNL     1       1.132   1.925  -0.228  0.00  0.00    -0.060 C 
ATOM     17  C   UNL     1      -1.040   1.687   0.812  0.00  0.00    -0.060 C 
ATOM     18  C   UNL     1      -1.711   2.153  -0.483  0.00  0.00    +0.088 C 
ATOM     19  N   UNL     1       0.222   0.996   0.473  0.00  0.00    +0.382 N 
ATOM     20  H   UNL     1       0.013   0.203  -0.146  0.00  0.00    -0.082 HD
ENDROOT
BRANCH   1  22
ATOM     21  C   UNL     1      -4.125   1.691  -5.269  0.00  0.00    +0.012 C 
ATOM     22  C   UNL     1      -2.703   2.201  -5.510  0.00  0.00    +0.073 C 
ENDBRANCH   1  22
BRANCH  19  23
ATOM     23  C   UNL     1       0.866   0.488   1.702  0.00  0.00    -0.082 C 
ATOM     24  C   UNL     1      -0.175  -0.247   2.549  0.00  0.00    -0.017 C 
ENDBRANCH  19  23
TORSDOF 2
