REMARK  Name = ZINC08601803
REMARK  6 active torsions:
REMARK  status: ('A' for Active; 'I' for Inactive)
REMARK    1  A    between atoms: C_3  and  C_6
REMARK    2  A    between atoms: C_11  and  O_34
REMARK    3  A    between atoms: C_12  and  C_14
REMARK    4  A    between atoms: C_14  and  C_16
REMARK    5  A    between atoms: C_14  and  N_55
REMARK    6  A    between atoms: C_19  and  N_22
REMARK                            x       y       z     vdW  Elec       q    Type
REMARK                         _______ _______ _______ _____ _____    ______ ____
ROOT
ATOM      1  C   UNL     1      -8.386   0.319   0.039  0.00  0.00    +0.005 C 
ENDROOT
BRANCH   1  11
ATOM      2  C   UNL     1     -10.265  -0.947  -0.814  0.00  0.00    -0.072 C 
ATOM      3  C   UNL     1     -10.658  -2.095  -1.746  0.00  0.00    +0.046 C 
ATOM      4  C   UNL     1     -10.312  -1.716  -3.187  0.00  0.00    +0.167 C 
ATOM      5  C   UNL     1      -8.820  -1.389  -3.288  0.00  0.00    +0.046 C 
ATOM      6  C   UNL     1      -8.483  -0.262  -2.309  0.00  0.00    -0.072 C 
ATOM      7  O   UNL     1     -10.622  -2.814  -4.060  0.00  0.00    -0.346 OA
ATOM      8  C   UNL     1     -11.945  -2.518  -4.570  0.00  0.00    +0.191 C 
ATOM      9  C   UNL     1     -11.892  -0.976  -4.708  0.00  0.00    +0.191 C 
ATOM     10  O   UNL     1     -11.082  -0.575  -3.584  0.00  0.00    -0.346 OA
ATOM     11  N   UNL     1      -8.811  -0.705  -0.936  0.00  0.00    +0.388 N 
ATOM     12  H   UNL     1      -8.311  -1.580  -0.741  0.00  0.00    -0.080 HD
ENDBRANCH   1  11
BRANCH   1  19
ATOM     13  C   UNL     1      -2.518   1.410   0.020  0.00  0.00    +0.218 A 
ATOM     14  N   UNL     1      -2.916   0.130   0.009  0.00  0.00    -0.197 NA
ATOM     15  C   UNL     1      -4.219   0.084   0.020  0.00  0.00    +0.199 A 
ATOM     16  N   UNL     1      -4.726   1.354   0.029  0.00  0.00    -0.173 N 
ATOM     17  N   UNL     1      -3.579   2.189   0.029  0.00  0.00    -0.138 NA
ATOM     18  C   UNL     1      -6.094   1.482   0.035  0.00  0.00    +0.225 A 
ATOM     19  C   UNL     1      -6.881   0.400   0.033  0.00  0.00    +0.045 A 
ATOM     20  S   UNL     1      -5.682  -0.924   0.021  0.00  0.00    -0.050 S 
BRANCH  13  23
ATOM     21  C   UNL     1       1.107   1.932   0.002  0.00  0.00    +0.042 A 
ATOM     22  C   UNL     1      -0.013   1.076   0.008  0.00  0.00    +0.053 A 
ATOM     23  C   UNL     1      -1.115   1.872   0.017  0.00  0.00    +0.173 A 
ATOM     24  O   UNL     1      -0.705   3.155   0.026  0.00  0.00    -0.460 OA
ATOM     25  C   UNL     1       0.638   3.195   0.013  0.00  0.00    +0.196 A 
ENDBRANCH  13  23
BRANCH  18  26
ATOM     26  O   UNL     1      -6.654   2.721   0.044  0.00  0.00    -0.492 OA
ATOM     27  H   UNL     1      -6.820   3.084  -0.837  0.00  0.00    +0.294 HD
ENDBRANCH  18  26
ENDBRANCH   1  19
BRANCH   1  28
ATOM     28  C   UNL     1      -8.861  -0.082   1.412  0.00  0.00    -0.056 A 
ATOM     29  C   UNL     1      -8.828  -1.410   1.794  0.00  0.00    +0.004 A 
ATOM     30  C   UNL     1      -9.260  -1.778   3.054  0.00  0.00    +0.033 A 
ATOM     31  C   UNL     1      -9.735  -0.819   3.929  0.00  0.00    +0.126 A 
ATOM     32  C   UNL     1      -9.773   0.509   3.545  0.00  0.00    +0.033 A 
ATOM     33  C   UNL     1      -9.336   0.877   2.287  0.00  0.00    +0.004 A 
BRANCH  31  34
ATOM     34  N   UNL     1     -10.202  -1.213   5.277  0.00  0.00    +0.056 N 
ATOM     35  O   UNL     1     -10.620  -0.368   6.048  0.00  0.00    -0.126 OA
ATOM     36  O   UNL     1     -10.168  -2.382   5.616  0.00  0.00    -0.126 OA
ENDBRANCH  31  34
ENDBRANCH   1  28
TORSDOF 6
