REMARK  Name = ZINC13939370
REMARK  5 active torsions:
REMARK  status: ('A' for Active; 'I' for Inactive)
REMARK    1  A    between atoms: C_1  and  C_2
REMARK    2  A    between atoms: C_8  and  N_10
REMARK    3  A    between atoms: N_10  and  S_11
REMARK    4  A    between atoms: S_11  and  C_14
REMARK    5  A    between atoms: C_19  and  N_20
REMARK                            x       y       z     vdW  Elec       q    Type
REMARK                         _______ _______ _______ _____ _____    ______ ____
ROOT
ATOM      1  S   UNL     1       2.893   0.560   2.696  0.00  0.00    +0.061 S 
ATOM      2  O   UNL     1       4.180   1.126   2.488  0.00  0.00    -0.153 OA
ATOM      3  O   UNL     1       1.834   1.281   3.309  0.00  0.00    -0.153 OA
ENDROOT
BRANCH   1   4
ATOM      4  C   UNL     1       3.134  -0.897   3.656  0.00  0.00    +0.135 A 
ATOM      5  C   UNL     1       2.388  -1.100   4.803  0.00  0.00    +0.031 A 
ATOM      6  C   UNL     1       2.576  -2.243   5.557  0.00  0.00    +0.002 A 
ATOM      7  C   UNL     1       3.510  -3.184   5.164  0.00  0.00    +0.002 A 
ATOM      8  C   UNL     1       4.254  -2.982   4.017  0.00  0.00    +0.035 A 
ATOM      9  C   UNL     1       4.063  -1.841   3.261  0.00  0.00    +0.152 A 
BRANCH   9  10
ATOM     10  N   UNL     1       4.857  -1.627   2.030  0.00  0.00    +0.058 N 
ATOM     11  O   UNL     1       5.758  -2.383   1.753  0.00  0.00    -0.126 OA
ATOM     12  O   UNL     1       4.604  -0.696   1.302  0.00  0.00    -0.126 OA
ENDBRANCH   9  10
ENDBRANCH   1   4
BRANCH   1  13
ATOM     13  N   UNL     1       2.341   0.081   1.209  0.00  0.00    -0.187 NA
ATOM     14  H   UNL     1       2.882   0.235   0.419  0.00  0.00    +0.148 HD
BRANCH  13  21
ATOM     15  C   UNL     1       0.148   1.417  -0.131  0.00  0.00    +0.009 C 
ATOM     16  C   UNL     1       0.344  -0.100  -0.190  0.00  0.00    +0.005 C 
ATOM     17  C   UNL     1       1.208  -0.456  -1.401  0.00  0.00    +0.005 C 
ATOM     18  C   UNL     1       1.403  -1.972  -1.460  0.00  0.00    +0.000 C 
ATOM     19  C   UNL     1       2.096  -2.447  -0.181  0.00  0.00    +0.002 C 
ATOM     20  C   UNL     1       1.232  -2.091   1.030  0.00  0.00    +0.020 C 
ATOM     21  C   UNL     1       1.037  -0.575   1.089  0.00  0.00    +0.079 C 
ENDBRANCH  13  21
ENDBRANCH   1  13
TORSDOF 4
