REMARK  Name = ZINC16054264
REMARK  11 active torsions:
REMARK  status: ('A' for Active; 'I' for Inactive)
REMARK    1  A    between atoms: C_1  and  C_2
REMARK    2  A    between atoms: C_2  and  O_3
REMARK    3  A    between atoms: O_3  and  C_4
REMARK    4  A    between atoms: C_4  and  C_6
REMARK    5  A    between atoms: C_7  and  C_30
REMARK    6  A    between atoms: N_8  and  C_23
REMARK    7  A    between atoms: C_12  and  C_14
REMARK    8  A    between atoms: C_17  and  O_22
REMARK    9  A    between atoms: C_18  and  O_20
REMARK   10  A    between atoms: O_20  and  C_21
REMARK   11  A    between atoms: C_26  and  C_29
REMARK                            x       y       z     vdW  Elec       q    Type
REMARK                         _______ _______ _______ _____ _____    ______ ____
ROOT
ATOM      1  C   UNL     1       2.535   1.659  -1.546  0.00  0.00    +0.078 C 
ATOM      2  C   UNL     1       3.770   1.796  -2.074  0.00  0.00    +0.027 C 
ATOM      3  N   UNL     1       4.869   1.919  -1.272  0.00  0.00    -0.255 N 
ATOM      4  C   UNL     1       4.816   1.916   0.066  0.00  0.00    +0.142 C 
ATOM      5  S   UNL     1       6.272   2.080   0.952  0.00  0.00    -0.018 S 
ATOM      6  N   UNL     1       3.655   1.788   0.738  0.00  0.00    -0.315 N 
ATOM      7  C   UNL     1       2.410   1.647  -0.036  0.00  0.00    +0.141 C 
ATOM      8  C   UNL     1       3.939   1.812  -3.571  0.00  0.00    +0.062 C 
ATOM      9  H   UNL     1       3.640   1.788   1.707  0.00  0.00    +0.149 HD
ENDROOT
BRANCH   3  10
ATOM     10  C   UNL     1       6.121   2.058  -1.884  0.00  0.00    +0.040 A 
ATOM     11  C   UNL     1       6.644   3.322  -2.123  0.00  0.00    +0.024 A 
ATOM     12  C   UNL     1       7.881   3.454  -2.721  0.00  0.00    +0.005 A 
ATOM     13  C   UNL     1       8.595   2.330  -3.093  0.00  0.00    -0.050 A 
ATOM     14  C   UNL     1       8.075   1.070  -2.861  0.00  0.00    +0.005 A 
ATOM     15  C   UNL     1       6.841   0.930  -2.258  0.00  0.00    +0.024 A 
ATOM     16  C   UNL     1       9.943   2.478  -3.752  0.00  0.00    +0.044 C 
ENDBRANCH   3  10
BRANCH   7  17
ATOM     17  C   UNL     1       1.487   2.770   0.363  0.00  0.00    -0.019 A 
ATOM     18  C   UNL     1       0.151   2.510   0.607  0.00  0.00    +0.009 A 
ATOM     19  C   UNL     1      -0.700   3.536   0.972  0.00  0.00    +0.049 A 
ATOM     20  C   UNL     1      -0.215   4.828   1.096  0.00  0.00    +0.158 A 
ATOM     21  C   UNL     1       1.131   5.088   0.855  0.00  0.00    +0.162 A 
ATOM     22  C   UNL     1       1.977   4.056   0.484  0.00  0.00    +0.055 A 
BRANCH  21  23
ATOM     23  O   UNL     1       1.613   6.354   0.980  0.00  0.00    -0.491 OA
ATOM     24  C   UNL     1       2.974   6.570   0.601  0.00  0.00    +0.277 C 
ENDBRANCH  21  23
BRANCH  20  25
ATOM     25  O   UNL     1      -1.051   5.839   1.455  0.00  0.00    -0.503 OA
ATOM     26  H   UNL     1      -1.108   5.981   2.410  0.00  0.00    +0.292 HD
ENDBRANCH  20  25
ENDBRANCH   7  17
BRANCH   1  27
ATOM     27  C   UNL     1       1.396   1.531  -2.375  0.00  0.00    +0.339 C 
ATOM     28  O   UNL     1       1.505   1.649  -3.581  0.00  0.00    -0.245 OA
BRANCH  27  29
ATOM     29  O   UNL     1       0.189   1.278  -1.828  0.00  0.00    -0.462 OA
BRANCH  29  31
ATOM     30  C   UNL     1      -2.202   0.936  -1.928  0.00  0.00    +0.048 C 
ATOM     31  C   UNL     1      -0.910   1.116  -2.728  0.00  0.00    +0.229 C 
ENDBRANCH  29  31
ENDBRANCH  27  29
ENDBRANCH   1  27
TORSDOF 7
