REMARK  Name = ZINC58994178
REMARK  9 active torsions:
REMARK  status: ('A' for Active; 'I' for Inactive)
REMARK    1  A    between atoms: C_1  and  C_2
REMARK    2  A    between atoms: C_5  and  N_9
REMARK    3  A    between atoms: C_10  and  C_12
REMARK    4  A    between atoms: C_12  and  S_13
REMARK    5  A    between atoms: S_13  and  C_14
REMARK    6  A    between atoms: N_19  and  N_20
REMARK    7  A    between atoms: C_21  and  C_22
REMARK    8  A    between atoms: C_25  and  O_29
REMARK    9  A    between atoms: C_27  and  O_28
REMARK                            x       y       z     vdW  Elec       q    Type
REMARK                         _______ _______ _______ _____ _____    ______ ____
ROOT
ATOM      1  C   UNL     1      -0.358  -8.691  -2.732  0.00  0.00    +0.211 A 
ATOM      2  N   UNL     1      -0.457  -9.563  -3.741  0.00  0.00    -0.186 NA
ATOM      3  C   UNL     1      -0.512 -10.789  -3.263  0.00  0.00    +0.232 A 
ATOM      4  N   UNL     1      -0.448 -10.715  -1.916  0.00  0.00    -0.245 N 
ATOM      5  N   UNL     1      -0.344  -9.351  -1.598  0.00  0.00    -0.144 NA
ATOM      6  N   UNL     1      -0.618 -11.948  -4.009  0.00  0.00    -0.205 N 
ATOM      7  H   UNL     1      -0.652 -12.810  -3.564  0.00  0.00    +0.177 HD
ATOM      8  H   UNL     1      -0.467 -11.457  -1.292  0.00  0.00    +0.192 HD
ENDROOT
BRANCH   6   9
ATOM      9  N   UNL     1      -0.675 -11.879  -5.407  0.00  0.00    -0.187 NA
ATOM     10  C   UNL     1      -0.774 -12.968  -6.107  0.00  0.00    +0.142 C 
BRANCH  10  11
ATOM     11  C   UNL     1      -0.834 -12.895  -7.578  0.00  0.00    +0.036 A 
ATOM     12  C   UNL     1      -0.947 -14.064  -8.334  0.00  0.00    +0.016 A 
ATOM     13  C   UNL     1      -1.003 -13.991  -9.709  0.00  0.00    +0.046 A 
ATOM     14  C   UNL     1      -0.949 -12.758 -10.347  0.00  0.00    +0.120 A 
ATOM     15  C   UNL     1      -0.837 -11.591  -9.605  0.00  0.00    +0.091 A 
ATOM     16  C   UNL     1      -0.785 -11.651  -8.223  0.00  0.00    +0.129 A 
BRANCH  16  17
ATOM     17  O   UNL     1      -0.681 -10.509  -7.495  0.00  0.00    -0.506 OA
ATOM     18  H   UNL     1       0.230 -10.233  -7.324  0.00  0.00    +0.292 HD
ENDBRANCH  16  17
BRANCH  14  19
ATOM     19  O   UNL     1      -1.004 -12.695 -11.703  0.00  0.00    -0.507 OA
ATOM     20  H   UNL     1      -1.901 -12.617 -12.057  0.00  0.00    +0.292 HD
ENDBRANCH  14  19
ENDBRANCH  10  11
ENDBRANCH   6   9
BRANCH   1  21
ATOM     21  S   UNL     1      -0.257  -6.940  -2.898  0.00  0.00    -0.075 S 
BRANCH  21  22
ATOM     22  C   UNL     1      -0.136  -6.343  -1.190  0.00  0.00    +0.173 C 
BRANCH  22  24
ATOM     23  N   UNL     1       0.057  -4.171  -0.023  0.00  0.00    -0.284 N 
ATOM     24  C   UNL     1      -0.042  -4.839  -1.189  0.00  0.00    +0.228 C 
ATOM     25  O   UNL     1      -0.055  -4.230  -2.238  0.00  0.00    -0.275 OA
ATOM     26  H   UNL     1       0.149  -4.660   0.810  0.00  0.00    +0.155 HD
BRANCH  23  31
ATOM     27  C   UNL     1      -0.063   1.502   0.016  0.00  0.00    +0.044 C 
ATOM     28  C   UNL     1      -0.031  -0.005   0.006  0.00  0.00    -0.049 A 
ATOM     29  C   UNL     1      -0.622  -0.701  -1.033  0.00  0.00    +0.005 A 
ATOM     30  C   UNL     1      -0.594  -2.081  -1.045  0.00  0.00    +0.024 A 
ATOM     31  C   UNL     1       0.028  -2.771  -0.013  0.00  0.00    +0.047 A 
ATOM     32  C   UNL     1       0.621  -2.070   1.029  0.00  0.00    +0.039 A 
ATOM     33  C   UNL     1       0.595  -0.688   1.032  0.00  0.00    +0.020 A 
ATOM     34 BR   UNL     1       1.470  -3.004   2.437  0.00  0.00    -0.048 Br
ENDBRANCH  23  31
ENDBRANCH  22  24
ENDBRANCH  21  22
ENDBRANCH   1  21
TORSDOF 8
