REMARK  Name = ZINC10616157
REMARK  9 active torsions:
REMARK  status: ('A' for Active; 'I' for Inactive)
REMARK    1  A    between atoms: C_1  and  C_2
REMARK    2  A    between atoms: C_2  and  N_3
REMARK    3  A    between atoms: C_9  and  S_10
REMARK    4  A    between atoms: S_10  and  C_11
REMARK    5  A    between atoms: C_11  and  C_12
REMARK    6  A    between atoms: N_14  and  C_15
REMARK    7  A    between atoms: C_15  and  C_16
REMARK    8  A    between atoms: C_19  and  C_22
REMARK    9  A    between atoms: C_24  and  C_27
REMARK                            x       y       z     vdW  Elec       q    Type
REMARK                         _______ _______ _______ _____ _____    ______ ____
ROOT
ATOM      1  S   UNL     1       1.230  -2.406  -0.040  0.00  0.00    -0.078 S 
ENDROOT
BRANCH   1   8
ATOM      2  N   UNL     1       0.002  -0.004   0.002  0.00  0.00    -0.287 N 
ATOM      3  C   UNL     1      -0.016   1.348   0.009  0.00  0.00    +0.268 A 
ATOM      4  O   UNL     1      -1.074   1.958   0.018  0.00  0.00    -0.266 OA
ATOM      5  C   UNL     1       1.206   2.035   0.002  0.00  0.00    +0.094 A 
ATOM      6  C   UNL     1       2.407   1.354   0.009  0.00  0.00    +0.064 A 
ATOM      7  N   UNL     1       2.342   0.005  -0.010  0.00  0.00    -0.227 NA
ATOM      8  C   UNL     1       1.204  -0.645  -0.014  0.00  0.00    +0.172 A 
ATOM      9  C   UNL     1       3.657   2.196   0.051  0.00  0.00    +0.071 C 
ATOM     10  C   UNL     1       3.391   3.638  -0.440  0.00  0.00    +0.054 C 
ATOM     11  S   UNL     1       1.600   3.768  -0.033  0.00  0.00    -0.115 S 
ATOM     12  C   UNL     1       4.218   4.658   0.346  0.00  0.00    +0.020 C 
BRANCH   2  14
ATOM     13  C   UNL     1      -1.699  -1.024  -1.429  0.00  0.00    +0.027 C 
ATOM     14  C   UNL     1      -1.249  -0.767   0.010  0.00  0.00    +0.124 C 
ENDBRANCH   2  14
ENDBRANCH   1   8
BRANCH   1  15
ATOM     15  C   UNL     1       3.017  -2.694  -0.054  0.00  0.00    +0.173 C 
BRANCH  15  16
ATOM     16  C   UNL     1       3.287  -4.177  -0.077  0.00  0.00    +0.224 C 
ATOM     17  O   UNL     1       2.362  -4.961  -0.084  0.00  0.00    -0.275 OA
ATOM     18  N   UNL     1       4.556  -4.630  -0.091  0.00  0.00    -0.311 N 
ATOM     19  H   UNL     1       5.296  -4.003  -0.086  0.00  0.00    +0.149 HD
BRANCH  18  20
ATOM     20  C   UNL     1       4.819  -6.072  -0.114  0.00  0.00    +0.139 C 
BRANCH  20  21
ATOM     21  C   UNL     1       6.306  -6.311  -0.125  0.00  0.00    -0.030 A 
ATOM     22  C   UNL     1       6.981  -6.409  -1.327  0.00  0.00    +0.005 A 
ATOM     23  C   UNL     1       8.347  -6.625  -1.338  0.00  0.00    +0.003 A 
ATOM     24  C   UNL     1       9.036  -6.752  -0.146  0.00  0.00    -0.050 A 
ATOM     25  C   UNL     1       8.360  -6.659   1.056  0.00  0.00    +0.003 A 
ATOM     26  C   UNL     1       6.995  -6.439   1.067  0.00  0.00    +0.005 A 
ATOM     27  C   UNL     1      10.524  -6.991  -0.158  0.00  0.00    +0.044 C 
ENDBRANCH  20  21
ENDBRANCH  18  20
ENDBRANCH  15  16
ENDBRANCH   1  15
TORSDOF 6
