REMARK  Name = ZINC09954525
REMARK  4 active torsions:
REMARK  status: ('A' for Active; 'I' for Inactive)
REMARK    1  A    between atoms: C_8  and  C_10
REMARK    2  A    between atoms: C_11  and  C_12
REMARK    3  A    between atoms: N_14  and  N_15
REMARK    4  A    between atoms: C_16  and  C_18
REMARK                            x       y       z     vdW  Elec       q    Type
REMARK                         _______ _______ _______ _____ _____    ______ ____
ROOT
ATOM      1  C   UNL     1      -2.255   9.048   0.072  0.00  0.00    +0.253 C 
ATOM      2  O   UNL     1      -3.471   9.102   0.084  0.00  0.00    -0.269 OA
ATOM      3  N   UNL     1      -1.529  10.184   0.072  0.00  0.00    -0.231 N 
ATOM      4  H   UNL     1      -0.560  10.140   0.064  0.00  0.00    +0.173 HD
ENDROOT
BRANCH   3   5
ATOM      5  N   UNL     1      -2.175  11.427   0.085  0.00  0.00    -0.231 N 
ATOM      6  C   UNL     1      -1.449  12.563   0.085  0.00  0.00    +0.273 C 
ATOM      7  O   UNL     1      -0.237  12.508   0.073  0.00  0.00    -0.270 OA
ATOM      8  H   UNL     1      -3.144  11.471   0.093  0.00  0.00    +0.173 HD
BRANCH   6   9
ATOM      9  C   UNL     1      -2.143  13.900   0.098  0.00  0.00    +0.297 C 
ATOM     10  C   UNL     1      -2.900  14.078   1.421  0.00  0.00    +0.283 C 
ATOM     11  O   UNL     1      -3.535  15.361   1.406  0.00  0.00    -0.484 OA
ATOM     12  C   UNL     1      -2.778  16.413   0.992  0.00  0.00    +0.162 A 
ATOM     13  C   UNL     1      -3.192  17.705   1.282  0.00  0.00    +0.049 A 
ATOM     14  C   UNL     1      -2.436  18.784   0.865  0.00  0.00    +0.004 A 
ATOM     15  C   UNL     1      -1.265  18.580   0.159  0.00  0.00    +0.004 A 
ATOM     16  C   UNL     1      -0.846  17.295  -0.132  0.00  0.00    +0.049 A 
ATOM     17  C   UNL     1      -1.600  16.208   0.284  0.00  0.00    +0.163 A 
ATOM     18  O   UNL     1      -1.173  14.949  -0.009  0.00  0.00    -0.472 OA
ENDBRANCH   6   9
ENDBRANCH   3   5
BRANCH   1  20
ATOM     19  C   UNL     1      -2.331   6.648   0.060  0.00  0.00    +0.051 C 
ATOM     20  C   UNL     1      -1.602   7.789   0.060  0.00  0.00    +0.072 C 
BRANCH  19  28
ATOM     21  C   UNL     1      -0.013   1.076   0.008  0.00  0.00    +0.001 A 
ATOM     22  C   UNL     1       1.183   1.782   0.000  0.00  0.00    +0.004 A 
ATOM     23  C   UNL     1       1.187   3.160   0.008  0.00  0.00    +0.047 A 
ATOM     24  C   UNL     1      -0.015   3.856   0.023  0.00  0.00    +0.136 A 
ATOM     25  C   UNL     1      -1.225   3.136   0.031  0.00  0.00    +0.021 A 
ATOM     26  C   UNL     1      -1.208   1.738   0.017  0.00  0.00    +0.011 A 
ATOM     27  C   UNL     1      -2.285   4.141   0.046  0.00  0.00    +0.057 A 
ATOM     28  C   UNL     1      -1.658   5.351   0.047  0.00  0.00    +0.129 A 
ATOM     29  O   UNL     1      -0.321   5.169   0.034  0.00  0.00    -0.455 OA
ENDBRANCH  19  28
ENDBRANCH   1  20
TORSDOF 4
