REMARK  Name = ZINC67269771
REMARK  9 active torsions:
REMARK  status: ('A' for Active; 'I' for Inactive)
REMARK    1  A    between atoms: C_1  and  C_2
REMARK    2  A    between atoms: C_5  and  C_7
REMARK    3  A    between atoms: C_7  and  N_8
REMARK    4  A    between atoms: N_8  and  C_9
REMARK    5  A    between atoms: C_9  and  C_10
REMARK    6  A    between atoms: C_9  and  C_11
REMARK    7  A    between atoms: C_12  and  C_14
REMARK    8  A    between atoms: C_15  and  C_25
REMARK    9  A    between atoms: C_17  and  C_19
REMARK                            x       y       z     vdW  Elec       q    Type
REMARK                         _______ _______ _______ _____ _____    ______ ____
ROOT
ATOM      1  N   UNL     1       1.079  -4.472  -1.458  0.00  0.00    -0.290 N 
ATOM      2  C   UNL     1      -0.034  -5.011  -1.993  0.00  0.00    +0.256 C 
ATOM      3  O   UNL     1      -0.028  -5.398  -3.147  0.00  0.00    -0.269 OA
ENDROOT
BRANCH   2   4
ATOM      4  C   UNL     1      -1.252  -5.132  -1.186  0.00  0.00    +0.097 A 
ATOM      5  C   UNL     1      -2.470  -5.722  -1.500  0.00  0.00    +0.058 A 
ATOM      6  N   UNL     1      -3.391  -5.681  -0.574  0.00  0.00    -0.240 NA
ATOM      7  C   UNL     1      -3.168  -5.108   0.597  0.00  0.00    +0.148 A 
ATOM      8  S   UNL     1      -1.578  -4.569   0.477  0.00  0.00    -0.059 S 
ATOM      9  C   UNL     1      -2.716  -6.372  -2.837  0.00  0.00    +0.067 C 
BRANCH   7  10
ATOM     10  C   UNL     1      -4.094  -4.977   1.742  0.00  0.00    +0.206 A 
ATOM     11  N   UNL     1      -5.355  -5.433   1.785  0.00  0.00    -0.213 NA
ATOM     12  H   UNL     1      -5.088  -4.163   4.586  0.00  0.00    +0.190 HD
ATOM     13  C   UNL     1      -5.888  -5.151   2.943  0.00  0.00    +0.216 A 
ATOM     14  N   UNL     1      -4.973  -4.497   3.683  0.00  0.00    -0.265 N 
ATOM     15  N   UNL     1      -3.816  -4.398   2.892  0.00  0.00    -0.150 NA
ENDBRANCH   7  10
ENDBRANCH   2   4
BRANCH   1  16
ATOM     16  C   UNL     1       2.328  -4.459  -2.223  0.00  0.00    +0.071 C 
ATOM     17  C   UNL     1       2.678  -5.885  -2.652  0.00  0.00    +0.028 C 
ATOM     18  C   UNL     1       2.157  -3.580  -3.464  0.00  0.00    +0.028 C 
ENDBRANCH   1  16
BRANCH   1  19
ATOM     19  C   UNL     1       1.040  -3.899  -0.110  0.00  0.00    +0.150 C 
BRANCH  19  24
ATOM     20  C   UNL     1       0.448   1.728  -0.378  0.00  0.00    +0.051 C 
ATOM     21  C   UNL     1       0.343   0.226  -0.318  0.00  0.00    -0.013 A 
ATOM     22  C   UNL     1      -0.767  -0.553  -0.335  0.00  0.00    +0.011 A 
ATOM     23  C   UNL     1      -0.622  -1.926  -0.270  0.00  0.00    +0.013 A 
ATOM     24  C   UNL     1       0.624  -2.453  -0.191  0.00  0.00    +0.007 A 
ATOM     25  S   UNL     1       1.646  -0.989  -0.213  0.00  0.00    -0.097 S 
ENDBRANCH  19  24
ENDBRANCH   1  19
TORSDOF 5
