REMARK  Name = ZINC20057359
REMARK  6 active torsions:
REMARK  status: ('A' for Active; 'I' for Inactive)
REMARK    1  A    between atoms: C_1  and  C_2
REMARK    2  A    between atoms: C_2  and  C_30
REMARK    3  A    between atoms: C_6  and  N_22
REMARK    4  A    between atoms: C_13  and  S_17
REMARK    5  A    between atoms: S_17  and  C_18
REMARK    6  A    between atoms: C_18  and  C_19
REMARK                            x       y       z     vdW  Elec       q    Type
REMARK                         _______ _______ _______ _____ _____    ______ ____
ROOT
ATOM      1  C   UNL     1       0.526   1.732   7.376  0.00  0.00    +0.041 C 
ATOM      2  C   UNL     1      -0.190   1.966   6.045  0.00  0.00    +0.068 C 
ATOM      3  C   UNL     1      -1.055   3.225   6.139  0.00  0.00    +0.070 C 
ATOM      4  C   UNL     1      -1.529   3.620   4.766  0.00  0.00    -0.024 A 
ATOM      5  C   UNL     1      -0.949   3.132   3.636  0.00  0.00    +0.022 A 
ATOM      6  C   UNL     1      -1.417   3.539   2.382  0.00  0.00    +0.128 A 
ATOM      7  N   UNL     1      -2.430   4.385   2.286  0.00  0.00    -0.224 NA
ATOM      8  C   UNL     1      -3.019   4.869   3.359  0.00  0.00    +0.113 A 
ATOM      9  C   UNL     1      -2.613   4.525   4.660  0.00  0.00    +0.037 A 
ATOM     10  C   UNL     1      -3.372   5.151   5.759  0.00  0.00    +0.092 A 
ATOM     11  C   UNL     1      -4.406   6.014   5.375  0.00  0.00    +0.072 A 
ATOM     12  S   UNL     1      -4.371   5.994   3.603  0.00  0.00    -0.064 S 
ATOM     13  C   UNL     1      -5.186   6.660   6.323  0.00  0.00    +0.115 A 
ATOM     14  N   UNL     1      -4.927   6.438   7.613  0.00  0.00    -0.228 NA
ATOM     15  C   UNL     1      -3.949   5.621   7.958  0.00  0.00    +0.223 A 
ATOM     16  N   UNL     1      -3.193   4.996   7.090  0.00  0.00    -0.234 NA
ATOM     17  C   UNL     1       0.202   2.162   3.698  0.00  0.00    +0.199 C 
ATOM     18  O   UNL     1       0.777   2.158   5.005  0.00  0.00    -0.369 OA
ATOM     19  C   UNL     1      -1.070   0.760   5.713  0.00  0.00    +0.041 C 
ENDROOT
BRANCH   6  20
ATOM     20  N   UNL     1      -0.817   3.048   1.230  0.00  0.00    -0.310 N 
ATOM     21  C   UNL     1      -1.514   1.848   0.745  0.00  0.00    +0.134 C 
ATOM     22  C   UNL     1      -0.787   1.306  -0.489  0.00  0.00    +0.178 C 
ATOM     23  O   UNL     1      -0.715   2.332  -1.483  0.00  0.00    -0.377 OA
ATOM     24  C   UNL     1      -0.042   3.514  -1.044  0.00  0.00    +0.178 C 
ATOM     25  C   UNL     1      -0.762   4.079   0.184  0.00  0.00    +0.134 C 
ENDBRANCH   6  20
BRANCH  13  26
ATOM     26  S   UNL     1      -6.486   7.746   5.837  0.00  0.00    -0.100 S 
BRANCH  26  27
ATOM     27  C   UNL     1      -7.100   8.249   7.464  0.00  0.00    +0.118 C 
BRANCH  27  28
ATOM     28  C   UNL     1      -8.250   9.208   7.292  0.00  0.00    -0.001 C 
ATOM     29  C   UNL     1      -9.479   8.803   7.505  0.00  0.00    +0.021 C 
ATOM     30 BR   UNL     1      -7.920  10.995   6.769  0.00  0.00    -0.055 Br
ENDBRANCH  27  28
ENDBRANCH  26  27
ENDBRANCH  13  26
TORSDOF 4
