REMARK  Name = ZINC13314791
REMARK  9 active torsions:
REMARK  status: ('A' for Active; 'I' for Inactive)
REMARK    1  A    between atoms: C_1  and  C_2
REMARK    2  A    between atoms: C_3  and  C_26
REMARK    3  A    between atoms: C_5  and  C_7
REMARK    4  A    between atoms: C_10  and  O_13
REMARK    5  A    between atoms: O_13  and  S_14
REMARK    6  A    between atoms: S_14  and  C_17
REMARK    7  A    between atoms: C_20  and  O_25
REMARK    8  A    between atoms: C_21  and  C_23
REMARK    9  A    between atoms: C_26  and  C_28
REMARK                            x       y       z     vdW  Elec       q    Type
REMARK                         _______ _______ _______ _____ _____    ______ ____
ROOT
ATOM      1  C   UNL     1       1.343  -2.147  -0.023  0.00  0.00    +0.007 A 
ATOM      2  C   UNL     1       2.636  -2.676  -0.044  0.00  0.00    +0.014 A 
ATOM      3  C   UNL     1       2.820  -4.042  -0.049  0.00  0.00    +0.049 A 
ATOM      4  C   UNL     1       1.721  -4.892  -0.042  0.00  0.00    +0.157 A 
ATOM      5  C   UNL     1       0.434  -4.370  -0.027  0.00  0.00    +0.049 A 
ATOM      6  C   UNL     1       0.241  -3.006  -0.017  0.00  0.00    +0.014 A 
ENDROOT
BRANCH   1  11
ATOM      7  C   UNL     1      -1.316   2.061   0.019  0.00  0.00    +0.067 C 
ATOM      8  C   UNL     1      -0.016   1.299   0.009  0.00  0.00    +0.057 A 
ATOM      9  C   UNL     1       1.210   1.964   0.001  0.00  0.00    +0.077 A 
ATOM     10  S   UNL     1       2.336   0.576  -0.017  0.00  0.00    -0.064 S 
ATOM     11  C   UNL     1       1.142  -0.685  -0.013  0.00  0.00    +0.109 A 
ATOM     12  N   UNL     1       0.002  -0.004   0.002  0.00  0.00    -0.244 NA
BRANCH   9  13
ATOM     13  C   UNL     1       1.486   3.348   0.005  0.00  0.00    +0.168 C 
ATOM     14  O   UNL     1       0.572   4.149   0.018  0.00  0.00    -0.292 OA
ATOM     15  C   UNL     1       2.913   3.833  -0.006  0.00  0.00    +0.092 C 
ENDBRANCH   9  13
ENDBRANCH   1  11
BRANCH   4  16
ATOM     16  O   UNL     1       1.907  -6.237  -0.052  0.00  0.00    -0.342 OA
BRANCH  16  17
ATOM     17  S   UNL     1       1.978  -6.843  -1.446  0.00  0.00    +0.151 S 
ATOM     18  O   UNL     1       1.962  -8.254  -1.278  0.00  0.00    -0.131 OA
ATOM     19  O   UNL     1       1.014  -6.159  -2.235  0.00  0.00    -0.131 OA
BRANCH  17  20
ATOM     20  C   UNL     1       3.556  -6.433  -2.113  0.00  0.00    +0.129 A 
ATOM     21  C   UNL     1       3.715  -5.264  -2.840  0.00  0.00    +0.034 A 
ATOM     22  C   UNL     1       4.948  -4.930  -3.364  0.00  0.00    +0.048 A 
ATOM     23  C   UNL     1       6.036  -5.769  -3.172  0.00  0.00    +0.131 A 
ATOM     24  C   UNL     1       5.878  -6.955  -2.441  0.00  0.00    +0.106 A 
ATOM     25  C   UNL     1       4.625  -7.278  -1.913  0.00  0.00    +0.049 A 
BRANCH  24  26
ATOM     26  C   UNL     1       7.027  -7.854  -2.231  0.00  0.00    +0.390 C 
ATOM     27  O   UNL     1       8.114  -7.569  -2.691  0.00  0.00    -0.240 OA
ATOM     28  O   UNL     1       6.871  -8.993  -1.527  0.00  0.00    -0.240 OA
ENDBRANCH  24  26
BRANCH  23  29
ATOM     29  O   UNL     1       7.247  -5.444  -3.690  0.00  0.00    -0.506 OA
ATOM     30  H   UNL     1       7.395  -5.781  -4.584  0.00  0.00    +0.292 HD
ENDBRANCH  23  29
ENDBRANCH  17  20
ENDBRANCH  16  17
ENDBRANCH   4  16
TORSDOF 7
