REMARK  Name = ZINC06913591
REMARK  5 active torsions:
REMARK  status: ('A' for Active; 'I' for Inactive)
REMARK    1  A    between atoms: C_1  and  N_2
REMARK    2  A    between atoms: C_6  and  C_8
REMARK    3  A    between atoms: C_8  and  S_9
REMARK    4  A    between atoms: S_9  and  C_10
REMARK    5  A    between atoms: C_13  and  C_15
REMARK                            x       y       z     vdW  Elec       q    Type
REMARK                         _______ _______ _______ _____ _____    ______ ____
ROOT
ATOM      1  C   UNL     1       2.029   0.740  -0.013  0.00  0.00    +0.278 A 
ATOM      2  N   UNL     1       1.192   1.751   0.000  0.00  0.00    -0.101 NA
ATOM      3  N   UNL     1      -0.016   1.306   0.009  0.00  0.00    -0.106 NA
ATOM      4  C   UNL     1       0.002  -0.004   0.002  0.00  0.00    +0.250 A 
ATOM      5  O   UNL     1       1.297  -0.391  -0.012  0.00  0.00    -0.411 OA
ENDROOT
BRANCH   4   6
ATOM      6  C   UNL     1      -1.177  -0.895   0.009  0.00  0.00    +0.052 A 
ATOM      7  C   UNL     1      -1.008  -2.281  -0.005  0.00  0.00    +0.014 A 
ATOM      8  C   UNL     1      -2.113  -3.107   0.006  0.00  0.00    +0.001 A 
ATOM      9  C   UNL     1      -3.386  -2.565   0.022  0.00  0.00    +0.001 A 
ATOM     10  C   UNL     1      -3.561  -1.193   0.031  0.00  0.00    +0.016 A 
ATOM     11  C   UNL     1      -2.464  -0.354   0.025  0.00  0.00    +0.030 A 
ATOM     12 BR   UNL     1      -2.705   1.521   0.036  0.00  0.00    -0.050 Br
ENDBRANCH   4   6
BRANCH   1  13
ATOM     13  S   UNL     1       3.788   0.843  -0.030  0.00  0.00    -0.056 S 
BRANCH  13  14
ATOM     14  C   UNL     1       3.998   2.640  -0.022  0.00  0.00    +0.175 C 
BRANCH  14  20
ATOM     15  C   UNL     1       9.006   6.175  -0.051  0.00  0.00    +0.129 C 
ATOM     16  N   UNL     1       7.577   5.849  -0.039  0.00  0.00    -0.302 N 
ATOM     17  C   UNL     1       7.179   4.562  -0.042  0.00  0.00    +0.306 C 
ATOM     18  O   UNL     1       8.005   3.670  -0.055  0.00  0.00    -0.252 OA
ATOM     19  N   UNL     1       5.865   4.263  -0.031  0.00  0.00    -0.240 N 
ATOM     20  C   UNL     1       5.467   2.975  -0.034  0.00  0.00    +0.231 C 
ATOM     21  O   UNL     1       6.291   2.086  -0.047  0.00  0.00    -0.274 OA
ATOM     22  H   UNL     1       6.918   6.561  -0.029  0.00  0.00    +0.150 HD
ATOM     23  H   UNL     1       5.206   4.974  -0.021  0.00  0.00    +0.159 HD
ENDBRANCH  14  20
ENDBRANCH  13  14
ENDBRANCH   1  13
TORSDOF 4
