REMARK  Name = ZINC48300244
REMARK  7 active torsions:
REMARK  status: ('A' for Active; 'I' for Inactive)
REMARK    1  A    between atoms: C_1  and  N_2
REMARK    2  A    between atoms: C_4  and  C_7
REMARK    3  A    between atoms: C_9  and  C_12
REMARK    4  A    between atoms: C_17  and  C_20
REMARK    5  A    between atoms: C_17  and  C_26
REMARK    6  A    between atoms: C_26  and  O_28
REMARK    7  A    between atoms: O_28  and  C_29
REMARK                            x       y       z     vdW  Elec       q    Type
REMARK                         _______ _______ _______ _____ _____    ______ ____
ROOT
ATOM      1  C   UNL     1       0.080  -6.911  -1.823  0.00  0.00    +0.265 C 
ATOM      2  O   UNL     1      -0.049  -7.740  -2.703  0.00  0.00    -0.268 OA
ATOM      3  N   UNL     1       0.186  -7.303  -0.538  0.00  0.00    -0.296 N 
ATOM      4  C   UNL     1       0.171  -6.316   0.550  0.00  0.00    +0.109 C 
ATOM      5  C   UNL     1      -0.911  -6.711   1.559  0.00  0.00    +0.042 C 
ATOM      6  C   UNL     1      -0.672  -8.150   2.020  0.00  0.00    +0.095 C 
ATOM      7  C   UNL     1      -0.764  -9.095   0.819  0.00  0.00    +0.042 C 
ATOM      8  C   UNL     1       0.314  -8.727  -0.198  0.00  0.00    +0.109 C 
ENDROOT
BRANCH   6   9
ATOM      9  C   UNL     1      -1.716  -8.531   3.039  0.00  0.00    -0.031 A 
ATOM     10  C   UNL     1      -2.689  -7.620   3.405  0.00  0.00    +0.005 A 
ATOM     11  C   UNL     1      -3.646  -7.969   4.340  0.00  0.00    +0.000 A 
ATOM     12  C   UNL     1      -3.630  -9.229   4.907  0.00  0.00    +0.000 A 
ATOM     13  C   UNL     1      -2.658 -10.141   4.540  0.00  0.00    +0.000 A 
ATOM     14  C   UNL     1      -1.703  -9.793   3.603  0.00  0.00    +0.005 A 
ENDBRANCH   6   9
BRANCH   1  17
ATOM     15  C   UNL     1       0.463  -3.304  -1.587  0.00  0.00    +0.112 A 
ATOM     16  N   UNL     1       0.439  -4.578  -1.239  0.00  0.00    -0.234 NA
ATOM     17  C   UNL     1       0.120  -5.478  -2.161  0.00  0.00    +0.133 A 
ATOM     18  C   UNL     1      -0.170  -5.057  -3.430  0.00  0.00    +0.080 A 
ATOM     19  S   UNL     1       0.003  -3.387  -3.308  0.00  0.00    -0.075 S 
BRANCH  15  23
ATOM     20  C   UNL     1       1.252   1.410  -0.139  0.00  0.00    +0.172 C 
ATOM     21  N   UNL     1       1.127  -0.049  -0.131  0.00  0.00    -0.274 N 
ATOM     22  C   UNL     1       0.784  -0.817  -1.183  0.00  0.00    +0.118 A 
ATOM     23  C   UNL     1       0.783  -2.118  -0.762  0.00  0.00    +0.045 A 
ATOM     24  C   UNL     1       1.141  -2.122   0.602  0.00  0.00    +0.145 A 
ATOM     25  N   UNL     1       1.350  -0.886   0.969  0.00  0.00    -0.179 NA
ENDBRANCH  15  23
ENDBRANCH   1  17
BRANCH   6  26
ATOM     26  C   UNL     1       0.697  -8.258   2.640  0.00  0.00    +0.318 C 
ATOM     27  O   UNL     1       1.409  -7.284   2.706  0.00  0.00    -0.250 OA
BRANCH  26  28
ATOM     28  O   UNL     1       1.126  -9.437   3.119  0.00  0.00    -0.467 OA
ATOM     29  C   UNL     1       2.434  -9.466   3.693  0.00  0.00    +0.280 C 
ENDBRANCH  26  28
ENDBRANCH   6  26
TORSDOF 5
