REMARK  Name = ZINC66557770
REMARK  5 active torsions:
REMARK  status: ('A' for Active; 'I' for Inactive)
REMARK    1  A    between atoms: C_1  and  C_2
REMARK    2  A    between atoms: C_6  and  C_7
REMARK    3  A    between atoms: N_9  and  N_10
REMARK    4  A    between atoms: C_11  and  C_13
REMARK    5  A    between atoms: C_14  and  C_23
REMARK                            x       y       z     vdW  Elec       q    Type
REMARK                         _______ _______ _______ _____ _____    ______ ____
ROOT
ATOM      1  N   UNL     1       0.058  -0.732   4.900  0.00  0.00    -0.228 N 
ATOM      2  C   UNL     1       0.080  -1.625   5.909  0.00  0.00    +0.296 C 
ATOM      3  O   UNL     1       0.094  -2.817   5.666  0.00  0.00    -0.265 OA
ATOM      4  H   UNL     1       0.046   0.219   5.094  0.00  0.00    +0.173 HD
ENDROOT
BRANCH   2   5
ATOM      5  C   UNL     1       0.086  -1.159   7.303  0.00  0.00    +0.195 A 
ATOM      6  C   UNL     1       0.113  -1.964   8.396  0.00  0.00    +0.008 A 
ATOM      7  C   UNL     1       0.110  -1.073   9.556  0.00  0.00    +0.025 A 
ATOM      8  C   UNL     1       0.129  -1.274  10.938  0.00  0.00    +0.032 A 
ATOM      9  C   UNL     1       0.119  -0.197  11.780  0.00  0.00    +0.042 A 
ATOM     10  C   UNL     1       0.089   1.095  11.269  0.00  0.00    +0.023 A 
ATOM     11  C   UNL     1       0.070   1.313   9.909  0.00  0.00    +0.048 A 
ATOM     12  C   UNL     1       0.080   0.233   9.033  0.00  0.00    +0.136 A 
ATOM     13  O   UNL     1       0.072   0.134   7.690  0.00  0.00    -0.450 OA
ATOM     14 CL   UNL     1       0.142  -0.444  13.498  0.00  0.00    -0.084 Cl
ATOM     15  C   UNL     1       0.140  -3.471   8.411  0.00  0.00    +0.048 C 
ENDBRANCH   2   5
BRANCH   1  18
ATOM     16  C   UNL     1       0.030  -0.283   2.562  0.00  0.00    +0.267 C 
ATOM     17  O   UNL     1       0.015   0.910   2.805  0.00  0.00    -0.268 OA
ATOM     18  N   UNL     1       0.051  -1.176   3.571  0.00  0.00    -0.230 N 
ATOM     19  H   UNL     1       0.063  -2.126   3.378  0.00  0.00    +0.173 HD
BRANCH  16  25
ATOM     20  C   UNL     1      -0.018   1.503   0.010  0.00  0.00    +0.045 C 
ATOM     21  C   UNL     1       0.002  -0.004   0.002  0.00  0.00    -0.031 A 
ATOM     22  C   UNL     1       0.007  -0.729  -1.166  0.00  0.00    +0.011 A 
ATOM     23  C   UNL     1       0.026  -2.083  -1.101  0.00  0.00    +0.046 A 
ATOM     24  S   UNL     1       0.038  -2.416   0.545  0.00  0.00    -0.092 S 
ATOM     25  C   UNL     1       0.023  -0.748   1.172  0.00  0.00    +0.078 A 
ENDBRANCH  16  25
ENDBRANCH   1  18
TORSDOF 3
