REMARK  Name = ZINC40796214
REMARK  10 active torsions:
REMARK  status: ('A' for Active; 'I' for Inactive)
REMARK    1  A    between atoms: C_1  and  C_2
REMARK    2  A    between atoms: C_5  and  O_8
REMARK    3  A    between atoms: O_8  and  C_9
REMARK    4  A    between atoms: C_10  and  N_21
REMARK    5  A    between atoms: C_11  and  N_15
REMARK    6  A    between atoms: N_15  and  N_16
REMARK    7  A    between atoms: N_16  and  C_17
REMARK    8  A    between atoms: C_17  and  C_18
REMARK    9  A    between atoms: C_17  and  C_19
REMARK   10  A    between atoms: C_17  and  C_20
REMARK                            x       y       z     vdW  Elec       q    Type
REMARK                         _______ _______ _______ _____ _____    ______ ____
ROOT
ATOM      1  C   UNL     1       0.178  -4.771   1.169  0.00  0.00    +0.246 A 
ATOM      2  C   UNL     1       0.313  -6.158   1.214  0.00  0.00    +0.129 A 
ATOM      3  C   UNL     1       0.432  -6.769   2.464  0.00  0.00    +0.160 A 
ATOM      4  N   UNL     1       0.413  -6.009   3.557  0.00  0.00    -0.218 NA
ATOM      5  C   UNL     1       0.284  -4.701   3.469  0.00  0.00    +0.227 A 
ATOM      6  N   UNL     1       0.174  -4.086   2.308  0.00  0.00    -0.199 NA
ENDROOT
BRANCH   2   7
ATOM      7  N   UNL     1       0.327  -6.919   0.035  0.00  0.00    -0.351 N 
ATOM      8  H   UNL     1       0.243  -6.481  -0.827  0.00  0.00    +0.143 HD
ATOM      9  H   UNL     1       0.422  -7.884   0.081  0.00  0.00    +0.143 HD
ENDBRANCH   2   7
BRANCH   3  10
ATOM     10  N   UNL     1       0.569  -8.148   2.566  0.00  0.00    -0.263 N 
ATOM     11  H   UNL     1       0.581  -8.694   1.765  0.00  0.00    +0.168 HD
BRANCH  10  12
ATOM     12  N   UNL     1       0.685  -8.734   3.794  0.00  0.00    -0.236 NA
ATOM     13  H   UNL     1       1.459  -8.343   4.310  0.00  0.00    +0.145 HD
BRANCH  12  14
ATOM     14  C   UNL     1       0.818 -10.192   3.671  0.00  0.00    +0.028 C 
ATOM     15  C   UNL     1       2.065 -10.523   2.850  0.00  0.00    +0.029 C 
ATOM     16  C   UNL     1       0.945 -10.812   5.064  0.00  0.00    +0.029 C 
ATOM     17  C   UNL     1      -0.419 -10.759   2.972  0.00  0.00    +0.029 C 
ENDBRANCH  12  14
ENDBRANCH  10  12
ENDBRANCH   3  10
BRANCH   1  18
ATOM     18  O   UNL     1       0.059  -4.129  -0.021  0.00  0.00    -0.436 OA
BRANCH  18  23
ATOM     19  C   UNL     1      -0.026   1.503   0.010  0.00  0.00    +0.044 C 
ATOM     20  C   UNL     1      -0.004  -0.004   0.002  0.00  0.00    -0.050 A 
ATOM     21  C   UNL     1       1.193  -0.677   0.167  0.00  0.00    +0.007 A 
ATOM     22  C   UNL     1       1.217  -2.058   0.161  0.00  0.00    +0.046 A 
ATOM     23  C   UNL     1       0.038  -2.770  -0.013  0.00  0.00    +0.130 A 
ATOM     24  C   UNL     1      -1.161  -2.092  -0.179  0.00  0.00    +0.046 A 
ATOM     25  C   UNL     1      -1.180  -0.711  -0.166  0.00  0.00    +0.007 A 
ENDBRANCH  18  23
ENDBRANCH   1  18
TORSDOF 6
