REMARK  Name = ZINC55695415
REMARK  7 active torsions:
REMARK  status: ('A' for Active; 'I' for Inactive)
REMARK    1  A    between atoms: C_1  and  C_2
REMARK    2  A    between atoms: C_7  and  O_8
REMARK    3  A    between atoms: O_8  and  C_9
REMARK    4  A    between atoms: C_9  and  C_10
REMARK    5  A    between atoms: C_10  and  C_11
REMARK    6  A    between atoms: C_10  and  N_12
REMARK    7  A    between atoms: C_13  and  C_15
REMARK                            x       y       z     vdW  Elec       q    Type
REMARK                         _______ _______ _______ _____ _____    ______ ____
ROOT
ATOM      1  N   UNL     1      -1.214   0.848   4.843  0.00  0.00    -0.305 N 
ATOM      2  C   UNL     1      -1.674   1.318   6.019  0.00  0.00    +0.250 C 
ATOM      3  O   UNL     1      -1.041   1.125   7.040  0.00  0.00    -0.270 OA
ATOM      4  H   UNL     1      -1.719   1.001   4.028  0.00  0.00    +0.149 HD
ENDROOT
BRANCH   2   5
ATOM      5  C   UNL     1      -2.936   2.062   6.068  0.00  0.00    +0.101 A 
ATOM      6  C   UNL     1      -3.778   2.357   4.978  0.00  0.00    +0.150 A 
ATOM      7  N   UNL     1      -4.804   3.033   5.415  0.00  0.00    -0.172 NA
ATOM      8  N   UNL     1      -4.691   3.213   6.799  0.00  0.00    -0.213 N 
ATOM      9  C   UNL     1      -3.540   2.612   7.215  0.00  0.00    +0.172 A 
ATOM     10  N   UNL     1      -3.158   2.611   8.498  0.00  0.00    -0.189 NA
ATOM     11  C   UNL     1      -3.872   3.189   9.441  0.00  0.00    +0.281 A 
ATOM     12  O   UNL     1      -3.457   3.170  10.728  0.00  0.00    -0.265 OA
ATOM     13  C   UNL     1      -5.126   3.854   9.070  0.00  0.00    +0.067 A 
ATOM     14  C   UNL     1      -5.506   3.852   7.715  0.00  0.00    +0.080 A 
ATOM     15  C   UNL     1      -6.689   4.471   7.334  0.00  0.00    +0.028 A 
ATOM     16  C   UNL     1      -7.468   5.094   8.286  0.00  0.00    +0.002 A 
ATOM     17  C   UNL     1      -7.083   5.108   9.619  0.00  0.00    +0.001 A 
ATOM     18  C   UNL     1      -5.932   4.487  10.018  0.00  0.00    +0.015 A 
ENDBRANCH   2   5
BRANCH   1  19
ATOM     19  C   UNL     1       0.047   0.104   4.793  0.00  0.00    +0.108 C 
ATOM     20  C   UNL     1       1.215   1.087   4.689  0.00  0.00    +0.031 C 
BRANCH  19  21
ATOM     21  C   UNL     1       0.048  -0.820   3.574  0.00  0.00    +0.251 C 
BRANCH  21  22
ATOM     22  O   UNL     1       0.025  -0.033   2.381  0.00  0.00    -0.490 OA
BRANCH  22  29
ATOM     23  C   UNL     1      -0.018   1.503   0.010  0.00  0.00    +0.047 C 
ATOM     24  C   UNL     1       0.002  -0.004   0.002  0.00  0.00    -0.009 A 
ATOM     25  C   UNL     1       0.006  -0.689  -1.198  0.00  0.00    +0.007 A 
ATOM     26  C   UNL     1       0.024  -2.071  -1.206  0.00  0.00    +0.000 A 
ATOM     27  C   UNL     1       0.039  -2.772  -0.014  0.00  0.00    +0.004 A 
ATOM     28  C   UNL     1       0.036  -2.092   1.188  0.00  0.00    +0.046 A 
ATOM     29  C   UNL     1       0.023  -0.705   1.199  0.00  0.00    +0.123 A 
ENDBRANCH  22  29
ENDBRANCH  21  22
ENDBRANCH  19  21
ENDBRANCH   1  19
TORSDOF 5
