REMARK  Name = ZINC39387785
REMARK  12 active torsions:
REMARK  status: ('A' for Active; 'I' for Inactive)
REMARK    1  A    between atoms: C_1  and  C_2
REMARK    2  A    between atoms: C_4  and  C_16
REMARK    3  A    between atoms: N_7  and  C_8
REMARK    4  A    between atoms: C_11  and  O_14
REMARK    5  A    between atoms: O_14  and  C_15
REMARK    6  A    between atoms: C_16  and  C_18
REMARK    7  A    between atoms: C_16  and  N_19
REMARK    8  A    between atoms: N_19  and  C_20
REMARK    9  A    between atoms: C_20  and  C_21
REMARK   10  A    between atoms: C_23  and  C_33
REMARK   11  A    between atoms: C_26  and  O_31
REMARK   12  A    between atoms: O_31  and  C_32
REMARK                            x       y       z     vdW  Elec       q    Type
REMARK                         _______ _______ _______ _____ _____    ______ ____
ROOT
ATOM      1  C   UNL     1       0.131  -0.279  -2.674  0.00  0.00    -0.045 C 
ATOM      2  C   UNL     1      -1.301  -0.818  -2.646  0.00  0.00    -0.009 C 
ENDROOT
BRANCH   1   5
ATOM      3  C   UNL     1       0.446   1.582  -0.043  0.00  0.00    +0.034 C 
ATOM      4  C   UNL     1       0.358   0.055  -0.011  0.00  0.00    +0.117 C 
ATOM      5  C   UNL     1       0.787  -0.526  -1.340  0.00  0.00    -0.047 C 
ATOM      6  C   UNL     1       1.837  -1.288  -1.119  0.00  0.00    +0.087 C 
ATOM      7  N   UNL     1       2.189  -1.304   0.217  0.00  0.00    -0.271 N 
ATOM      8  N   UNL     1       1.316  -0.495   0.963  0.00  0.00    -0.247 N 
ATOM      9  H   UNL     1       2.933  -1.804   0.588  0.00  0.00    +0.169 HD
BRANCH   8  10
ATOM     10  C   UNL     1       1.348  -0.260   2.341  0.00  0.00    +0.048 A 
ATOM     11  C   UNL     1       0.401   0.570   2.927  0.00  0.00    +0.028 A 
ATOM     12  C   UNL     1       0.433   0.801   4.288  0.00  0.00    +0.047 A 
ATOM     13  C   UNL     1       1.411   0.206   5.070  0.00  0.00    +0.120 A 
ATOM     14  C   UNL     1       2.358  -0.622   4.486  0.00  0.00    +0.047 A 
ATOM     15  C   UNL     1       2.324  -0.859   3.126  0.00  0.00    +0.028 A 
BRANCH  13  16
ATOM     16  O   UNL     1       1.442   0.435   6.410  0.00  0.00    -0.495 OA
ATOM     17  C   UNL     1       2.478  -0.210   7.155  0.00  0.00    +0.277 C 
ENDBRANCH  13  16
ENDBRANCH   8  10
ENDBRANCH   1   5
BRANCH   1  18
ATOM     18  N   UNL     1       0.106   1.164  -2.947  0.00  0.00    +0.387 N 
ATOM     19  H   UNL     1      -0.507   1.621  -2.288  0.00  0.00    -0.085 HD
ATOM     20  H   UNL     1       1.038   1.540  -2.856  0.00  0.00    -0.085 HD
BRANCH  18  21
ATOM     21  C   UNL     1      -0.384   1.396  -4.313  0.00  0.00    -0.027 C 
BRANCH  21  22
ATOM     22  C   UNL     1      -0.410   2.876  -4.593  0.00  0.00    +0.003 A 
ATOM     23  H   UNL     1      -2.419   3.355  -4.322  0.00  0.00    +0.166 HD
ATOM     24  C   UNL     1       0.658   3.615  -4.934  0.00  0.00    -0.024 A 
ATOM     25  C   UNL     1       0.189   4.991  -5.112  0.00  0.00    +0.006 A 
ATOM     26  C   UNL     1       0.813   6.190  -5.459  0.00  0.00    +0.056 A 
ATOM     27  C   UNL     1       0.067   7.349  -5.544  0.00  0.00    +0.121 A 
ATOM     28  C   UNL     1      -1.301   7.323  -5.284  0.00  0.00    +0.047 A 
ATOM     29  C   UNL     1      -1.927   6.145  -4.941  0.00  0.00    +0.030 A 
ATOM     30  C   UNL     1      -1.193   4.968  -4.851  0.00  0.00    +0.047 A 
ATOM     31  N   UNL     1      -1.526   3.665  -4.543  0.00  0.00    -0.359 N 
ATOM     32  C   UNL     1       2.072   3.121  -5.101  0.00  0.00    +0.046 C 
BRANCH  27  33
ATOM     33  O   UNL     1       0.669   8.520  -5.882  0.00  0.00    -0.495 OA
ATOM     34  C   UNL     1      -0.161   9.681  -5.951  0.00  0.00    +0.277 C 
ENDBRANCH  27  33
ENDBRANCH  21  22
ENDBRANCH  18  21
ENDBRANCH   1  18
TORSDOF 7
