REMARK  Name = ZINC08503089
REMARK  5 active torsions:
REMARK  status: ('A' for Active; 'I' for Inactive)
REMARK    1  A    between atoms: C_1  and  C_2
REMARK    2  A    between atoms: C_2  and  C_24
REMARK    3  A    between atoms: N_5  and  C_9
REMARK    4  A    between atoms: C_9  and  C_10
REMARK    5  A    between atoms: C_27  and  N_30
REMARK                            x       y       z     vdW  Elec       q    Type
REMARK                         _______ _______ _______ _____ _____    ______ ____
ROOT
ATOM      1  C   UNL     1       3.131   8.624   4.333  0.00  0.00    +0.047 C 
ATOM      2  C   UNL     1       3.413   7.181   3.910  0.00  0.00    +0.135 C 
ATOM      3  C   UNL     1       2.256   6.627   3.102  0.00  0.00    +0.251 C 
ATOM      4  O   UNL     1       1.109   6.484   3.469  0.00  0.00    -0.272 OA
ATOM      5  N   UNL     1       2.767   6.325   1.893  0.00  0.00    -0.215 N 
ATOM      6  C   UNL     1       4.072   6.614   1.822  0.00  0.00    +0.310 C 
ATOM      7  O   UNL     1       4.751   6.434   0.831  0.00  0.00    -0.252 OA
ATOM      8  N   UNL     1       4.547   7.128   2.972  0.00  0.00    -0.281 N 
ATOM      9  H   UNL     1       5.458   7.409   3.148  0.00  0.00    +0.152 HD
ENDROOT
BRANCH   2  10
ATOM     10  C   UNL     1       3.682   6.319   5.117  0.00  0.00    -0.015 A 
ATOM     11  C   UNL     1       2.635   5.699   5.772  0.00  0.00    +0.008 A 
ATOM     12  C   UNL     1       2.882   4.905   6.876  0.00  0.00    +0.033 A 
ATOM     13  C   UNL     1       4.177   4.738   7.330  0.00  0.00    +0.126 A 
ATOM     14  C   UNL     1       5.224   5.362   6.678  0.00  0.00    +0.033 A 
ATOM     15  C   UNL     1       4.977   6.152   5.572  0.00  0.00    +0.008 A 
BRANCH  13  16
ATOM     16  N   UNL     1       4.442   3.891   8.515  0.00  0.00    +0.056 N 
ATOM     17  O   UNL     1       5.583   3.743   8.915  0.00  0.00    -0.126 OA
ATOM     18  O   UNL     1       3.519   3.341   9.089  0.00  0.00    -0.126 OA
ENDBRANCH  13  16
ENDBRANCH   2  10
BRANCH   5  19
ATOM     19  C   UNL     1       1.990   5.756   0.789  0.00  0.00    +0.213 C 
BRANCH  19  20
ATOM     20  C   UNL     1       2.038   4.251   0.865  0.00  0.00    +0.234 C 
ATOM     21  O   UNL     1       2.660   3.708   1.753  0.00  0.00    -0.274 OA
ATOM     22  N   UNL     1       1.389   3.510  -0.055  0.00  0.00    -0.297 N 
ATOM     23  C   UNL     1       0.628   4.147  -1.140  0.00  0.00    +0.108 C 
ATOM     24  C   UNL     1      -0.798   3.590  -1.147  0.00  0.00    +0.019 C 
ATOM     25  C   UNL     1      -0.754   2.061  -1.216  0.00  0.00    +0.007 C 
ATOM     26  C   UNL     1      -0.019   1.524   0.010  0.00  0.00    +0.010 C 
ATOM     27  C   UNL     1       1.423   2.044  -0.001  0.00  0.00    +0.079 C 
ATOM     28  C   UNL     1       2.134   1.570   1.266  0.00  0.00    +0.023 C 
ATOM     29  C   UNL     1       2.155   0.039   1.283  0.00  0.00    +0.002 C 
ATOM     30  C   UNL     1       0.724  -0.500   1.258  0.00  0.00    +0.000 C 
ATOM     31  C   UNL     1       0.002  -0.004   0.002  0.00  0.00    +0.005 C 
ENDBRANCH  19  20
ENDBRANCH   5  19
TORSDOF 4
