REMARK  Name = ZINC21531478
REMARK  4 active torsions:
REMARK  status: ('A' for Active; 'I' for Inactive)
REMARK    1  A    between atoms: C_8  and  C_9
REMARK    2  A    between atoms: C_12  and  S_14
REMARK    3  A    between atoms: S_14  and  N_17
REMARK    4  A    between atoms: N_17  and  C_18
REMARK                            x       y       z     vdW  Elec       q    Type
REMARK                         _______ _______ _______ _____ _____    ______ ____
ROOT
ATOM      1  C   UNL     1      -1.308   2.131   0.020  0.00  0.00    +0.041 A 
ATOM      2  C   UNL     1      -1.544   3.480   0.028  0.00  0.00    +0.020 A 
ATOM      3  C   UNL     1      -2.848   3.924   0.036  0.00  0.00    +0.037 A 
ATOM      4  C   UNL     1      -3.857   3.014   0.036  0.00  0.00    +0.143 A 
ATOM      5  S   UNL     1      -2.965   1.468   0.016  0.00  0.00    -0.067 S 
ENDROOT
BRANCH   1  13
ATOM      6  C   UNL     1       0.002  -0.004   0.002  0.00  0.00    +0.036 A 
ATOM      7  C   UNL     1       1.211  -0.632  -0.013  0.00  0.00    +0.073 A 
ATOM      8  C   UNL     1       2.374   0.170  -0.020  0.00  0.00    +0.265 A 
ATOM      9  O   UNL     1       3.479  -0.349  -0.033  0.00  0.00    -0.266 OA
ATOM     10  N   UNL     1       2.256   1.511  -0.011  0.00  0.00    -0.243 N 
ATOM     11  H   UNL     1       3.156   2.143  -0.016  0.00  0.00    +0.192 HD
ATOM     12  N   UNL     1       1.109   2.089   0.003  0.00  0.00    -0.170 NA
ATOM     13  C   UNL     1      -0.017   1.412   0.010  0.00  0.00    +0.098 A 
ENDBRANCH   1  13
BRANCH   4  14
ATOM     14  S   UNL     1      -5.597   3.290   0.044  0.00  0.00    +0.065 S 
ATOM     15  O   UNL     1      -6.191   2.121   0.591  0.00  0.00    -0.153 OA
ATOM     16  O   UNL     1      -5.801   4.581   0.602  0.00  0.00    -0.153 OA
BRANCH  14  17
ATOM     17  N   UNL     1      -6.087   3.374  -1.536  0.00  0.00    -0.186 NA
ATOM     18  H   UNL     1      -6.336   4.354  -1.970  0.00  0.00    +0.148 HD
BRANCH  17  19
ATOM     19  C   UNL     1      -5.978   2.197  -2.400  0.00  0.00    +0.077 C 
ATOM     20  C   UNL     1      -4.636   2.256  -3.158  0.00  0.00    +0.020 C 
ATOM     21  C   UNL     1      -4.290   0.867  -3.624  0.00  0.00    +0.002 C 
ATOM     22  C   UNL     1      -4.762   0.596  -5.066  0.00  0.00    +0.000 C 
ATOM     23  C   UNL     1      -6.170   1.154  -5.348  0.00  0.00    +0.000 C 
ATOM     24  C   UNL     1      -7.122   0.918  -4.207  0.00  0.00    +0.002 C 
ATOM     25  C   UNL     1      -7.121   2.166  -3.301  0.00  0.00    +0.020 C 
ENDBRANCH  17  19
ENDBRANCH  14  17
ENDBRANCH   4  14
TORSDOF 4
