REMARK  Name = ZINC20577187
REMARK  6 active torsions:
REMARK  status: ('A' for Active; 'I' for Inactive)
REMARK    1  A    between atoms: C_1  and  C_2
REMARK    2  A    between atoms: C_5  and  N_9
REMARK    3  A    between atoms: C_7  and  C_8
REMARK    4  A    between atoms: C_11  and  C_16
REMARK    5  A    between atoms: C_22  and  C_24
REMARK    6  A    between atoms: C_29  and  N_30
REMARK                            x       y       z     vdW  Elec       q    Type
REMARK                         _______ _______ _______ _____ _____    ______ ____
ROOT
ATOM      1  C   UNL     1       5.737   4.145   0.854  0.00  0.00    +0.109 A 
ATOM      2  N   UNL     1       6.021   4.254   2.136  0.00  0.00    -0.144 NA
ATOM      3  N   UNL     1       7.205   4.212   2.569  0.00  0.00    -0.126 NA
ATOM      4  C   UNL     1       8.241   4.055   1.756  0.00  0.00    +0.188 A 
ATOM      5  S   UNL     1       7.387   3.950   0.185  0.00  0.00    -0.035 S 
ATOM      6  N   UNL     1       9.599   3.985   2.042  0.00  0.00    -0.259 N 
ATOM      7  C   UNL     1      10.025   4.082   3.317  0.00  0.00    +0.252 C 
ATOM      8  O   UNL     1       9.221   4.231   4.217  0.00  0.00    -0.270 OA
ATOM      9  H   UNL     1      10.326   3.849   1.228  0.00  0.00    +0.157 HD
ENDROOT
BRANCH   7  10
ATOM     10  C   UNL     1      11.469   4.007   3.621  0.00  0.00    +0.067 A 
ATOM     11  C   UNL     1      12.201   2.870   3.273  0.00  0.00    +0.017 A 
ATOM     12  C   UNL     1      13.548   2.806   3.559  0.00  0.00    +0.021 A 
ATOM     13  C   UNL     1      14.175   3.868   4.191  0.00  0.00    +0.043 A 
ATOM     14  C   UNL     1      13.455   4.998   4.539  0.00  0.00    +0.053 A 
ATOM     15  C   UNL     1      12.108   5.076   4.253  0.00  0.00    +0.140 A 
ATOM     16 CL   UNL     1      15.872   3.780   4.548  0.00  0.00    -0.083 Cl
BRANCH  15  17
ATOM     17  N   UNL     1      11.341   6.287   4.619  0.00  0.00    +0.057 N 
ATOM     18  O   UNL     1      11.900   7.220   5.167  0.00  0.00    -0.126 OA
ATOM     19  O   UNL     1      10.149   6.351   4.374  0.00  0.00    -0.126 OA
ENDBRANCH  15  17
ENDBRANCH   7  10
BRANCH   1  22
ATOM     20  N   UNL     1       2.136   3.588   0.666  0.00  0.00    -0.271 N 
ATOM     21  C   UNL     1       3.493   3.029   0.652  0.00  0.00    +0.124 C 
ATOM     22  C   UNL     1       4.405   4.171   0.150  0.00  0.00    +0.073 C 
ATOM     23  C   UNL     1       3.591   5.423   0.551  0.00  0.00    +0.108 C 
ATOM     24  C   UNL     1       2.161   4.931   0.610  0.00  0.00    +0.220 C 
ATOM     25  O   UNL     1       1.180   5.644   0.610  0.00  0.00    -0.275 OA
BRANCH  20  30
ATOM     26  C   UNL     1      -2.606   0.482   0.891  0.00  0.00    +0.044 C 
ATOM     27  C   UNL     1      -1.346   1.307   0.834  0.00  0.00    -0.047 A 
ATOM     28  C   UNL     1      -0.116   0.682   0.729  0.00  0.00    +0.005 A 
ATOM     29  C   UNL     1       1.040   1.436   0.671  0.00  0.00    +0.024 A 
ATOM     30  C   UNL     1       0.967   2.822   0.724  0.00  0.00    +0.037 A 
ATOM     31  C   UNL     1      -0.269   3.445   0.834  0.00  0.00    +0.027 A 
ATOM     32  C   UNL     1      -1.421   2.686   0.892  0.00  0.00    -0.046 A 
ATOM     33  C   UNL     1      -2.763   3.362   1.012  0.00  0.00    +0.044 C 
ENDBRANCH  20  30
ENDBRANCH   1  22
TORSDOF 4
