REMARK  Name = ZINC04737658
REMARK  4 active torsions:
REMARK  status: ('A' for Active; 'I' for Inactive)
REMARK    1  A    between atoms: C_1  and  C_2
REMARK    2  A    between atoms: C_2  and  C_20
REMARK    3  A    between atoms: N_3  and  N_4
REMARK    4  A    between atoms: N_15  and  C_16
REMARK                            x       y       z     vdW  Elec       q    Type
REMARK                         _______ _______ _______ _____ _____    ______ ____
ROOT
ATOM      1  N   UNL     1       3.580   1.910   0.077  0.00  0.00    -0.204 N 
ATOM      2  C   UNL     1       4.777   1.242   0.271  0.00  0.00    +0.256 A 
ATOM      3  N   UNL     1       4.789  -0.085   0.267  0.00  0.00    -0.192 NA
ATOM      4  C   UNL     1       5.940  -0.725   0.447  0.00  0.00    +0.165 A 
ATOM      5  C   UNL     1       7.108   0.041   0.649  0.00  0.00    +0.138 A 
ATOM      6  C   UNL     1       8.209  -0.922   0.824  0.00  0.00    +0.030 A 
ATOM      7  C   UNL     1       9.576  -0.786   1.053  0.00  0.00    +0.027 A 
ATOM      8  C   UNL     1      10.366  -1.910   1.175  0.00  0.00    +0.019 A 
ATOM      9  C   UNL     1       9.803  -3.173   1.070  0.00  0.00    +0.017 A 
ATOM     10  C   UNL     1       8.451  -3.321   0.843  0.00  0.00    +0.027 A 
ATOM     11  C   UNL     1       7.638  -2.199   0.717  0.00  0.00    +0.053 A 
ATOM     12  N   UNL     1       6.279  -2.054   0.492  0.00  0.00    -0.326 N 
ATOM     13  C   UNL     1       5.336  -3.163   0.326  0.00  0.00    +0.151 C 
ATOM     14 BR   UNL     1      12.222  -1.728   1.487  0.00  0.00    -0.050 Br
ATOM     15  N   UNL     1       7.027   1.363   0.647  0.00  0.00    -0.142 NA
ATOM     16  N   UNL     1       5.890   1.942   0.463  0.00  0.00    -0.111 NA
ATOM     17  H   UNL     1       2.761   1.409  -0.064  0.00  0.00    +0.178 HD
ENDROOT
BRANCH   1  20
ATOM     18  C   UNL     1       2.371   5.433  -0.038  0.00  0.00    +0.068 C 
ATOM     19  C   UNL     1       2.453   3.939  -0.211  0.00  0.00    +0.063 C 
ATOM     20  N   UNL     1       3.550   3.311   0.085  0.00  0.00    -0.184 NA
BRANCH  19  21
ATOM     21  C   UNL     1       1.288   3.189  -0.716  0.00  0.00    -0.003 A 
ATOM     22  C   UNL     1      -0.005   3.583  -0.364  0.00  0.00    +0.010 A 
ATOM     23  C   UNL     1      -1.091   2.877  -0.840  0.00  0.00    +0.001 A 
ATOM     24  C   UNL     1      -0.900   1.778  -1.660  0.00  0.00    +0.000 A 
ATOM     25  C   UNL     1       0.378   1.386  -2.017  0.00  0.00    +0.001 A 
ATOM     26  C   UNL     1       1.472   2.082  -1.548  0.00  0.00    +0.010 A 
ENDBRANCH  19  21
ENDBRANCH   1  20
TORSDOF 2
