REMARK  Name = ZINC04229864
REMARK  5 active torsions:
REMARK  status: ('A' for Active; 'I' for Inactive)
REMARK    1  A    between atoms: C_10  and  C_11
REMARK    2  A    between atoms: N_12  and  N_13
REMARK    3  A    between atoms: C_14  and  C_16
REMARK    4  A    between atoms: N_18  and  C_19
REMARK    5  A    between atoms: C_20  and  C_28
REMARK                            x       y       z     vdW  Elec       q    Type
REMARK                         _______ _______ _______ _____ _____    ______ ____
ROOT
ATOM      1  N   UNL     1      -2.976   8.957  -4.522  0.00  0.00    -0.199 N 
ATOM      2  C   UNL     1      -2.650   8.667  -3.247  0.00  0.00    +0.318 C 
ATOM      3  O   UNL     1      -2.658   9.542  -2.404  0.00  0.00    -0.263 OA
ATOM      4  H   UNL     1      -2.970   8.259  -5.195  0.00  0.00    +0.178 HD
ENDROOT
BRANCH   2   5
ATOM      5  C   UNL     1      -2.280   7.274  -2.871  0.00  0.00    +0.305 C 
ATOM      6  O   UNL     1      -2.271   6.399  -3.714  0.00  0.00    -0.265 OA
ATOM      7  N   UNL     1      -1.954   6.984  -1.596  0.00  0.00    -0.271 N 
ATOM      8  H   UNL     1      -1.960   7.682  -0.923  0.00  0.00    +0.156 HD
BRANCH   7   9
ATOM      9  C   UNL     1      -1.609   5.689  -1.247  0.00  0.00    +0.090 A 
ATOM     10  C   UNL     1      -1.245   5.189  -0.002  0.00  0.00    +0.084 A 
ATOM     11  C   UNL     1      -0.928   3.775   0.095  0.00  0.00    -0.018 A 
ATOM     12  C   UNL     1      -1.016   3.062  -1.052  0.00  0.00    -0.004 A 
ATOM     13  S   UNL     1      -1.519   4.237  -2.280  0.00  0.00    -0.077 S 
ATOM     14  C   UNL     1      -0.746   1.601  -1.234  0.00  0.00    +0.043 C 
ATOM     15  C   UNL     1       0.010   1.090   0.001  0.00  0.00    +0.005 C 
ATOM     16  C   UNL     1      -0.704   1.590   1.260  0.00  0.00    +0.005 C 
ATOM     17  C   UNL     1      -0.516   3.100   1.400  0.00  0.00    +0.037 C 
BRANCH  10  18
ATOM     18  C   UNL     1      -1.186   6.040   1.148  0.00  0.00    +0.102 C 
ATOM     19  N   UNL     1      -1.138   6.715   2.060  0.00  0.00    -0.191 NA
ENDBRANCH  10  18
ENDBRANCH   7   9
ENDBRANCH   2   5
BRANCH   1  21
ATOM     20  C   UNL     1      -3.639  10.547  -6.106  0.00  0.00    +0.139 C 
ATOM     21  N   UNL     1      -3.325  10.267  -4.875  0.00  0.00    -0.187 NA
BRANCH  20  31
ATOM     22  C   UNL     1      -4.395  14.976  -3.573  0.00  0.00    +0.001 A 
ATOM     23  C   UNL     1      -4.047  13.685  -3.183  0.00  0.00    +0.001 A 
ATOM     24  C   UNL     1      -3.916  12.687  -4.101  0.00  0.00    +0.009 A 
ATOM     25  C   UNL     1      -4.140  12.960  -5.456  0.00  0.00    -0.009 A 
ATOM     26  C   UNL     1      -4.489  14.273  -5.857  0.00  0.00    -0.017 A 
ATOM     27  C   UNL     1      -4.615  15.277  -4.883  0.00  0.00    +0.008 A 
ATOM     28  C   UNL     1      -4.707  14.543  -7.219  0.00  0.00    +0.008 A 
ATOM     29  C   UNL     1      -4.581  13.560  -8.152  0.00  0.00    +0.001 A 
ATOM     30  C   UNL     1      -4.235  12.262  -7.805  0.00  0.00    +0.010 A 
ATOM     31  C   UNL     1      -4.005  11.922  -6.477  0.00  0.00    +0.002 A 
ENDBRANCH  20  31
ENDBRANCH   1  21
TORSDOF 5
