REMARK  Name = ZINC36602875
REMARK  11 active torsions:
REMARK  status: ('A' for Active; 'I' for Inactive)
REMARK    1  A    between atoms: C_1  and  C_2
REMARK    2  A    between atoms: C_5  and  S_8
REMARK    3  A    between atoms: S_8  and  C_11
REMARK    4  A    between atoms: C_11  and  N_12
REMARK    5  A    between atoms: C_13  and  C_15
REMARK    6  A    between atoms: C_15  and  C_17
REMARK    7  A    between atoms: C_15  and  N_22
REMARK    8  A    between atoms: N_22  and  C_23
REMARK    9  A    between atoms: C_23  and  C_24
REMARK   10  A    between atoms: C_27  and  C_29
REMARK   11  A    between atoms: C_30  and  C_32
REMARK                            x       y       z     vdW  Elec       q    Type
REMARK                         _______ _______ _______ _____ _____    ______ ____
ROOT
ATOM      1  C   UNL     1       4.690  -6.487   3.825  0.00  0.00    +0.229 C 
ENDROOT
BRANCH   1   2
ATOM      2  C   UNL     1       4.804  -5.689   5.098  0.00  0.00    +0.134 A 
ATOM      3  C   UNL     1       5.923  -5.526   5.827  0.00  0.00    +0.047 A 
ATOM      4  C   UNL     1       5.578  -4.711   6.930  0.00  0.00    +0.041 A 
ATOM      5  C   UNL     1       4.269  -4.424   6.809  0.00  0.00    +0.195 A 
ATOM      6  O   UNL     1       3.807  -5.014   5.695  0.00  0.00    -0.465 OA
ENDBRANCH   1   2
BRANCH   1   8
ATOM      7  N   UNL     1       5.792  -4.731   2.475  0.00  0.00    -0.294 N 
ATOM      8  C   UNL     1       4.738  -5.554   2.642  0.00  0.00    +0.242 C 
ATOM      9  O   UNL     1       3.828  -5.545   1.840  0.00  0.00    -0.273 OA
ATOM     10  H   UNL     1       6.519  -4.738   3.117  0.00  0.00    +0.150 HD
BRANCH   7  11
ATOM     11  C   UNL     1       5.838  -3.824   1.325  0.00  0.00    +0.278 C 
BRANCH  11  12
ATOM     12  S   UNL     1       5.195  -2.199   1.810  0.00  0.00    +0.013 S 
ATOM     13  O   UNL     1       3.975  -2.347   2.523  0.00  0.00    -0.168 OA
ATOM     14  O   UNL     1       5.293  -1.290   0.722  0.00  0.00    -0.168 OA
BRANCH  12  19
ATOM     15  C   UNL     1       9.123  -0.131   5.897  0.00  0.00    +0.044 C 
ATOM     16  C   UNL     1       8.142  -0.647   4.877  0.00  0.00    -0.050 A 
ATOM     17  C   UNL     1       8.331  -0.372   3.535  0.00  0.00    +0.005 A 
ATOM     18  C   UNL     1       7.432  -0.846   2.599  0.00  0.00    +0.027 A 
ATOM     19  C   UNL     1       6.343  -1.596   3.003  0.00  0.00    +0.090 A 
ATOM     20  C   UNL     1       6.154  -1.871   4.345  0.00  0.00    +0.027 A 
ATOM     21  C   UNL     1       7.056  -1.401   5.281  0.00  0.00    +0.005 A 
ENDBRANCH  12  19
ENDBRANCH  11  12
ENDBRANCH   7  11
ENDBRANCH   1   8
BRANCH   1  22
ATOM     22  N   UNL     1       3.421  -7.218   3.819  0.00  0.00    -0.272 N 
ATOM     23  C   UNL     1       3.390  -8.517   4.178  0.00  0.00    +0.248 C 
ATOM     24  O   UNL     1       4.428  -9.115   4.385  0.00  0.00    -0.270 OA
BRANCH  23  25
ATOM     25  C   UNL     1       2.095  -9.213   4.321  0.00  0.00    +0.037 A 
ATOM     26  C   UNL     1       0.974  -8.520   4.782  0.00  0.00    +0.016 A 
ATOM     27  C   UNL     1      -0.232  -9.175   4.913  0.00  0.00    +0.039 A 
ATOM     28  C   UNL     1      -0.333 -10.519   4.588  0.00  0.00    +0.123 A 
ATOM     29  C   UNL     1       0.777 -11.212   4.130  0.00  0.00    +0.039 A 
ATOM     30  C   UNL     1       1.986 -10.566   3.990  0.00  0.00    +0.016 A 
ATOM     31  F   UNL     1      -1.517 -11.156   4.719  0.00  0.00    -0.205 F 
ENDBRANCH  23  25
BRANCH  22  32
ATOM     32  C   UNL     1       2.185  -6.538   3.423  0.00  0.00    +0.183 C 
BRANCH  32  33
ATOM     33  C   UNL     1       1.701  -5.674   4.559  0.00  0.00    +0.122 A 
ATOM     34  C   UNL     1       0.981  -4.545   4.436  0.00  0.00    +0.046 A 
ATOM     35  C   UNL     1       0.748  -4.063   5.745  0.00  0.00    +0.045 A 
ATOM     36  C   UNL     1       1.341  -4.926   6.589  0.00  0.00    +0.102 A 
ATOM     37  O   UNL     1       1.911  -5.903   5.865  0.00  0.00    -0.463 OA
ATOM     38  C   UNL     1       1.357  -4.819   8.092  0.00  0.00    +0.086 C 
ENDBRANCH  32  33
ENDBRANCH  22  32
ENDBRANCH   1  22
TORSDOF 9
