REMARK  Name = ZINC12624456
REMARK  8 active torsions:
REMARK  status: ('A' for Active; 'I' for Inactive)
REMARK    1  A    between atoms: C_1  and  C_2
REMARK    2  A    between atoms: C_5  and  C_29
REMARK    3  A    between atoms: C_7  and  N_8
REMARK    4  A    between atoms: N_8  and  C_9
REMARK    5  A    between atoms: C_12  and  S_18
REMARK    6  A    between atoms: C_14  and  N_15
REMARK    7  A    between atoms: S_18  and  N_21
REMARK    8  A    between atoms: C_25  and  C_28
REMARK                            x       y       z     vdW  Elec       q    Type
REMARK                         _______ _______ _______ _____ _____    ______ ____
ROOT
ATOM      1  C   UNL     1       2.321  -0.286  -0.087  0.00  0.00    +0.062 A 
ATOM      2  C   UNL     1       1.082  -0.912  -0.141  0.00  0.00    +0.027 A 
ATOM      3  C   UNL     1       1.007  -2.291  -0.154  0.00  0.00    +0.030 A 
ATOM      4  C   UNL     1       2.163  -3.048  -0.103  0.00  0.00    +0.108 A 
ATOM      5  C   UNL     1       3.398  -2.428  -0.043  0.00  0.00    +0.063 A 
ATOM      6  C   UNL     1       3.480  -1.050  -0.035  0.00  0.00    +0.149 A 
ENDROOT
BRANCH   6   7
ATOM      7  N   UNL     1       4.802  -0.387   0.028  0.00  0.00    +0.058 N 
ATOM      8  O   UNL     1       5.821  -1.051  -0.047  0.00  0.00    -0.126 OA
ATOM      9  O   UNL     1       4.872   0.823   0.154  0.00  0.00    -0.126 OA
ENDBRANCH   6   7
BRANCH   4  10
ATOM     10  S   UNL     1       2.062  -4.807  -0.113  0.00  0.00    +0.061 S 
ATOM     11  O   UNL     1       0.823  -5.139  -0.723  0.00  0.00    -0.153 OA
ATOM     12  O   UNL     1       3.307  -5.282  -0.608  0.00  0.00    -0.153 OA
BRANCH  10  13
ATOM     13  N   UNL     1       1.961  -5.301   1.465  0.00  0.00    -0.176 NA
ATOM     14  C   UNL     1       3.175  -5.602   2.235  0.00  0.00    +0.109 C 
ATOM     15  C   UNL     1       3.149  -4.780   3.532  0.00  0.00    +0.017 C 
ATOM     16  C   UNL     1       1.844  -5.061   4.281  0.00  0.00    +0.006 C 
ATOM     17  C   UNL     1       0.655  -4.636   3.416  0.00  0.00    +0.002 C 
ATOM     18  C   UNL     1       0.654  -5.451   2.119  0.00  0.00    +0.112 C 
ATOM     19  C   UNL     1      -0.647  -4.887   4.179  0.00  0.00    +0.009 C 
ENDBRANCH  10  13
ENDBRANCH   4  10
BRANCH   1  20
ATOM     20  N   UNL     1       2.401   1.109  -0.079  0.00  0.00    -0.312 N 
ATOM     21  H   UNL     1       2.211   1.601   0.735  0.00  0.00    +0.152 HD
BRANCH  20  28
ATOM     22  C   UNL     1       2.350   3.950  -0.025  0.00  0.00    +0.045 C 
ATOM     23  C   UNL     1       2.745   3.185  -1.262  0.00  0.00    -0.029 A 
ATOM     24  C   UNL     1       3.095   3.869  -2.412  0.00  0.00    +0.006 A 
ATOM     25  C   UNL     1       3.457   3.176  -3.549  0.00  0.00    +0.015 A 
ATOM     26  C   UNL     1       3.476   1.780  -3.540  0.00  0.00    +0.065 A 
ATOM     27  C   UNL     1       3.118   1.090  -2.381  0.00  0.00    +0.038 A 
ATOM     28  C   UNL     1       2.755   1.795  -1.244  0.00  0.00    +0.035 A 
BRANCH  26  29
ATOM     29  C   UNL     1       3.870   1.036  -4.754  0.00  0.00    +0.387 C 
ATOM     30  O   UNL     1       3.882  -0.179  -4.745  0.00  0.00    -0.241 OA
ATOM     31  O   UNL     1       4.215   1.704  -5.871  0.00  0.00    -0.241 OA
ENDBRANCH  26  29
ENDBRANCH  20  28
ENDBRANCH   1  20
TORSDOF 6
