REMARK  Name = ZINC12433468
REMARK  6 active torsions:
REMARK  status: ('A' for Active; 'I' for Inactive)
REMARK    1  A    between atoms: C_1  and  N_2
REMARK    2  A    between atoms: N_2  and  C_3
REMARK    3  A    between atoms: C_3  and  C_4
REMARK    4  A    between atoms: C_14  and  C_16
REMARK    5  A    between atoms: C_16  and  C_17
REMARK    6  A    between atoms: C_24  and  N_58
REMARK                            x       y       z     vdW  Elec       q    Type
REMARK                         _______ _______ _______ _____ _____    ______ ____
ROOT
ATOM      1  C   UNL     1       5.159   3.456   2.611  0.00  0.00    +0.132 C 
ATOM      2  N   UNL     1       5.565   2.510   1.568  0.00  0.00    -0.299 N 
ATOM      3  C   UNL     1       4.648   2.012   0.716  0.00  0.00    +0.215 C 
ATOM      4  O   UNL     1       4.984   1.228  -0.147  0.00  0.00    -0.276 OA
ENDROOT
BRANCH   2   5
ATOM      5  C   UNL     1       6.969   2.106   1.452  0.00  0.00    +0.164 C 
BRANCH   5   6
ATOM      6  C   UNL     1       7.688   3.050   0.523  0.00  0.00    +0.083 A 
ATOM      7  C   UNL     1       8.341   4.223   0.893  0.00  0.00    -0.002 A 
ATOM      8  C   UNL     1       8.859   4.786  -0.228  0.00  0.00    +0.040 A 
ATOM      9  N   UNL     1       8.546   3.996  -1.268  0.00  0.00    -0.281 N 
ATOM     10  H   UNL     1       8.791   4.156  -2.224  0.00  0.00    +0.189 HD
ATOM     11  N   UNL     1       7.813   2.907  -0.774  0.00  0.00    -0.177 NA
ATOM     12  C   UNL     1       9.640   6.076  -0.243  0.00  0.00    +0.055 C 
ATOM     13  C   UNL     1       9.386   6.812   1.078  0.00  0.00    +0.006 C 
ATOM     14  C   UNL     1       9.606   5.850   2.249  0.00  0.00    +0.005 C 
ATOM     15  C   UNL     1       8.480   4.809   2.276  0.00  0.00    +0.039 C 
ENDBRANCH   5   6
ENDBRANCH   2   5
BRANCH   3  16
ATOM     16  C   UNL     1       3.204   2.427   0.836  0.00  0.00    +0.090 C 
BRANCH  16  17
ATOM     17  C   UNL     1       2.358   1.619  -0.150  0.00  0.00    +0.028 C 
ATOM     18  C   UNL     1       2.451   0.159   0.192  0.00  0.00    +0.200 C 
ATOM     19  O   UNL     1       2.392  -0.169   1.359  0.00  0.00    -0.278 OA
ATOM     20  N   UNL     1       2.595  -0.793  -0.735  0.00  0.00    -0.318 N 
ATOM     21  C   UNL     1       2.712  -0.502  -2.161  0.00  0.00    +0.085 C 
ATOM     22  C   UNL     1       2.203   0.911  -2.450  0.00  0.00    -0.058 C 
ATOM     23  H   UNL     1       2.620  -1.720  -0.447  0.00  0.00    +0.149 HD
ATOM     24  N   UNL     1       2.871   1.838  -1.515  0.00  0.00    +0.390 N 
ATOM     25  H   UNL     1       3.882   1.656  -1.527  0.00  0.00    -0.080 HD
BRANCH  24  26
ATOM     26  C   UNL     1       2.630   3.239  -1.929  0.00  0.00    -0.067 C 
ATOM     27  C   UNL     1       1.120   3.511  -2.090  0.00  0.00    -0.015 C 
ATOM     28  C   UNL     1       1.033   4.459  -3.312  0.00  0.00    -0.002 C 
ATOM     29  C   UNL     1       2.128   3.902  -4.256  0.00  0.00    -0.002 C 
ATOM     30  C   UNL     1       3.271   3.488  -3.306  0.00  0.00    -0.015 C 
ENDBRANCH  24  26
ENDBRANCH  16  17
ENDBRANCH   3  16
TORSDOF 5
