REMARK  Name = ZINC32102363
REMARK  7 active torsions:
REMARK  status: ('A' for Active; 'I' for Inactive)
REMARK    1  A    between atoms: C_1  and  C_2
REMARK    2  A    between atoms: C_2  and  C_3
REMARK    3  A    between atoms: C_2  and  C_4
REMARK    4  A    between atoms: C_4  and  C_6
REMARK    5  A    between atoms: C_4  and  N_17
REMARK    6  A    between atoms: N_8  and  C_9
REMARK    7  A    between atoms: N_20  and  C_21
REMARK                            x       y       z     vdW  Elec       q    Type
REMARK                         _______ _______ _______ _____ _____    ______ ____
ROOT
ATOM      1  C   UNL     1       1.097   2.287  -0.419  0.00  0.00    +0.163 C 
ENDROOT
BRANCH   1   2
ATOM      2  N   UNL     1      -0.098   2.249  -1.266  0.00  0.00    -0.288 N 
ATOM      3  C   UNL     1      -1.129   3.080  -1.013  0.00  0.00    +0.300 C 
ATOM      4  O   UNL     1      -1.070   3.856  -0.080  0.00  0.00    -0.253 OA
ATOM      5  N   UNL     1      -2.227   3.049  -1.795  0.00  0.00    -0.295 N 
ATOM      6  H   UNL     1      -0.154   1.544  -2.108  0.00  0.00    +0.151 HD
ATOM      7  H   UNL     1      -2.280   2.346  -2.640  0.00  0.00    +0.151 HD
BRANCH   5   8
ATOM      8  C   UNL     1      -3.348   3.951  -1.521  0.00  0.00    +0.097 C 
ATOM      9  C   UNL     1      -3.092   5.305  -2.203  0.00  0.00    +0.046 C 
ATOM     10  C   UNL     1      -4.413   6.125  -2.163  0.00  0.00    +0.168 C 
ATOM     11  S   UNL     1      -5.639   4.804  -2.545  0.00  0.00    -0.029 S 
ATOM     12  O   UNL     1      -5.864   4.773  -3.948  0.00  0.00    -0.174 OA
ATOM     13  O   UNL     1      -6.745   4.930  -1.662  0.00  0.00    -0.174 OA
ATOM     14  C   UNL     1      -4.655   3.326  -2.064  0.00  0.00    +0.188 C 
ENDBRANCH   5   8
ENDBRANCH   1   2
BRANCH   1  15
ATOM     15  C   UNL     1       2.283   1.784  -1.202  0.00  0.00    +0.238 C 
ATOM     16  O   UNL     1       2.119   1.009  -2.120  0.00  0.00    -0.273 OA
ATOM     17  N   UNL     1       3.526   2.195  -0.880  0.00  0.00    -0.284 N 
ATOM     18  H   UNL     1       3.686   2.813   0.015  0.00  0.00    +0.155 HD
BRANCH  17  19
ATOM     19  C   UNL     1       4.612   1.836  -1.686  0.00  0.00    +0.036 A 
ATOM     20  C   UNL     1       4.640   0.591  -2.300  0.00  0.00    +0.043 A 
ATOM     21  C   UNL     1       5.712   0.240  -3.100  0.00  0.00    +0.044 A 
ATOM     22  C   UNL     1       6.760   1.125  -3.281  0.00  0.00    +0.040 A 
ATOM     23  C   UNL     1       6.736   2.365  -2.666  0.00  0.00    +0.044 A 
ATOM     24  C   UNL     1       5.665   2.722  -1.870  0.00  0.00    +0.043 A 
ATOM     25 CL   UNL     1       8.053   3.472  -2.897  0.00  0.00    -0.083 Cl
ATOM     26 CL   UNL     1       5.745  -1.314  -3.873  0.00  0.00    -0.083 Cl
ENDBRANCH  17  19
ENDBRANCH   1  15
BRANCH   1  28
ATOM     27  C   UNL     1       0.761  -0.061   0.365  0.00  0.00    +0.009 C 
ATOM     28  C   UNL     1       0.881   1.399   0.807  0.00  0.00    +0.012 C 
ATOM     29  C   UNL     1       2.070   1.548   1.760  0.00  0.00    +0.009 C 
ENDBRANCH   1  28
TORSDOF 5
