REMARK  Name = ZINC66411660
REMARK  9 active torsions:
REMARK  status: ('A' for Active; 'I' for Inactive)
REMARK    1  A    between atoms: C_1  and  C_2
REMARK    2  A    between atoms: C_4  and  N_11
REMARK    3  A    between atoms: C_6  and  C_8
REMARK    4  A    between atoms: C_8  and  C_9
REMARK    5  A    between atoms: C_8  and  C_10
REMARK    6  A    between atoms: N_14  and  C_17
REMARK    7  A    between atoms: C_17  and  C_18
REMARK    8  A    between atoms: C_18  and  C_19
REMARK    9  A    between atoms: C_19  and  N_20
REMARK                            x       y       z     vdW  Elec       q    Type
REMARK                         _______ _______ _______ _____ _____    ______ ____
ROOT
ATOM      1  N   UNL     1       0.030  -2.832  -2.322  0.00  0.00    -0.319 N 
ATOM      2  C   UNL     1       0.044  -4.303  -2.287  0.00  0.00    +0.088 C 
ATOM      3  C   UNL     1      -1.073  -4.821  -3.198  0.00  0.00    -0.060 C 
ATOM      4  N   UNL     1      -0.917  -4.244  -4.540  0.00  0.00    +0.382 N 
ATOM      5  C   UNL     1      -1.097  -2.788  -4.482  0.00  0.00    -0.060 C 
ATOM      6  C   UNL     1       0.014  -2.169  -3.635  0.00  0.00    +0.088 C 
ATOM      7  H   UNL     1       0.006  -4.454  -4.889  0.00  0.00    -0.082 HD
ENDROOT
BRANCH   1  11
ATOM      8  C   UNL     1       0.406   1.477   0.028  0.00  0.00    +0.063 C 
ATOM      9  C   UNL     1       0.203  -0.016   0.010  0.00  0.00    +0.017 A 
ATOM     10  C   UNL     1       0.217  -0.709  -1.184  0.00  0.00    +0.064 A 
ATOM     11  C   UNL     1       0.026  -2.092  -1.150  0.00  0.00    +0.125 A 
ATOM     12  N   UNL     1      -0.161  -2.687   0.024  0.00  0.00    -0.219 NA
ATOM     13  C   UNL     1      -0.166  -1.986   1.140  0.00  0.00    +0.112 A 
ATOM     14  N   UNL     1       0.017  -0.681   1.142  0.00  0.00    -0.347 N 
ATOM     15  H   UNL     1       0.011  -0.199   1.984  0.00  0.00    +0.167 HD
BRANCH  13  16
ATOM     16  C   UNL     1      -0.381  -2.698   2.451  0.00  0.00    +0.049 C 
ATOM     17  C   UNL     1       0.975  -3.022   3.083  0.00  0.00    +0.015 C 
ATOM     18  C   UNL     1      -1.181  -1.798   3.394  0.00  0.00    +0.015 C 
ENDBRANCH  13  16
ENDBRANCH   1  11
BRANCH   4  19
ATOM     19  C   UNL     1      -1.921  -4.825  -5.441  0.00  0.00    -0.077 C 
BRANCH  19  20
ATOM     20  C   UNL     1      -1.681  -4.321  -6.865  0.00  0.00    +0.001 C 
BRANCH  20  21
ATOM     21  C   UNL     1      -2.728  -4.926  -7.803  0.00  0.00    +0.116 C 
BRANCH  21  22
ATOM     22  N   UNL     1      -2.498  -4.443  -9.167  0.00  0.00    -0.225 N 
ATOM     23  C   UNL     1      -3.050  -3.324  -9.677  0.00  0.00    +0.240 C 
ATOM     24  O   UNL     1      -3.801  -2.556  -9.115  0.00  0.00    -0.273 OA
ATOM     25  C   UNL     1      -2.534  -3.224 -11.099  0.00  0.00    +0.202 C 
ATOM     26  N   UNL     1      -1.671  -4.410 -11.239  0.00  0.00    -0.290 N 
ATOM     27  C   UNL     1      -1.710  -5.055 -10.059  0.00  0.00    +0.309 C 
ATOM     28  O   UNL     1      -1.100  -6.081  -9.829  0.00  0.00    -0.252 OA
ATOM     29  H   UNL     1      -1.170  -4.673 -12.027  0.00  0.00    +0.151 HD
ENDBRANCH  21  22
ENDBRANCH  20  21
ENDBRANCH  19  20
ENDBRANCH   4  19
TORSDOF 6
