REMARK  Name = ZINC66623342
REMARK  6 active torsions:
REMARK  status: ('A' for Active; 'I' for Inactive)
REMARK    1  A    between atoms: C_1  and  C_2
REMARK    2  A    between atoms: C_3  and  C_11
REMARK    3  A    between atoms: C_5  and  C_7
REMARK    4  A    between atoms: C_7  and  C_8
REMARK    5  A    between atoms: C_8  and  C_9
REMARK    6  A    between atoms: C_8  and  C_10
REMARK                            x       y       z     vdW  Elec       q    Type
REMARK                         _______ _______ _______ _____ _____    ______ ____
ROOT
ATOM      1  C   UNL     1      -0.007  -0.248  -2.562  0.00  0.00    +0.259 C 
ATOM      2  O   UNL     1      -0.025   0.946  -2.797  0.00  0.00    -0.269 OA
ATOM      3  N   UNL     1      -0.000  -1.135  -3.577  0.00  0.00    -0.249 N 
ATOM      4  C   UNL     1      -0.013  -0.683  -4.899  0.00  0.00    +0.242 A 
ATOM      5  N   UNL     1      -0.008  -1.462  -5.986  0.00  0.00    -0.180 NA
ATOM      6  C   UNL     1      -0.024  -0.712  -7.068  0.00  0.00    +0.215 A 
ATOM      7  N   UNL     1      -0.040   0.580  -6.679  0.00  0.00    -0.245 N 
ATOM      8  N   UNL     1      -0.038   0.573  -5.275  0.00  0.00    -0.135 NA
ATOM      9  N   UNL     1      -0.024  -1.169  -8.373  0.00  0.00    -0.300 N 
ATOM     10  C   UNL     1      -0.037  -0.222  -9.497  0.00  0.00    +0.108 C 
ATOM     11  C   UNL     1       1.131  -0.552 -10.432  0.00  0.00    +0.019 C 
ATOM     12  C   UNL     1       1.046  -2.022 -10.848  0.00  0.00    +0.003 C 
ATOM     13  C   UNL     1       1.155  -2.912  -9.608  0.00  0.00    +0.019 C 
ATOM     14  C   UNL     1      -0.006  -2.609  -8.663  0.00  0.00    +0.108 C 
ATOM     15  H   UNL     1       0.013  -2.086  -3.389  0.00  0.00    +0.158 HD
ATOM     16  H   UNL     1      -0.054   1.360  -7.255  0.00  0.00    +0.192 HD
ENDROOT
BRANCH   1  19
ATOM     17  C   UNL     1      -0.018   1.503   0.010  0.00  0.00    +0.067 C 
ATOM     18  C   UNL     1       0.002  -0.004   0.002  0.00  0.00    +0.058 A 
ATOM     19  C   UNL     1       0.006  -0.722  -1.174  0.00  0.00    +0.097 A 
ATOM     20  S   UNL     1       0.032  -2.390  -0.537  0.00  0.00    -0.067 S 
ATOM     21  C   UNL     1       0.035  -2.012   1.103  0.00  0.00    +0.080 A 
ATOM     22  N   UNL     1       0.022  -0.699   1.112  0.00  0.00    -0.248 NA
BRANCH  21  23
ATOM     23  C   UNL     1       0.053  -2.955   2.278  0.00  0.00    +0.066 C 
BRANCH  23  24
ATOM     24  C   UNL     1      -1.383  -3.294   2.683  0.00  0.00    -0.011 C 
ATOM     25  C   UNL     1      -1.365  -4.346   3.794  0.00  0.00    +0.007 C 
ATOM     26  C   UNL     1      -2.082  -2.030   3.188  0.00  0.00    +0.007 C 
ENDBRANCH  23  24
ENDBRANCH  21  23
ENDBRANCH   1  19
TORSDOF 3
