REMARK  Name = ZINC19946087
REMARK  4 active torsions:
REMARK  status: ('A' for Active; 'I' for Inactive)
REMARK    1  A    between atoms: C_1  and  C_2
REMARK    2  A    between atoms: C_5  and  C_19
REMARK    3  A    between atoms: N_9  and  C_11
REMARK    4  A    between atoms: C_19  and  O_20
REMARK                            x       y       z     vdW  Elec       q    Type
REMARK                         _______ _______ _______ _____ _____    ______ ____
ROOT
ATOM      1  C   UNL     1       0.782  -2.003  -4.479  0.00  0.00    +0.068 C 
ATOM      2  C   UNL     1       1.914  -1.013  -4.374  0.00  0.00    +0.069 A 
ATOM      3  C   UNL     1       2.201  -0.152  -3.233  0.00  0.00    +0.042 A 
ATOM      4  C   UNL     1       1.601   0.040  -1.980  0.00  0.00    +0.022 A 
ATOM      5  C   UNL     1       2.153   0.959  -1.132  0.00  0.00    +0.018 A 
ATOM      6  C   UNL     1       3.282   1.677  -1.533  0.00  0.00    +0.129 A 
ATOM      7  N   UNL     1       3.839   1.480  -2.715  0.00  0.00    -0.213 NA
ATOM      8  C   UNL     1       3.341   0.599  -3.576  0.00  0.00    +0.160 A 
ATOM      9  N   UNL     1       3.703   0.207  -4.835  0.00  0.00    -0.249 N 
ATOM     10  N   UNL     1       2.812  -0.773  -5.286  0.00  0.00    -0.174 NA
ATOM     11  C   UNL     1       4.842   0.731  -5.593  0.00  0.00    +0.174 C 
ATOM     12  N   UNL     1       3.835   2.614  -0.669  0.00  0.00    -0.315 N 
ATOM     13  C   UNL     1       3.776   3.973  -1.253  0.00  0.00    +0.106 C 
ATOM     14  C   UNL     1       4.597   4.973  -0.486  0.00  0.00    +0.019 C 
ATOM     15  C   UNL     1       5.995   5.058  -1.133  0.00  0.00    +0.002 C 
ATOM     16  C   UNL     1       6.850   3.940  -0.747  0.00  0.00    +0.002 C 
ATOM     17  C   UNL     1       6.266   2.581  -1.188  0.00  0.00    +0.019 C 
ATOM     18  C   UNL     1       5.181   2.192  -0.221  0.00  0.00    +0.106 C 
ENDROOT
BRANCH   5  19
ATOM     19  C   UNL     1       1.544   1.200   0.225  0.00  0.00    +0.194 C 
BRANCH  19  20
ATOM     20  O   UNL     1       0.482   0.269   0.443  0.00  0.00    -0.390 OA
ATOM     21  H   UNL     1      -0.085   0.292   1.386  0.00  0.00    +0.210 HD
ENDBRANCH  19  20
ENDBRANCH   5  19
TORSDOF 2
