REMARK  Name = ZINC67556425
REMARK  7 active torsions:
REMARK  status: ('A' for Active; 'I' for Inactive)
REMARK    1  A    between atoms: C_1  and  C_2
REMARK    2  A    between atoms: C_2  and  C_4
REMARK    3  A    between atoms: C_2  and  N_12
REMARK    4  A    between atoms: C_7  and  C_10
REMARK    5  A    between atoms: C_13  and  C_15
REMARK    6  A    between atoms: N_17  and  C_18
REMARK    7  A    between atoms: C_21  and  N_25
REMARK                            x       y       z     vdW  Elec       q    Type
REMARK                         _______ _______ _______ _____ _____    ______ ____
ROOT
ATOM      1  C   UNL     1       2.775  -1.104   2.381  0.00  0.00    +0.303 C 
ATOM      2  O   UNL     1       2.154  -1.404   3.380  0.00  0.00    -0.265 OA
ATOM      3  N   UNL     1       4.119  -1.205   2.368  0.00  0.00    -0.278 N 
ATOM      4  H   UNL     1       4.611  -1.026   1.552  0.00  0.00    +0.155 HD
ENDROOT
BRANCH   3   5
ATOM      5  C   UNL     1       4.804  -1.567   3.532  0.00  0.00    +0.035 A 
ATOM      6  C   UNL     1       4.240  -2.482   4.413  0.00  0.00    +0.025 A 
ATOM      7  C   UNL     1       4.916  -2.840   5.562  0.00  0.00    +0.031 A 
ATOM      8  C   UNL     1       6.159  -2.287   5.838  0.00  0.00    +0.084 A 
ATOM      9  C   UNL     1       6.724  -1.372   4.957  0.00  0.00    +0.068 A 
ATOM     10  C   UNL     1       6.050  -1.018   3.804  0.00  0.00    +0.045 A 
ATOM     11 CL   UNL     1       8.278  -0.680   5.302  0.00  0.00    -0.081 Cl
BRANCH   8  12
ATOM     12  N   UNL     1       6.846  -2.651   7.005  0.00  0.00    -0.238 N 
ATOM     13  C   UNL     1       7.072  -3.913   7.434  0.00  0.00    +0.114 A 
ATOM     14  C   UNL     1       7.764  -3.835   8.595  0.00  0.00    +0.041 A 
ATOM     15  C   UNL     1       7.968  -2.482   8.886  0.00  0.00    +0.135 A 
ATOM     16  N   UNL     1       7.423  -1.772   7.931  0.00  0.00    -0.175 NA
ENDBRANCH   8  12
ENDBRANCH   3   5
BRANCH   1  18
ATOM     17  N   UNL     1       0.707  -0.522   1.179  0.00  0.00    -0.301 N 
ATOM     18  C   UNL     1       2.051  -0.623   1.167  0.00  0.00    +0.300 C 
ATOM     19  O   UNL     1       2.673  -0.323   0.169  0.00  0.00    -0.265 OA
ATOM     20  H   UNL     1       0.210  -0.761   1.977  0.00  0.00    +0.150 HD
BRANCH  17  22
ATOM     21  C   UNL     1      -0.035   1.480  -0.014  0.00  0.00    +0.033 C 
ATOM     22  C   UNL     1      -0.003  -0.050  -0.012  0.00  0.00    +0.101 C 
BRANCH  22  23
ATOM     23  C   UNL     1      -1.413  -0.582   0.001  0.00  0.00    -0.027 A 
ATOM     24  C   UNL     1      -2.123  -0.622   1.188  0.00  0.00    +0.007 A 
ATOM     25  C   UNL     1      -3.414  -1.107   1.207  0.00  0.00    +0.019 A 
ATOM     26  C   UNL     1      -4.005  -1.558   0.024  0.00  0.00    +0.052 A 
ATOM     27  C   UNL     1      -3.283  -1.514  -1.170  0.00  0.00    +0.019 A 
ATOM     28  C   UNL     1      -1.994  -1.022  -1.175  0.00  0.00    +0.007 A 
BRANCH  26  29
ATOM     29  C   UNL     1      -5.345  -2.063   0.036  0.00  0.00    +0.099 C 
ATOM     30  N   UNL     1      -6.407  -2.464   0.046  0.00  0.00    -0.191 NA
ENDBRANCH  26  29
ENDBRANCH  22  23
ENDBRANCH  17  22
ENDBRANCH   1  18
TORSDOF 6
