REMARK  Name = ZINC09542203
REMARK  7 active torsions:
REMARK  status: ('A' for Active; 'I' for Inactive)
REMARK    1  A    between atoms: C_1  and  C_2
REMARK    2  A    between atoms: C_2  and  O_3
REMARK    3  A    between atoms: O_3  and  C_4
REMARK    4  A    between atoms: C_7  and  C_10
REMARK    5  A    between atoms: C_12  and  C_25
REMARK    6  A    between atoms: C_14  and  C_17
REMARK    7  A    between atoms: C_22  and  O_23
REMARK                            x       y       z     vdW  Elec       q    Type
REMARK                         _______ _______ _______ _____ _____    ______ ____
ROOT
ATOM      1  C   UNL     1       1.765   0.187   1.649  0.00  0.00    +0.040 C 
ATOM      2  N   UNL     1       0.873  -0.513   1.054  0.00  0.00    -0.298 NA
ATOM      3  C   UNL     1       0.002  -0.004   0.002  0.00  0.00    +0.082 C 
ATOM      4  C   UNL     1       1.357   1.991  -0.000  0.00  0.00    -0.028 C 
ATOM      5  C   UNL     1       2.016   1.636   1.336  0.00  0.00    +0.044 C 
ATOM      6  N   UNL     1      -0.022   1.466   0.010  0.00  0.00    +0.401 N 
ATOM      7  H   UNL     1      -0.505   1.794   0.855  0.00  0.00    -0.081 HD
ATOM      8  H   UNL     1      -0.521   1.804  -0.822  0.00  0.00    -0.081 HD
ENDROOT
BRANCH   3   9
ATOM      9  C   UNL     1      -1.396  -0.521   0.222  0.00  0.00    -0.022 A 
ATOM     10  C   UNL     1      -2.484   0.266  -0.110  0.00  0.00    +0.006 A 
ATOM     11  C   UNL     1      -3.767  -0.210   0.086  0.00  0.00    +0.020 A 
ATOM     12  C   UNL     1      -3.963  -1.469   0.625  0.00  0.00    +0.042 A 
ATOM     13  C   UNL     1      -2.876  -2.254   0.963  0.00  0.00    +0.040 A 
ATOM     14  C   UNL     1      -1.592  -1.780   0.761  0.00  0.00    +0.046 A 
ATOM     15 CL   UNL     1      -0.226  -2.764   1.184  0.00  0.00    -0.083 Cl
ATOM     16 CL   UNL     1      -5.575  -2.063   0.878  0.00  0.00    -0.083 Cl
ENDBRANCH   3   9
BRANCH   4  17
ATOM     17  C   UNL     1       1.327   3.488  -0.170  0.00  0.00    -0.018 A 
ATOM     18  C   UNL     1       0.211   4.205   0.219  0.00  0.00    +0.025 A 
ATOM     19  C   UNL     1       0.182   5.579   0.063  0.00  0.00    +0.041 A 
ATOM     20  C   UNL     1       1.270   6.239  -0.481  0.00  0.00    +0.023 A 
ATOM     21  C   UNL     1       2.387   5.526  -0.872  0.00  0.00    +0.047 A 
ATOM     22  C   UNL     1       2.420   4.148  -0.711  0.00  0.00    +0.119 A 
ATOM     23 CL   UNL     1      -1.220   6.478   0.553  0.00  0.00    -0.084 Cl
BRANCH  22  24
ATOM     24  O   UNL     1       3.521   3.445  -1.089  0.00  0.00    -0.507 OA
ATOM     25  H   UNL     1       3.498   3.143  -2.007  0.00  0.00    +0.292 HD
ENDBRANCH  22  24
ENDBRANCH   4  17
BRANCH   1  29
ATOM     26  C   UNL     1       4.127  -1.673   4.647  0.00  0.00    +0.121 A 
ATOM     27  C   UNL     1       3.150  -2.404   3.982  0.00  0.00    +0.046 A 
ATOM     28  C   UNL     1       2.381  -1.805   3.009  0.00  0.00    +0.013 A 
ATOM     29  C   UNL     1       2.586  -0.459   2.690  0.00  0.00    -0.004 A 
ATOM     30  C   UNL     1       3.573   0.271   3.358  0.00  0.00    +0.013 A 
ATOM     31  C   UNL     1       4.333  -0.335   4.333  0.00  0.00    +0.046 A 
BRANCH  26  32
ATOM     32  O   UNL     1       4.882  -2.268   5.606  0.00  0.00    -0.492 OA
BRANCH  32  34
ATOM     33  C   UNL     1       6.613  -2.295   7.293  0.00  0.00    +0.048 C 
ATOM     34  C   UNL     1       5.867  -1.458   6.250  0.00  0.00    +0.225 C 
ENDBRANCH  32  34
ENDBRANCH  26  32
ENDBRANCH   1  29
TORSDOF 6
