REMARK  Name = ZINC20874989
REMARK  10 active torsions:
REMARK  status: ('A' for Active; 'I' for Inactive)
REMARK    1  A    between atoms: C_1  and  C_2
REMARK    2  A    between atoms: C_5  and  C_8
REMARK    3  A    between atoms: C_8  and  O_9
REMARK    4  A    between atoms: O_9  and  C_10
REMARK    5  A    between atoms: C_11  and  O_29
REMARK    6  A    between atoms: C_13  and  C_17
REMARK    7  A    between atoms: C_17  and  N_18
REMARK    8  A    between atoms: N_18  and  C_19
REMARK    9  A    between atoms: C_19  and  C_20
REMARK   10  A    between atoms: O_29  and  C_30
REMARK                            x       y       z     vdW  Elec       q    Type
REMARK                         _______ _______ _______ _____ _____    ______ ____
ROOT
ATOM      1  C   UNL     1      -2.079   2.507  -3.457  0.00  0.00    +0.181 A 
ATOM      2  C   UNL     1      -2.425   1.283  -2.893  0.00  0.00    +0.163 A 
ATOM      3  C   UNL     1      -1.750   0.823  -1.774  0.00  0.00    +0.051 A 
ATOM      4  C   UNL     1      -0.742   1.585  -1.213  0.00  0.00    -0.059 A 
ATOM      5  C   UNL     1      -0.397   2.801  -1.773  0.00  0.00    +0.025 A 
ATOM      6  C   UNL     1      -1.063   3.264  -2.893  0.00  0.00    +0.086 A 
ATOM      7 CL   UNL     1      -0.629   4.792  -3.593  0.00  0.00    -0.080 Cl
ENDROOT
BRANCH   2   8
ATOM      8  O   UNL     1      -3.421   0.536  -3.442  0.00  0.00    -0.491 OA
ATOM      9  C   UNL     1      -3.722  -0.709  -2.811  0.00  0.00    +0.277 C 
ENDBRANCH   2   8
BRANCH   1  10
ATOM     10  O   UNL     1      -2.735   2.960  -4.559  0.00  0.00    -0.482 OA
BRANCH  10  11
ATOM     11  C   UNL     1      -2.199   2.591  -5.831  0.00  0.00    +0.264 C 
BRANCH  11  16
ATOM     12  C   UNL     1      -5.468   4.845 -10.029  0.00  0.00    +0.044 C 
ATOM     13  C   UNL     1      -4.615   4.257  -8.934  0.00  0.00    -0.050 A 
ATOM     14  C   UNL     1      -3.546   4.974  -8.431  0.00  0.00    +0.004 A 
ATOM     15  C   UNL     1      -2.764   4.435  -7.427  0.00  0.00    +0.007 A 
ATOM     16  C   UNL     1      -3.051   3.179  -6.926  0.00  0.00    -0.010 A 
ATOM     17  C   UNL     1      -4.118   2.460  -7.432  0.00  0.00    +0.007 A 
ATOM     18  C   UNL     1      -4.903   3.001  -8.433  0.00  0.00    +0.004 A 
ENDBRANCH  11  16
ENDBRANCH  10  11
ENDBRANCH   1  10
BRANCH   4  19
ATOM     19  C   UNL     1      -0.013   1.086   0.008  0.00  0.00    -0.046 C 
BRANCH  19  20
ATOM     20  N   UNL     1      -0.700   1.560   1.217  0.00  0.00    +0.384 N 
ATOM     21  H   UNL     1      -0.715   2.659   1.223  0.00  0.00    -0.085 HD
ATOM     22  H   UNL     1      -1.732   1.179   1.224  0.00  0.00    -0.085 HD
BRANCH  20  23
ATOM     23  C   UNL     1      -0.016   1.091   2.429  0.00  0.00    -0.046 C 
BRANCH  23  24
ATOM     24  C   UNL     1      -0.749   1.596   3.646  0.00  0.00    -0.061 A 
ATOM     25  C   UNL     1      -0.402   2.812   4.205  0.00  0.00    +0.005 A 
ATOM     26  C   UNL     1      -1.074   3.281   5.317  0.00  0.00    +0.050 A 
ATOM     27  C   UNL     1      -2.091   2.528   5.883  0.00  0.00    +0.166 A 
ATOM     28  C   UNL     1      -2.437   1.301   5.322  0.00  0.00    +0.166 A 
ATOM     29  C   UNL     1      -1.762   0.839   4.204  0.00  0.00    +0.051 A 
ATOM     30  O   UNL     1      -3.455   0.759   6.053  0.00  0.00    -0.453 OA
ATOM     31  C   UNL     1      -3.453   1.474   7.303  0.00  0.00    +0.466 C 
ATOM     32  O   UNL     1      -2.892   2.756   6.964  0.00  0.00    -0.453 OA
ENDBRANCH  23  24
ENDBRANCH  20  23
ENDBRANCH  19  20
ENDBRANCH   4  19
TORSDOF 8
