REMARK  Name = ZINC11788925
REMARK  10 active torsions:
REMARK  status: ('A' for Active; 'I' for Inactive)
REMARK    1  A    between atoms: C_1  and  C_2
REMARK    2  A    between atoms: C_3  and  C_9
REMARK    3  A    between atoms: N_5  and  C_7
REMARK    4  A    between atoms: C_9  and  N_57
REMARK    5  A    between atoms: C_12  and  C_15
REMARK    6  A    between atoms: C_15  and  C_22
REMARK    7  A    between atoms: C_22  and  C_23
REMARK    8  A    between atoms: C_23  and  C_24
REMARK    9  A    between atoms: C_24  and  C_25
REMARK   10  A    between atoms: C_24  and  C_26
REMARK                            x       y       z     vdW  Elec       q    Type
REMARK                         _______ _______ _______ _____ _____    ______ ____
ROOT
ATOM      1  C   UNL     1       1.579  -2.558  -2.409  0.00  0.00    -0.078 C 
ATOM      2  C   UNL     1       0.765  -2.050  -1.216  0.00  0.00    -0.013 C 
ATOM      3  C   UNL     1       0.863  -0.523  -1.151  0.00  0.00    +0.018 C 
ATOM      4  C   UNL     1       0.362   0.071  -2.471  0.00  0.00    -0.013 C 
ATOM      5  C   UNL     1       1.187  -0.500  -3.627  0.00  0.00    -0.078 C 
ATOM      6  N   UNL     1       1.031  -1.970  -3.650  0.00  0.00    +0.383 N 
ATOM      7  H   UNL     1       0.032  -2.198  -3.713  0.00  0.00    -0.081 HD
ENDROOT
BRANCH   3   8
ATOM      8  C   UNL     1       0.002  -0.004   0.002  0.00  0.00    +0.115 C 
ATOM      9  C   UNL     1      -1.406  -0.556  -0.094  0.00  0.00    +0.244 C 
ATOM     10  O   UNL     1      -2.199  -0.388  -0.996  0.00  0.00    -0.273 OA
ATOM     11  N   UNL     1      -1.594  -1.273   1.032  0.00  0.00    -0.238 N 
ATOM     12  C   UNL     1      -0.511  -1.251   1.817  0.00  0.00    +0.307 C 
ATOM     13  O   UNL     1      -0.440  -1.825   2.886  0.00  0.00    -0.252 OA
ATOM     14  N   UNL     1       0.490  -0.523   1.292  0.00  0.00    -0.285 N 
ATOM     15  H   UNL     1      -2.413  -1.747   1.246  0.00  0.00    +0.159 HD
ATOM     16  H   UNL     1       1.364  -0.370   1.685  0.00  0.00    +0.151 HD
BRANCH   8  17
ATOM     17  C   UNL     1      -0.019   1.526   0.010  0.00  0.00    +0.036 C 
BRANCH  17  18
ATOM     18  C   UNL     1      -0.735   2.019   1.269  0.00  0.00    +0.005 C 
BRANCH  18  19
ATOM     19  C   UNL     1      -0.756   3.549   1.278  0.00  0.00    -0.017 C 
ATOM     20  C   UNL     1      -1.601   4.054   0.107  0.00  0.00    +0.007 C 
ATOM     21  C   UNL     1      -1.359   4.044   2.594  0.00  0.00    +0.007 C 
ENDBRANCH  18  19
ENDBRANCH  17  18
ENDBRANCH   8  17
ENDBRANCH   3   8
BRANCH   6  22
ATOM     22  C   UNL     1       1.727  -2.533  -4.825  0.00  0.00    -0.038 C 
BRANCH  22  25
ATOM     23  C   UNL     1      -0.670  -4.051  -6.236  0.00  0.00    +0.068 C 
ATOM     24  C   UNL     1      -0.049  -2.758  -6.697  0.00  0.00    +0.063 A 
ATOM     25  C   UNL     1       1.009  -2.088  -6.073  0.00  0.00    -0.005 A 
ATOM     26  C   UNL     1       1.278  -0.973  -6.793  0.00  0.00    +0.128 A 
ATOM     27  N   UNL     1       0.416  -0.936  -7.831  0.00  0.00    -0.256 N 
ATOM     28  N   UNL     1      -0.409  -2.065  -7.746  0.00  0.00    -0.175 NA
ATOM     29  C   UNL     1       0.354   0.101  -8.864  0.00  0.00    +0.174 C 
ATOM     30 CL   UNL     1       2.509   0.200  -6.443  0.00  0.00    -0.062 Cl
ENDBRANCH  22  25
ENDBRANCH   6  22
TORSDOF 6
