REMARK  Name = ZINC30448699
REMARK  6 active torsions:
REMARK  status: ('A' for Active; 'I' for Inactive)
REMARK    1  A    between atoms: C_1  and  C_2
REMARK    2  A    between atoms: C_3  and  C_28
REMARK    3  A    between atoms: C_11  and  C_13
REMARK    4  A    between atoms: C_13  and  C_15
REMARK    5  A    between atoms: C_13  and  N_16
REMARK    6  A    between atoms: N_16  and  C_17
REMARK                            x       y       z     vdW  Elec       q    Type
REMARK                         _______ _______ _______ _____ _____    ______ ____
ROOT
ATOM      1  C   UNL     1       0.090  -3.432   4.547  0.00  0.00    +0.133 C 
ATOM      2  C   UNL     1       1.275  -3.097   5.455  0.00  0.00    +0.036 C 
ENDROOT
BRANCH   1  13
ATOM      3  C   UNL     1      -0.018   1.503   0.010  0.00  0.00    +0.045 C 
ATOM      4  C   UNL     1       0.002  -0.004   0.002  0.00  0.00    -0.026 A 
ATOM      5  C   UNL     1       0.006  -0.677  -1.160  0.00  0.00    -0.008 A 
ATOM      6  S   UNL     1       0.032  -2.385  -0.648  0.00  0.00    -0.073 S 
ATOM      7  C   UNL     1       0.037  -2.144   1.110  0.00  0.00    +0.116 A 
ATOM      8  C   UNL     1       0.024  -0.745   1.250  0.00  0.00    +0.075 A 
ATOM      9  C   UNL     1       0.029  -0.257   2.597  0.00  0.00    +0.260 A 
ATOM     10  O   UNL     1       0.014   0.942   2.821  0.00  0.00    -0.267 OA
ATOM     11  N   UNL     1       0.051  -1.142   3.611  0.00  0.00    -0.309 N 
ATOM     12  H   UNL     1       0.054  -0.817   4.525  0.00  0.00    +0.170 HD
ATOM     13  C   UNL     1       0.067  -2.480   3.380  0.00  0.00    +0.131 A 
ATOM     14  N   UNL     1       0.053  -2.956   2.163  0.00  0.00    -0.225 NA
ATOM     15  C   UNL     1      -0.009  -0.122  -2.561  0.00  0.00    +0.052 C 
ENDBRANCH   1  13
BRANCH   1  16
ATOM     16  N   UNL     1       0.225  -4.805   4.055  0.00  0.00    -0.334 N 
ATOM     17  H   UNL     1       0.635  -4.973   3.192  0.00  0.00    +0.147 HD
BRANCH  16  18
ATOM     18  C   UNL     1      -0.239  -5.875   4.829  0.00  0.00    +0.031 A 
ATOM     19  C   UNL     1      -0.831  -5.633   6.061  0.00  0.00    +0.027 A 
ATOM     20  C   UNL     1      -1.292  -6.688   6.829  0.00  0.00    +0.051 A 
ATOM     21  C   UNL     1      -1.160  -7.986   6.365  0.00  0.00    +0.162 A 
ATOM     22  C   UNL     1      -0.567  -8.230   5.134  0.00  0.00    +0.164 A 
ATOM     23  C   UNL     1      -0.111  -7.177   4.361  0.00  0.00    +0.072 A 
ATOM     24  O   UNL     1      -0.445  -9.514   4.688  0.00  0.00    -0.488 OA
ATOM     25  C   UNL     1       0.469 -10.342   5.410  0.00  0.00    +0.232 C 
ATOM     26  C   UNL     1      -0.202 -10.950   6.631  0.00  0.00    +0.082 C 
ATOM     27  C   UNL     1      -0.609  -9.898   7.652  0.00  0.00    +0.232 C 
ATOM     28  O   UNL     1      -1.612  -9.034   7.115  0.00  0.00    -0.488 OA
ENDBRANCH  16  18
ENDBRANCH   1  16
TORSDOF 3
