REMARK  Name = ZINC67638187
REMARK  9 active torsions:
REMARK  status: ('A' for Active; 'I' for Inactive)
REMARK    1  A    between atoms: C_1  and  C_2
REMARK    2  A    between atoms: C_2  and  C_4
REMARK    3  A    between atoms: C_2  and  N_11
REMARK    4  A    between atoms: C_8  and  O_10
REMARK    5  A    between atoms: N_11  and  C_12
REMARK    6  A    between atoms: N_15  and  C_16
REMARK    7  A    between atoms: C_16  and  C_17
REMARK    8  A    between atoms: N_22  and  C_24
REMARK    9  A    between atoms: C_24  and  C_25
REMARK                            x       y       z     vdW  Elec       q    Type
REMARK                         _______ _______ _______ _____ _____    ______ ____
ROOT
ATOM      1  N   UNL     1      -1.449  -0.477  -0.098  0.00  0.00    -0.282 N 
ATOM      2  C   UNL     1      -2.489   0.012   0.811  0.00  0.00    +0.134 C 
ATOM      3  C   UNL     1      -1.762  -1.361  -1.066  0.00  0.00    +0.302 C 
ATOM      4  O   UNL     1      -0.900  -1.767  -1.821  0.00  0.00    -0.253 OA
ATOM      5  N   UNL     1      -3.032  -1.794  -1.198  0.00  0.00    -0.299 N 
ATOM      6  H   UNL     1      -3.720  -1.470  -0.596  0.00  0.00    +0.150 HD
ENDROOT
BRANCH   1   8
ATOM      7  C   UNL     1      -0.045   1.523  -0.004  0.00  0.00    +0.033 C 
ATOM      8  C   UNL     1      -0.070  -0.006   0.045  0.00  0.00    +0.104 C 
BRANCH   8   9
ATOM      9  C   UNL     1       0.487  -0.475   1.365  0.00  0.00    -0.024 A 
ATOM     10  C   UNL     1       0.046  -1.664   1.917  0.00  0.00    +0.006 A 
ATOM     11  C   UNL     1       0.555  -2.097   3.127  0.00  0.00    +0.004 A 
ATOM     12  C   UNL     1       1.505  -1.343   3.789  0.00  0.00    +0.045 A 
ATOM     13  C   UNL     1       1.948  -0.150   3.237  0.00  0.00    +0.117 A 
ATOM     14  C   UNL     1       1.441   0.280   2.019  0.00  0.00    +0.050 A 
BRANCH  13  15
ATOM     15  O   UNL     1       2.882   0.594   3.886  0.00  0.00    -0.507 OA
ATOM     16  H   UNL     1       3.794   0.375   3.649  0.00  0.00    +0.292 HD
ENDBRANCH  13  15
ENDBRANCH   8   9
ENDBRANCH   1   8
BRANCH   5  17
ATOM     17  C   UNL     1      -3.372  -2.755  -2.251  0.00  0.00    +0.107 C 
BRANCH  17  18
ATOM     18  C   UNL     1      -4.866  -3.079  -2.182  0.00  0.00    -0.011 C 
ATOM     19  C   UNL     1      -5.678  -1.821  -2.506  0.00  0.00    +0.001 C 
ATOM     20  C   UNL     1      -7.168  -2.175  -2.511  0.00  0.00    -0.018 C 
ATOM     21  C   UNL     1      -7.416  -3.300  -3.518  0.00  0.00    -0.078 C 
ATOM     22  N   UNL     1      -6.633  -4.482  -3.138  0.00  0.00    +0.383 N 
ATOM     23  C   UNL     1      -5.199  -4.172  -3.199  0.00  0.00    -0.073 C 
ATOM     24  H   UNL     1      -6.875  -4.758  -2.198  0.00  0.00    -0.081 HD
BRANCH  22  25
ATOM     25  C   UNL     1      -6.934  -5.585  -4.061  0.00  0.00    -0.036 C 
BRANCH  25  26
ATOM     26  C   UNL     1      -8.375  -5.993  -3.902  0.00  0.00    -0.027 A 
ATOM     27  C   UNL     1      -9.470  -5.533  -4.556  0.00  0.00    +0.009 A 
ATOM     28  C   UNL     1     -10.709  -6.061  -4.244  0.00  0.00    +0.008 A 
ATOM     29  C   UNL     1     -10.792  -7.022  -3.293  0.00  0.00    +0.045 A 
ATOM     30  S   UNL     1      -9.084  -7.215  -2.810  0.00  0.00    -0.103 S 
ENDBRANCH  25  26
ENDBRANCH  22  25
ENDBRANCH  17  18
ENDBRANCH   5  17
TORSDOF 7
