REMARK  Name = ZINC35246829
REMARK  11 active torsions:
REMARK  status: ('A' for Active; 'I' for Inactive)
REMARK    1  A    between atoms: C_1  and  C_2
REMARK    2  A    between atoms: C_5  and  C_8
REMARK    3  A    between atoms: C_8  and  N_9
REMARK    4  A    between atoms: N_9  and  C_10
REMARK    5  A    between atoms: N_9  and  C_18
REMARK    6  A    between atoms: C_10  and  C_11
REMARK    7  A    between atoms: C_18  and  C_19
REMARK    8  A    between atoms: C_22  and  C_24
REMARK    9  A    between atoms: N_26  and  C_27
REMARK   10  A    between atoms: C_27  and  C_28
REMARK   11  A    between atoms: C_28  and  C_29
REMARK                            x       y       z     vdW  Elec       q    Type
REMARK                         _______ _______ _______ _____ _____    ______ ____
ROOT
ATOM      1  N   UNL     1       1.500  -4.639   0.017  0.00  0.00    +0.390 N 
ATOM      2  H   UNL     1       1.987  -4.290   0.829  0.00  0.00    -0.080 HD
ENDROOT
BRANCH   1   3
ATOM      3  C   UNL     1       0.101  -4.193   0.056  0.00  0.00    -0.042 C 
BRANCH   3   8
ATOM      4  C   UNL     1      -2.283  -5.757   5.083  0.00  0.00    +0.044 C 
ATOM      5  C   UNL     1      -1.661  -5.349   3.772  0.00  0.00    -0.050 A 
ATOM      6  C   UNL     1      -0.929  -4.179   3.688  0.00  0.00    +0.003 A 
ATOM      7  C   UNL     1      -0.359  -3.805   2.486  0.00  0.00    +0.002 A 
ATOM      8  C   UNL     1      -0.520  -4.601   1.367  0.00  0.00    -0.064 A 
ATOM      9  C   UNL     1      -1.252  -5.771   1.451  0.00  0.00    +0.002 A 
ATOM     10  C   UNL     1      -1.818  -6.147   2.655  0.00  0.00    +0.003 A 
ENDBRANCH   3   8
ENDBRANCH   1   3
BRANCH   1  11
ATOM     11  C   UNL     1       2.144  -4.124  -1.199  0.00  0.00    -0.042 C 
BRANCH  11  12
ATOM     12  C   UNL     1       2.225  -2.621  -1.126  0.00  0.00    -0.061 A 
ATOM     13  C   UNL     1       1.249  -1.847  -1.725  0.00  0.00    +0.002 A 
ATOM     14  C   UNL     1       1.322  -0.468  -1.660  0.00  0.00    +0.003 A 
ATOM     15  C   UNL     1       2.372   0.138  -0.995  0.00  0.00    +0.038 A 
ATOM     16  C   UNL     1       3.350  -0.636  -0.395  0.00  0.00    +0.124 A 
ATOM     17  C   UNL     1       3.272  -2.018  -0.456  0.00  0.00    +0.040 A 
ATOM     18  F   UNL     1       4.376  -0.045   0.254  0.00  0.00    -0.205 F 
ENDBRANCH  11  12
ENDBRANCH   1  11
BRANCH   1  19
ATOM     19  C   UNL     1       1.546  -6.107   0.011  0.00  0.00    -0.002 C 
BRANCH  19  20
ATOM     20  C   UNL     1       2.979  -6.565   0.095  0.00  0.00    +0.090 A 
ATOM     21  C   UNL     1       3.660  -6.816   1.235  0.00  0.00    +0.043 A 
ATOM     22  C   UNL     1       4.953  -7.216   0.865  0.00  0.00    +0.055 A 
ATOM     23  C   UNL     1       4.997  -7.190  -0.500  0.00  0.00    +0.189 A 
ATOM     24  O   UNL     1       3.787  -6.796  -0.948  0.00  0.00    -0.457 OA
BRANCH  23  25
ATOM     25  C   UNL     1       6.154  -7.533  -1.332  0.00  0.00    +0.279 C 
ATOM     26  O   UNL     1       7.198  -7.879  -0.810  0.00  0.00    -0.267 OA
ATOM     27  N   UNL     1       6.063  -7.464  -2.675  0.00  0.00    -0.309 N 
ATOM     28  H   UNL     1       5.232  -7.187  -3.091  0.00  0.00    +0.149 HD
BRANCH  27  29
ATOM     29  C   UNL     1       7.220  -7.806  -3.506  0.00  0.00    +0.109 C 
BRANCH  29  30
ATOM     30  C   UNL     1       6.852  -7.646  -4.983  0.00  0.00    +0.054 C 
BRANCH  30  31
ATOM     31  C   UNL     1       8.042  -7.998  -5.838  0.00  0.00    -0.046 A 
ATOM     32  C   UNL     1       8.953  -7.020  -6.191  0.00  0.00    +0.004 A 
ATOM     33  C   UNL     1      10.044  -7.344  -6.976  0.00  0.00    +0.000 A 
ATOM     34  C   UNL     1      10.225  -8.645  -7.406  0.00  0.00    +0.000 A 
ATOM     35  C   UNL     1       9.314  -9.623  -7.052  0.00  0.00    +0.000 A 
ATOM     36  C   UNL     1       8.225  -9.300  -6.264  0.00  0.00    +0.004 A 
ENDBRANCH  30  31
ENDBRANCH  29  30
ENDBRANCH  27  29
ENDBRANCH  23  25
ENDBRANCH  19  20
ENDBRANCH   1  19
TORSDOF 10
