REMARK  Name = ZINC24468508
REMARK  5 active torsions:
REMARK  status: ('A' for Active; 'I' for Inactive)
REMARK    1  A    between atoms: C_3  and  N_24
REMARK    2  A    between atoms: C_4  and  N_16
REMARK    3  A    between atoms: C_6  and  S_7
REMARK    4  A    between atoms: S_7  and  N_10
REMARK    5  A    between atoms: C_17  and  C_19
REMARK                            x       y       z     vdW  Elec       q    Type
REMARK                         _______ _______ _______ _____ _____    ______ ____
ROOT
ATOM      1  C   UNL     1       3.489  -2.325  -0.760  0.00  0.00    +0.030 A 
ATOM      2  C   UNL     1       3.925  -2.640  -2.034  0.00  0.00    +0.027 A 
ATOM      3  C   UNL     1       4.833  -1.814  -2.680  0.00  0.00    +0.051 A 
ATOM      4  C   UNL     1       5.300  -0.665  -2.042  0.00  0.00    +0.057 A 
ATOM      5  C   UNL     1       4.853  -0.354  -0.767  0.00  0.00    +0.053 A 
ATOM      6  C   UNL     1       3.947  -1.183  -0.131  0.00  0.00    +0.107 A 
ENDROOT
BRANCH   3   7
ATOM      7  N   UNL     1       5.279  -2.133  -3.967  0.00  0.00    -0.328 N 
ATOM      8  C   UNL     1       4.173  -2.095  -4.932  0.00  0.00    +0.105 C 
ATOM      9  C   UNL     1       4.721  -2.305  -6.346  0.00  0.00    +0.019 C 
ATOM     10  C   UNL     1       5.437  -3.656  -6.415  0.00  0.00    +0.003 C 
ATOM     11  C   UNL     1       6.553  -3.688  -5.367  0.00  0.00    +0.019 C 
ATOM     12  C   UNL     1       5.953  -3.438  -3.982  0.00  0.00    +0.105 C 
ENDBRANCH   3   7
BRANCH   4  13
ATOM     13  N   UNL     1       6.218   0.174  -2.688  0.00  0.00    -0.280 N 
ATOM     14  C   UNL     1       7.037   0.962  -1.964  0.00  0.00    +0.251 C 
ATOM     15  O   UNL     1       7.051   0.873  -0.751  0.00  0.00    -0.270 OA
ATOM     16  H   UNL     1       6.270   0.189  -3.787  0.00  0.00    +0.155 HD
BRANCH  14  17
ATOM     17  C   UNL     1       7.915   1.931  -2.642  0.00  0.00    +0.075 A 
ATOM     18  C   UNL     1       8.860   2.866  -2.013  0.00  0.00    +0.054 A 
ATOM     19  C   UNL     1       9.435   3.542  -3.019  0.00  0.00    +0.195 A 
ATOM     20  O   UNL     1       8.926   3.114  -4.184  0.00  0.00    -0.470 OA
ATOM     21  C   UNL     1       8.018   2.153  -3.984  0.00  0.00    +0.207 A 
ENDBRANCH  14  17
ENDBRANCH   4  13
BRANCH   6  22
ATOM     22  S   UNL     1       3.381  -0.786   1.490  0.00  0.00    +0.061 S 
ATOM     23  O   UNL     1       4.378   0.039   2.077  0.00  0.00    -0.153 OA
ATOM     24  O   UNL     1       2.956  -2.006   2.082  0.00  0.00    -0.153 OA
BRANCH  22  25
ATOM     25  N   UNL     1       2.029   0.154   1.319  0.00  0.00    -0.177 NA
ATOM     26  C   UNL     1       0.696  -0.458   1.244  0.00  0.00    +0.109 C 
ATOM     27  C   UNL     1      -0.008   0.046  -0.019  0.00  0.00    +0.017 C 
ATOM     28  C   UNL     1      -0.019   1.576  -0.016  0.00  0.00    +0.003 C 
ATOM     29  C   UNL     1       1.419   2.098  -0.024  0.00  0.00    +0.017 C 
ATOM     30  C   UNL     1       2.140   1.617   1.240  0.00  0.00    +0.109 C 
ENDBRANCH  22  25
ENDBRANCH   6  22
TORSDOF 5
