REMARK  Name = ZINC11753972
REMARK  8 active torsions:
REMARK  status: ('A' for Active; 'I' for Inactive)
REMARK    1  A    between atoms: C_1  and  C_2
REMARK    2  A    between atoms: N_10  and  C_11
REMARK    3  A    between atoms: C_11  and  C_12
REMARK    4  A    between atoms: C_12  and  N_13
REMARK    5  A    between atoms: C_14  and  C_16
REMARK    6  A    between atoms: C_16  and  C_17
REMARK    7  A    between atoms: C_24  and  C_25
REMARK    8  A    between atoms: C_24  and  N_55
REMARK                            x       y       z     vdW  Elec       q    Type
REMARK                         _______ _______ _______ _____ _____    ______ ____
ROOT
ATOM      1  N   UNL     1       2.122   3.084   0.523  0.00  0.00    -0.314 N 
ATOM      2  C   UNL     1       0.800   2.825   0.472  0.00  0.00    +0.212 C 
ATOM      3  O   UNL     1       0.332   2.249  -0.487  0.00  0.00    -0.276 OA
ATOM      4  H   UNL     1       2.497   3.545   1.290  0.00  0.00    +0.149 HD
ENDROOT
BRANCH   1   5
ATOM      5  C   UNL     1       2.993   2.670  -0.581  0.00  0.00    +0.125 C 
BRANCH   5   6
ATOM      6  C   UNL     1       4.434   3.080  -0.275  0.00  0.00    +0.141 C 
BRANCH   6  16
ATOM      7  C   UNL     1       5.870   0.365  -0.430  0.00  0.00    +0.063 C 
ATOM      8  C   UNL     1       5.949   1.462  -1.461  0.00  0.00    +0.017 A 
ATOM      9  C   UNL     1       6.660   1.401  -2.598  0.00  0.00    +0.031 A 
ATOM     10  C   UNL     1       6.463   2.674  -3.295  0.00  0.00    +0.000 A 
ATOM     11  C   UNL     1       6.932   3.204  -4.498  0.00  0.00    +0.010 A 
ATOM     12  C   UNL     1       6.552   4.460  -4.881  0.00  0.00    +0.001 A 
ATOM     13  C   UNL     1       5.701   5.212  -4.082  0.00  0.00    +0.002 A 
ATOM     14  C   UNL     1       5.226   4.708  -2.892  0.00  0.00    +0.026 A 
ATOM     15  C   UNL     1       5.600   3.432  -2.483  0.00  0.00    +0.049 A 
ATOM     16  N   UNL     1       5.305   2.666  -1.378  0.00  0.00    -0.343 N 
ENDBRANCH   6  16
ENDBRANCH   5   6
ENDBRANCH   1   5
BRANCH   2  17
ATOM     17  C   UNL     1      -0.095   3.252   1.607  0.00  0.00    +0.089 C 
BRANCH  17  18
ATOM     18  C   UNL     1      -1.509   2.720   1.368  0.00  0.00    +0.028 C 
ATOM     19  C   UNL     1      -1.479   1.218   1.338  0.00  0.00    +0.200 C 
ATOM     20  O   UNL     1      -0.808   0.634   2.163  0.00  0.00    -0.278 OA
ATOM     21  N   UNL     1      -2.160   0.498   0.441  0.00  0.00    -0.318 N 
ATOM     22  C   UNL     1      -2.968   1.103  -0.614  0.00  0.00    +0.085 C 
ATOM     23  C   UNL     1      -3.274   2.562  -0.269  0.00  0.00    -0.058 C 
ATOM     24  H   UNL     1      -2.116  -0.470   0.493  0.00  0.00    +0.149 HD
ATOM     25  N   UNL     1      -2.001   3.227   0.073  0.00  0.00    +0.392 N 
ATOM     26  H   UNL     1      -1.307   3.019  -0.654  0.00  0.00    -0.080 HD
BRANCH  25  27
ATOM     27  C   UNL     1      -2.197   4.693   0.145  0.00  0.00    -0.034 C 
BRANCH  27  28
ATOM     28  C   UNL     1      -3.145   5.039   1.265  0.00  0.00    -0.027 A 
ATOM     29  C   UNL     1      -2.863   5.405   2.539  0.00  0.00    +0.009 A 
ATOM     30  C   UNL     1      -3.906   5.679   3.404  0.00  0.00    +0.008 A 
ATOM     31  C   UNL     1      -5.180   5.573   2.952  0.00  0.00    +0.045 A 
ATOM     32  S   UNL     1      -4.929   5.079   1.255  0.00  0.00    -0.103 S 
ENDBRANCH  27  28
ENDBRANCH  25  27
ENDBRANCH  17  18
ENDBRANCH   2  17
TORSDOF 7
