REMARK  Name = ZINC05317121
REMARK  6 active torsions:
REMARK  status: ('A' for Active; 'I' for Inactive)
REMARK    1  A    between atoms: C_1  and  C_2
REMARK    2  A    between atoms: C_2  and  C_3
REMARK    3  A    between atoms: C_2  and  C_4
REMARK    4  A    between atoms: C_4  and  N_5
REMARK    5  A    between atoms: C_9  and  C_11
REMARK    6  A    between atoms: C_11  and  N_12
REMARK                            x       y       z     vdW  Elec       q    Type
REMARK                         _______ _______ _______ _____ _____    ______ ____
ROOT
ATOM      1  C   UNL     1      -3.700  -6.214  -0.394  0.00  0.00    +0.222 C 
ENDROOT
BRANCH   1   2
ATOM      2  N   UNL     1      -5.075  -6.721  -0.384  0.00  0.00    -0.290 N 
ATOM      3  C   UNL     1      -5.662  -7.052   0.797  0.00  0.00    +0.203 A 
ATOM      4  N   UNL     1      -6.874  -7.506   0.889  0.00  0.00    -0.235 NA
ATOM      5  C   UNL     1      -7.651  -7.686  -0.209  0.00  0.00    +0.096 A 
ATOM      6  C   UNL     1      -7.125  -7.369  -1.480  0.00  0.00    +0.068 A 
ATOM      7  C   UNL     1      -5.750  -6.851  -1.549  0.00  0.00    +0.262 A 
ATOM      8  O   UNL     1      -5.239  -6.554  -2.613  0.00  0.00    -0.267 OA
ATOM      9  C   UNL     1      -7.904  -7.543  -2.622  0.00  0.00    +0.035 A 
ATOM     10  C   UNL     1      -9.190  -8.028  -2.500  0.00  0.00    +0.043 A 
ATOM     11  C   UNL     1      -9.711  -8.341  -1.251  0.00  0.00    +0.042 A 
ATOM     12  C   UNL     1      -8.956  -8.175  -0.110  0.00  0.00    +0.068 A 
ATOM     13 CL   UNL     1      -9.624  -8.572   1.443  0.00  0.00    -0.081 Cl
ATOM     14 CL   UNL     1     -10.165  -8.247  -3.919  0.00  0.00    -0.083 Cl
ENDBRANCH   1   2
BRANCH   1  19
ATOM     15  N   UNL     1      -1.416  -1.993  -0.116  0.00  0.00    -0.299 N 
ATOM     16  C   UNL     1      -2.575  -2.682  -0.130  0.00  0.00    +0.306 C 
ATOM     17  O   UNL     1      -3.634  -2.092  -0.036  0.00  0.00    -0.252 OA
ATOM     18  N   UNL     1      -2.559  -4.024  -0.248  0.00  0.00    -0.239 N 
ATOM     19  C   UNL     1      -3.718  -4.713  -0.262  0.00  0.00    +0.240 C 
ATOM     20  O   UNL     1      -4.774  -4.125  -0.168  0.00  0.00    -0.273 OA
ATOM     21  H   UNL     1      -0.572  -2.463  -0.190  0.00  0.00    +0.150 HD
ATOM     22  H   UNL     1      -1.714  -4.495  -0.323  0.00  0.00    +0.159 HD
BRANCH  15  23
ATOM     23  C   UNL     1      -1.433  -0.534   0.013  0.00  0.00    +0.108 C 
BRANCH  23  25
ATOM     24  C   UNL     1      -0.019   1.526   0.010  0.00  0.00    +0.009 C 
ATOM     25  C   UNL     1       0.002  -0.004   0.002  0.00  0.00    -0.000 C 
ATOM     26  C   UNL     1       0.742  -0.511   1.242  0.00  0.00    +0.009 C 
ENDBRANCH  23  25
ENDBRANCH  15  23
ENDBRANCH   1  19
TORSDOF 4
