REMARK  Name = ZINC09973527
REMARK  10 active torsions:
REMARK  status: ('A' for Active; 'I' for Inactive)
REMARK    1  A    between atoms: C_1  and  C_2
REMARK    2  A    between atoms: C_5  and  N_9
REMARK    3  A    between atoms: C_6  and  C_8
REMARK    4  A    between atoms: C_21  and  C_23
REMARK    5  A    between atoms: C_25  and  O_33
REMARK    6  A    between atoms: C_26  and  O_31
REMARK    7  A    between atoms: C_27  and  O_29
REMARK    8  A    between atoms: O_29  and  C_30
REMARK    9  A    between atoms: O_31  and  C_32
REMARK   10  A    between atoms: O_33  and  C_34
REMARK                            x       y       z     vdW  Elec       q    Type
REMARK                         _______ _______ _______ _____ _____    ______ ____
ROOT
ATOM      1  N   UNL     1       4.056 -10.689  -1.420  0.00  0.00    -0.327 N 
ATOM      2  C   UNL     1       3.391 -10.188  -0.209  0.00  0.00    +0.124 C 
ATOM      3  C   UNL     1       2.994  -8.725  -0.417  0.00  0.00    +0.126 C 
ATOM      4  N   UNL     1       4.194  -7.933  -0.721  0.00  0.00    -0.305 N 
ATOM      5  C   UNL     1       4.860  -8.434  -1.932  0.00  0.00    +0.126 C 
ATOM      6  C   UNL     1       5.257  -9.898  -1.724  0.00  0.00    +0.124 C 
ATOM      7  C   UNL     1       3.883  -6.585  -0.846  0.00  0.00    +0.186 A 
ATOM      8  N   UNL     1       2.715  -5.983  -0.731  0.00  0.00    -0.124 NA
ATOM      9  N   UNL     1       2.629  -4.619  -0.895  0.00  0.00    -0.124 NA
ATOM     10  C   UNL     1       3.714  -3.921  -1.167  0.00  0.00    +0.189 A 
ATOM     11  S   UNL     1       4.955  -5.205  -1.213  0.00  0.00    -0.015 S 
ATOM     12  N   UNL     1       3.853  -2.552  -1.370  0.00  0.00    -0.259 N 
ATOM     13  C   UNL     1       2.775  -1.746  -1.296  0.00  0.00    +0.250 C 
ATOM     14  O   UNL     1       1.681  -2.216  -1.052  0.00  0.00    -0.270 OA
ATOM     15  H   UNL     1       4.726  -2.177  -1.564  0.00  0.00    +0.157 HD
ENDROOT
BRANCH   1  20
ATOM     16  C   UNL     1       5.326 -16.192  -0.908  0.00  0.00    +0.044 C 
ATOM     17  C   UNL     1       4.989 -14.730  -1.044  0.00  0.00    -0.050 A 
ATOM     18  C   UNL     1       5.590 -13.803  -0.212  0.00  0.00    +0.005 A 
ATOM     19  C   UNL     1       5.283 -12.462  -0.334  0.00  0.00    +0.023 A 
ATOM     20  C   UNL     1       4.370 -12.045  -1.294  0.00  0.00    +0.033 A 
ATOM     21  C   UNL     1       3.764 -12.979  -2.125  0.00  0.00    -0.029 A 
ATOM     22  C   UNL     1       4.080 -14.318  -2.001  0.00  0.00    +0.008 A 
ATOM     23  C   UNL     1       2.769 -12.531  -3.164  0.00  0.00    +0.045 C 
ENDBRANCH   1  20
BRANCH  13  24
ATOM     24  C   UNL     1       2.923  -0.294  -1.511  0.00  0.00    +0.044 A 
ATOM     25  C   UNL     1       1.806   0.542  -1.434  0.00  0.00    +0.062 A 
ATOM     26  C   UNL     1       1.948   1.903  -1.636  0.00  0.00    +0.166 A 
ATOM     27  C   UNL     1       3.202   2.440  -1.914  0.00  0.00    +0.204 A 
ATOM     28  C   UNL     1       4.316   1.609  -1.991  0.00  0.00    +0.166 A 
ATOM     29  C   UNL     1       4.180   0.248  -1.791  0.00  0.00    +0.062 A 
BRANCH  28  30
ATOM     30  O   UNL     1       5.540   2.136  -2.264  0.00  0.00    -0.491 OA
ATOM     31  C   UNL     1       6.639   1.226  -2.329  0.00  0.00    +0.277 C 
ENDBRANCH  28  30
BRANCH  27  32
ATOM     32  O   UNL     1       3.338   3.777  -2.112  0.00  0.00    -0.488 OA
ATOM     33  C   UNL     1       3.611   4.579  -0.961  0.00  0.00    +0.277 C 
ENDBRANCH  27  32
BRANCH  26  34
ATOM     34  O   UNL     1       0.860   2.716  -1.567  0.00  0.00    -0.491 OA
ATOM     35  C   UNL     1      -0.396   2.098  -1.283  0.00  0.00    +0.277 C 
ENDBRANCH  26  34
ENDBRANCH  13  24
TORSDOF 5
