REMARK  Name = ZINC09260013
REMARK  7 active torsions:
REMARK  status: ('A' for Active; 'I' for Inactive)
REMARK    1  A    between atoms: C_1  and  C_2
REMARK    2  A    between atoms: C_6  and  N_8
REMARK    3  A    between atoms: C_9  and  C_11
REMARK    4  A    between atoms: C_11  and  N_12
REMARK    5  A    between atoms: C_16  and  C_17
REMARK    6  A    between atoms: N_19  and  C_26
REMARK    7  A    between atoms: C_26  and  C_27
REMARK                            x       y       z     vdW  Elec       q    Type
REMARK                         _______ _______ _______ _____ _____    ______ ____
ROOT
ATOM      1  N   UNL     1      -2.903   7.234  -0.144  0.00  0.00    -0.219 N 
ATOM      2  C   UNL     1      -3.506   7.684   0.942  0.00  0.00    +0.261 C 
ATOM      3  O   UNL     1      -3.040   7.479   2.049  0.00  0.00    -0.269 OA
ATOM      4  C   UNL     1      -4.720   8.416   0.781  0.00  0.00    +0.080 C 
ATOM      5  C   UNL     1      -5.524   8.979   1.724  0.00  0.00    +0.030 C 
ATOM      6  S   UNL     1      -4.898   8.394  -0.998  0.00  0.00    -0.026 S 
ATOM      7  C   UNL     1      -3.418   7.466  -1.372  0.00  0.00    +0.286 C 
ATOM      8  O   UNL     1      -2.985   7.127  -2.457  0.00  0.00    -0.262 OA
ENDROOT
BRANCH   5   9
ATOM      9  C   UNL     1      -5.090   9.027   3.121  0.00  0.00    +0.001 A 
ATOM     10  C   UNL     1      -3.815   9.214   3.575  0.00  0.00    +0.095 A 
ATOM     11  N   UNL     1      -3.807   9.198   4.933  0.00  0.00    -0.337 N 
ATOM     12  C   UNL     1      -5.082   8.999   5.420  0.00  0.00    +0.050 A 
ATOM     13  C   UNL     1      -5.944   8.890   4.316  0.00  0.00    +0.007 A 
ATOM     14  C   UNL     1      -7.306   8.677   4.512  0.00  0.00    +0.010 A 
ATOM     15  C   UNL     1      -7.805   8.586   5.793  0.00  0.00    +0.001 A 
ATOM     16  C   UNL     1      -6.956   8.700   6.885  0.00  0.00    +0.002 A 
ATOM     17  C   UNL     1      -5.605   8.905   6.705  0.00  0.00    +0.026 A 
BRANCH  11  18
ATOM     18  C   UNL     1      -2.612   9.368   5.763  0.00  0.00    +0.217 C 
BRANCH  18  19
ATOM     19  C   UNL     1      -2.060   8.015   6.132  0.00  0.00    +0.230 C 
ATOM     20  O   UNL     1      -2.611   7.008   5.740  0.00  0.00    -0.274 OA
ATOM     21  N   UNL     1      -0.955   7.923   6.898  0.00  0.00    -0.328 N 
ATOM     22  H   UNL     1      -0.515   8.729   7.212  0.00  0.00    +0.145 HD
ATOM     23  H   UNL     1      -0.600   7.053   7.135  0.00  0.00    +0.145 HD
ENDBRANCH  18  19
ENDBRANCH  11  18
ENDBRANCH   5   9
BRANCH   1  24
ATOM     24  C   UNL     1      -1.654   6.479  -0.017  0.00  0.00    +0.213 C 
BRANCH  24  26
ATOM     25  N   UNL     1      -0.965   4.118   0.247  0.00  0.00    -0.284 N 
ATOM     26  C   UNL     1      -1.966   5.011   0.116  0.00  0.00    +0.235 C 
ATOM     27  O   UNL     1      -3.119   4.632   0.105  0.00  0.00    -0.274 OA
ATOM     28  H   UNL     1      -0.049   4.425   0.333  0.00  0.00    +0.155 HD
BRANCH  25  34
ATOM     29  C   UNL     1      -3.728   0.351  -1.286  0.00  0.00    +0.044 C 
ATOM     30  C   UNL     1      -2.580   0.894  -0.474  0.00  0.00    -0.049 A 
ATOM     31  C   UNL     1      -1.804   0.037   0.285  0.00  0.00    +0.003 A 
ATOM     32  C   UNL     1      -0.754   0.532   1.036  0.00  0.00    +0.002 A 
ATOM     33  C   UNL     1      -0.471   1.884   1.022  0.00  0.00    +0.023 A 
ATOM     34  C   UNL     1      -1.248   2.747   0.260  0.00  0.00    +0.034 A 
ATOM     35  C   UNL     1      -2.305   2.247  -0.488  0.00  0.00    +0.026 A 
ENDBRANCH  25  34
ENDBRANCH  24  26
ENDBRANCH   1  24
TORSDOF 6
