REMARK  Name = ZINC09464242
REMARK  5 active torsions:
REMARK  status: ('A' for Active; 'I' for Inactive)
REMARK    1  A    between atoms: C_4  and  C_7
REMARK    2  A    between atoms: C_7  and  C_29
REMARK    3  A    between atoms: N_10  and  C_14
REMARK    4  A    between atoms: C_14  and  N_57
REMARK    5  A    between atoms: C_22  and  C_24
REMARK                            x       y       z     vdW  Elec       q    Type
REMARK                         _______ _______ _______ _____ _____    ______ ____
ROOT
ATOM      1  C   UNL     1       6.660  -0.334  -4.571  0.00  0.00    +0.164 C 
ATOM      2  C   UNL     1       6.095  -0.669  -3.205  0.00  0.00    +0.254 C 
ATOM      3  O   UNL     1       6.141  -1.739  -2.636  0.00  0.00    -0.272 OA
ATOM      4  N   UNL     1       5.529   0.468  -2.755  0.00  0.00    -0.241 N 
ATOM      5  C   UNL     1       5.653   1.464  -3.640  0.00  0.00    +0.308 C 
ATOM      6  O   UNL     1       5.220   2.586  -3.460  0.00  0.00    -0.252 OA
ATOM      7  N   UNL     1       6.315   1.087  -4.749  0.00  0.00    -0.278 N 
ATOM      8  H   UNL     1       6.523   1.642  -5.517  0.00  0.00    +0.152 HD
ENDROOT
BRANCH   1  12
ATOM      9  C   UNL     1      10.898  -0.869  -4.616  0.00  0.00    +0.000 A 
ATOM     10  C   UNL     1      10.343   0.298  -5.108  0.00  0.00    +0.000 A 
ATOM     11  C   UNL     1       8.972   0.471  -5.093  0.00  0.00    +0.006 A 
ATOM     12  C   UNL     1       8.155  -0.523  -4.587  0.00  0.00    -0.011 A 
ATOM     13  C   UNL     1       8.710  -1.687  -4.090  0.00  0.00    +0.006 A 
ATOM     14  C   UNL     1      10.081  -1.863  -4.109  0.00  0.00    +0.000 A 
ENDBRANCH   1  12
BRANCH   1  15
ATOM     15  C   UNL     1       6.009  -1.178  -5.636  0.00  0.00    -0.011 A 
ATOM     16  C   UNL     1       5.955  -2.551  -5.492  0.00  0.00    +0.006 A 
ATOM     17  C   UNL     1       5.353  -3.325  -6.467  0.00  0.00    +0.000 A 
ATOM     18  C   UNL     1       4.815  -2.726  -7.591  0.00  0.00    +0.000 A 
ATOM     19  C   UNL     1       4.874  -1.353  -7.737  0.00  0.00    +0.000 A 
ATOM     20  C   UNL     1       5.471  -0.579  -6.760  0.00  0.00    +0.006 A 
ENDBRANCH   1  15
BRANCH   4  21
ATOM     21  C   UNL     1       4.857   0.597  -1.460  0.00  0.00    +0.044 C 
BRANCH  21  30
ATOM     22  C   UNL     1       6.910   1.810  -1.033  0.00  0.00    -0.070 C 
ATOM     23  C   UNL     1       8.091   1.859  -0.049  0.00  0.00    +0.024 C 
ATOM     24  C   UNL     1       7.541   2.171   1.305  0.00  0.00    -0.010 A 
ATOM     25  C   UNL     1       6.234   2.118   1.685  0.00  0.00    -0.046 A 
ATOM     26  C   UNL     1       5.955   2.458   3.006  0.00  0.00    +0.010 A 
ATOM     27  C   UNL     1       6.960   2.815   3.840  0.00  0.00    +0.045 A 
ATOM     28  S   UNL     1       8.388   2.688   2.772  0.00  0.00    -0.101 S 
ATOM     29  C   UNL     1       5.172   1.700   0.672  0.00  0.00    +0.003 C 
ATOM     30  N   UNL     1       5.845   0.972  -0.430  0.00  0.00    +0.398 N 
ATOM     31  H   UNL     1       6.271   0.118  -0.051  0.00  0.00    -0.078 HD
BRANCH  29  32
ATOM     32  C   UNL     1       4.181   0.776   1.330  0.00  0.00    -0.019 A 
ATOM     33  C   UNL     1       2.947   1.055   1.818  0.00  0.00    +0.010 A 
ATOM     34  C   UNL     1       2.205   0.036   2.387  0.00  0.00    +0.008 A 
ATOM     35  C   UNL     1       2.734  -1.211   2.441  0.00  0.00    +0.045 A 
ATOM     36  S   UNL     1       4.327  -0.970   1.671  0.00  0.00    -0.103 S 
ENDBRANCH  29  32
ENDBRANCH  21  30
ENDBRANCH   4  21
TORSDOF 5
