REMARK  Name = ZINC32900222
REMARK  9 active torsions:
REMARK  status: ('A' for Active; 'I' for Inactive)
REMARK    1  A    between atoms: C_1  and  C_2
REMARK    2  A    between atoms: C_4  and  C_17
REMARK    3  A    between atoms: C_6  and  C_12
REMARK    4  A    between atoms: N_9  and  C_11
REMARK    5  A    between atoms: N_19  and  C_20
REMARK    6  A    between atoms: N_19  and  C_33
REMARK    7  A    between atoms: C_20  and  C_21
REMARK    8  A    between atoms: C_33  and  C_34
REMARK    9  A    between atoms: C_33  and  C_35
REMARK                            x       y       z     vdW  Elec       q    Type
REMARK                         _______ _______ _______ _____ _____    ______ ____
ROOT
ATOM      1  C   UNL     1      -4.119  -1.542   1.288  0.00  0.00    +0.248 C 
ATOM      2  O   UNL     1      -5.126  -0.866   1.360  0.00  0.00    -0.270 OA
ATOM      3  N   UNL     1      -3.599  -1.851   0.083  0.00  0.00    -0.288 N 
ENDROOT
BRANCH   1   7
ATOM      4  C   UNL     1      -3.576   1.244   2.601  0.00  0.00    +0.068 C 
ATOM      5  C   UNL     1      -3.012   0.285   3.618  0.00  0.00    +0.070 A 
ATOM      6  C   UNL     1      -3.003  -1.121   3.507  0.00  0.00    +0.054 A 
ATOM      7  C   UNL     1      -3.464  -2.027   2.522  0.00  0.00    +0.051 A 
ATOM      8  C   UNL     1      -3.288  -3.385   2.753  0.00  0.00    +0.045 A 
ATOM      9  C   UNL     1      -2.660  -3.804   3.933  0.00  0.00    +0.109 A 
ATOM     10  N   UNL     1      -2.238  -2.931   4.836  0.00  0.00    -0.224 NA
ATOM     11  C   UNL     1      -2.385  -1.625   4.669  0.00  0.00    +0.160 A 
ATOM     12  N   UNL     1      -2.047  -0.536   5.430  0.00  0.00    -0.249 N 
ATOM     13  N   UNL     1      -2.451   0.617   4.746  0.00  0.00    -0.174 NA
ATOM     14  C   UNL     1      -1.378  -0.572   6.733  0.00  0.00    +0.174 C 
BRANCH   9  15
ATOM     15  C   UNL     1      -2.467  -5.246   4.177  0.00  0.00    +0.153 A 
ATOM     16  C   UNL     1      -1.876  -5.800   5.271  0.00  0.00    +0.051 A 
ATOM     17  C   UNL     1      -1.910  -7.195   5.087  0.00  0.00    +0.042 A 
ATOM     18  C   UNL     1      -2.506  -7.424   3.900  0.00  0.00    +0.196 A 
ATOM     19  O   UNL     1      -2.842  -6.245   3.353  0.00  0.00    -0.461 OA
ENDBRANCH   9  15
ENDBRANCH   1   7
BRANCH   3  20
ATOM     20  C   UNL     1      -4.185  -1.285  -1.134  0.00  0.00    +0.071 C 
ATOM     21  C   UNL     1      -5.617  -1.800  -1.297  0.00  0.00    +0.028 C 
ATOM     22  C   UNL     1      -4.200   0.241  -1.032  0.00  0.00    +0.028 C 
ENDBRANCH   3  20
BRANCH   3  23
ATOM     23  C   UNL     1      -2.446  -2.751  -0.008  0.00  0.00    +0.182 C 
BRANCH  23  24
ATOM     24  C   UNL     1      -1.174  -1.946   0.054  0.00  0.00    +0.128 A 
ATOM     25  N   UNL     1       0.011  -2.607  -0.016  0.00  0.00    -0.309 N 
ATOM     26  H   UNL     1       0.024  -3.702  -0.116  0.00  0.00    +0.170 HD
ATOM     27  C   UNL     1       1.182  -1.930   0.036  0.00  0.00    +0.259 A 
ATOM     28  O   UNL     1       2.250  -2.510  -0.026  0.00  0.00    -0.267 OA
ATOM     29  C   UNL     1       1.113  -0.467   0.170  0.00  0.00    +0.065 A 
ATOM     30  C   UNL     1       2.259   0.322   0.233  0.00  0.00    +0.015 A 
ATOM     31  C   UNL     1       2.136   1.689   0.359  0.00  0.00    +0.001 A 
ATOM     32  C   UNL     1       0.882   2.282   0.423  0.00  0.00    +0.002 A 
ATOM     33  C   UNL     1      -0.263   1.520   0.363  0.00  0.00    +0.028 A 
ATOM     34  C   UNL     1      -0.164   0.133   0.235  0.00  0.00    +0.078 A 
ATOM     35  N   UNL     1      -1.266  -0.656   0.173  0.00  0.00    -0.232 NA
ENDBRANCH  23  24
ENDBRANCH   3  23
TORSDOF 5
