REMARK  Name = ZINC24841943
REMARK  5 active torsions:
REMARK  status: ('A' for Active; 'I' for Inactive)
REMARK    1  A    between atoms: C_4  and  N_7
REMARK    2  A    between atoms: C_9  and  C_12
REMARK    3  A    between atoms: C_12  and  N_13
REMARK    4  A    between atoms: C_14  and  C_16
REMARK    5  A    between atoms: C_16  and  N_17
REMARK                            x       y       z     vdW  Elec       q    Type
REMARK                         _______ _______ _______ _____ _____    ______ ____
ROOT
ATOM      1  N   UNL     1      -0.242   1.246   2.466  0.00  0.00    -0.310 N 
ATOM      2  C   UNL     1      -0.718   1.572   1.248  0.00  0.00    +0.231 C 
ATOM      3  O   UNL     1      -1.714   2.256   1.150  0.00  0.00    -0.274 OA
ATOM      4  H   UNL     1       0.662   0.625   2.555  0.00  0.00    +0.149 HD
ENDROOT
BRANCH   1   5
ATOM      5  C   UNL     1      -0.927   1.718   3.671  0.00  0.00    +0.142 C 
BRANCH   5   8
ATOM      6  N   UNL     1       0.428  -0.021   6.578  0.00  0.00    -0.240 N 
ATOM      7  C   UNL     1      -0.437   0.056   5.541  0.00  0.00    +0.119 A 
ATOM      8  C   UNL     1      -0.198   1.219   4.892  0.00  0.00    +0.007 A 
ATOM      9  C   UNL     1       0.840   1.879   5.558  0.00  0.00    +0.140 A 
ATOM     10  N   UNL     1       1.216   1.137   6.568  0.00  0.00    -0.174 NA
BRANCH   6  14
ATOM     11  C   UNL     1       0.691  -3.144   9.327  0.00  0.00    +0.000 A 
ATOM     12  C   UNL     1       1.536  -2.055   9.436  0.00  0.00    +0.002 A 
ATOM     13  C   UNL     1       1.452  -1.019   8.527  0.00  0.00    +0.028 A 
ATOM     14  C   UNL     1       0.516  -1.071   7.502  0.00  0.00    +0.065 A 
ATOM     15  C   UNL     1      -0.335  -2.163   7.398  0.00  0.00    +0.028 A 
ATOM     16  C   UNL     1      -0.242  -3.199   8.307  0.00  0.00    +0.002 A 
ENDBRANCH   6  14
ENDBRANCH   5   8
ENDBRANCH   1   5
BRANCH   2  17
ATOM     17  C   UNL     1      -0.013   1.086   0.008  0.00  0.00    +0.213 C 
BRANCH  17  18
ATOM     18  N   UNL     1      -0.721   1.571  -1.179  0.00  0.00    -0.215 N 
ATOM     19  C   UNL     1      -0.456   2.743  -1.795  0.00  0.00    +0.247 C 
ATOM     20  O   UNL     1       0.381   3.564  -1.486  0.00  0.00    -0.273 OA
ATOM     21  C   UNL     1      -1.422   2.813  -2.950  0.00  0.00    +0.113 C 
ATOM     22  C   UNL     1      -0.677   2.903  -4.288  0.00  0.00    +0.035 C 
ATOM     23  C   UNL     1      -1.577   3.818  -5.158  0.00  0.00    +0.003 C 
ATOM     24  C   UNL     1      -2.099   4.860  -4.136  0.00  0.00    +0.003 C 
ATOM     25  C   UNL     1      -2.327   4.043  -2.845  0.00  0.00    +0.035 C 
ATOM     26  N   UNL     1      -2.195   1.572  -2.857  0.00  0.00    -0.285 N 
ATOM     27  C   UNL     1      -1.709   0.905  -1.791  0.00  0.00    +0.310 C 
ATOM     28  O   UNL     1      -2.123  -0.178  -1.425  0.00  0.00    -0.252 OA
ATOM     29  H   UNL     1      -2.988   1.362  -3.589  0.00  0.00    +0.151 HD
ENDBRANCH  17  18
ENDBRANCH   2  17
TORSDOF 5
