REMARK  Name = ZINC16661818
REMARK  8 active torsions:
REMARK  status: ('A' for Active; 'I' for Inactive)
REMARK    1  A    between atoms: C_1  and  C_2
REMARK    2  A    between atoms: C_5  and  N_8
REMARK    3  A    between atoms: C_9  and  C_11
REMARK    4  A    between atoms: C_11  and  C_12
REMARK    5  A    between atoms: N_16  and  C_30
REMARK    6  A    between atoms: N_18  and  S_19
REMARK    7  A    between atoms: S_19  and  C_22
REMARK    8  A    between atoms: C_25  and  C_28
REMARK                            x       y       z     vdW  Elec       q    Type
REMARK                         _______ _______ _______ _____ _____    ______ ____
ROOT
ATOM      1  C   UNL     1       0.783  -6.613   3.536  0.00  0.00    +0.149 C 
ATOM      2  C   UNL     1       0.575  -8.088   3.236  0.00  0.00    +0.235 C 
ATOM      3  O   UNL     1      -0.530  -8.566   3.087  0.00  0.00    -0.274 OA
ATOM      4  N   UNL     1       1.673  -8.818   3.146  0.00  0.00    -0.245 N 
ATOM      5  C   UNL     1       2.935  -8.281   3.314  0.00  0.00    +0.185 C 
ATOM      6  N   UNL     1       4.084  -8.891   3.251  0.00  0.00    -0.106 NA
ATOM      7  S   UNL     1       2.619  -6.551   3.640  0.00  0.00    -0.075 S 
ENDROOT
BRANCH   4   8
ATOM      8  C   UNL     1       1.548 -10.249   2.859  0.00  0.00    +0.083 C 
ATOM      9  C   UNL     1       1.442 -10.459   1.347  0.00  0.00    +0.023 C 
ATOM     10  C   UNL     1       1.311 -11.953   1.047  0.00  0.00    +0.002 C 
ATOM     11  C   UNL     1       0.056 -12.502   1.728  0.00  0.00    +0.000 C 
ATOM     12  C   UNL     1       0.163 -12.293   3.239  0.00  0.00    +0.002 C 
ATOM     13  C   UNL     1       0.293 -10.799   3.539  0.00  0.00    +0.023 C 
ENDBRANCH   4   8
BRANCH   6  14
ATOM     14  S   UNL     1       4.162 -10.533   3.450  0.00  0.00    +0.101 S 
ATOM     15  O   UNL     1       3.513 -10.824   4.680  0.00  0.00    -0.146 OA
ATOM     16  O   UNL     1       3.754 -11.111   2.218  0.00  0.00    -0.146 OA
BRANCH  14  17
ATOM     17  C   UNL     1       5.860 -10.952   3.665  0.00  0.00    +0.113 A 
ATOM     18  C   UNL     1       6.643 -11.249   2.565  0.00  0.00    +0.029 A 
ATOM     19  C   UNL     1       7.976 -11.577   2.733  0.00  0.00    +0.005 A 
ATOM     20  C   UNL     1       8.525 -11.608   4.002  0.00  0.00    -0.050 A 
ATOM     21  C   UNL     1       7.742 -11.311   5.101  0.00  0.00    +0.005 A 
ATOM     22  C   UNL     1       6.411 -10.978   4.933  0.00  0.00    +0.029 A 
ATOM     23  C   UNL     1       9.977 -11.967   4.185  0.00  0.00    +0.044 C 
ENDBRANCH  14  17
ENDBRANCH   6  14
BRANCH   1  24
ATOM     24  C   UNL     1       0.262  -5.736   2.396  0.00  0.00    +0.120 C 
BRANCH  24  26
ATOM     25  N   UNL     1       0.074  -3.323   1.885  0.00  0.00    -0.285 N 
ATOM     26  C   UNL     1       0.461  -4.284   2.747  0.00  0.00    +0.219 C 
ATOM     27  O   UNL     1       0.969  -3.981   3.806  0.00  0.00    -0.275 OA
ATOM     28  H   UNL     1      -0.392  -3.562   1.069  0.00  0.00    +0.155 HD
BRANCH  25  33
ATOM     29  C   UNL     1       1.172   2.124   3.030  0.00  0.00    +0.044 C 
ATOM     30  C   UNL     1       0.880   0.677   2.726  0.00  0.00    -0.050 A 
ATOM     31  C   UNL     1       1.764  -0.305   3.133  0.00  0.00    +0.005 A 
ATOM     32  C   UNL     1       1.500  -1.632   2.856  0.00  0.00    +0.023 A 
ATOM     33  C   UNL     1       0.344  -1.980   2.168  0.00  0.00    +0.033 A 
ATOM     34  C   UNL     1      -0.541  -0.991   1.761  0.00  0.00    +0.023 A 
ATOM     35  C   UNL     1      -0.274   0.334   2.045  0.00  0.00    +0.005 A 
ENDBRANCH  25  33
ENDBRANCH  24  26
ENDBRANCH   1  24
TORSDOF 6
