REMARK  Name = ZINC58100016
REMARK  10 active torsions:
REMARK  status: ('A' for Active; 'I' for Inactive)
REMARK    1  A    between atoms: C_1  and  C_2
REMARK    2  A    between atoms: C_2  and  N_3
REMARK    3  A    between atoms: N_3  and  C_4
REMARK    4  A    between atoms: C_4  and  C_5
REMARK    5  A    between atoms: C_6  and  C_8
REMARK    6  A    between atoms: C_8  and  C_9
REMARK    7  A    between atoms: C_12  and  N_15
REMARK    8  A    between atoms: C_16  and  C_18
REMARK    9  A    between atoms: C_22  and  N_25
REMARK   10  A    between atoms: C_23  and  N_24
REMARK                            x       y       z     vdW  Elec       q    Type
REMARK                         _______ _______ _______ _____ _____    ______ ____
ROOT
ATOM      1  N   UNL     1      -2.846  -2.325  -8.051  0.00  0.00    -0.281 N 
ATOM      2  C   UNL     1      -2.822  -1.429  -9.058  0.00  0.00    +0.250 C 
ATOM      3  O   UNL     1      -1.864  -0.692  -9.193  0.00  0.00    -0.270 OA
ATOM      4  H   UNL     1      -3.574  -2.963  -7.987  0.00  0.00    +0.155 HD
ENDROOT
BRANCH   2   5
ATOM      5  C   UNL     1      -3.956  -1.343  -9.995  0.00  0.00    +0.063 A 
ATOM      6  C   UNL     1      -5.096  -2.126  -9.793  0.00  0.00    +0.053 A 
ATOM      7  C   UNL     1      -6.154  -2.040 -10.674  0.00  0.00    +0.126 A 
ATOM      8  C   UNL     1      -6.092  -1.180 -11.761  0.00  0.00    +0.073 A 
ATOM      9  C   UNL     1      -4.973  -0.402 -11.973  0.00  0.00    +0.150 A 
ATOM     10  C   UNL     1      -3.900  -0.470 -11.092  0.00  0.00    +0.068 A 
ATOM     11  F   UNL     1      -7.256  -2.798 -10.478  0.00  0.00    -0.205 F 
BRANCH  10  12
ATOM     12  N   UNL     1      -2.775   0.318 -11.300  0.00  0.00    -0.356 N 
ATOM     13  H   UNL     1      -2.487   0.524 -12.204  0.00  0.00    +0.142 HD
ATOM     14  H   UNL     1      -2.276   0.662 -10.543  0.00  0.00    +0.142 HD
ENDBRANCH  10  12
BRANCH   9  15
ATOM     15  N   UNL     1      -4.917   0.512 -13.136  0.00  0.00    +0.058 N 
ATOM     16  O   UNL     1      -5.802   0.497 -13.960  0.00  0.00    -0.126 OA
ATOM     17  O   UNL     1      -3.985   1.272 -13.263  0.00  0.00    -0.126 OA
ENDBRANCH   9  15
ENDBRANCH   2   5
BRANCH   1  21
ATOM     18  C   UNL     1       0.204  -2.354  -5.215  0.00  0.00    -0.039 A 
ATOM     19  C   UNL     1      -0.405  -3.539  -5.585  0.00  0.00    +0.006 A 
ATOM     20  C   UNL     1      -1.417  -3.533  -6.525  0.00  0.00    +0.023 A 
ATOM     21  C   UNL     1      -1.823  -2.335  -7.098  0.00  0.00    +0.034 A 
ATOM     22  C   UNL     1      -1.209  -1.146  -6.724  0.00  0.00    +0.023 A 
ATOM     23  C   UNL     1      -0.202  -1.158  -5.780  0.00  0.00    +0.006 A 
BRANCH  18  24
ATOM     24  C   UNL     1       1.308  -2.364  -4.189  0.00  0.00    +0.131 C 
BRANCH  24  26
ATOM     25  N   UNL     1       1.521  -2.185  -1.731  0.00  0.00    -0.302 N 
ATOM     26  C   UNL     1       0.716  -2.204  -2.812  0.00  0.00    +0.220 C 
ATOM     27  O   UNL     1      -0.484  -2.093  -2.678  0.00  0.00    -0.275 OA
BRANCH  25  29
ATOM     28  C   UNL     1       0.865  -0.543  -0.042  0.00  0.00    +0.024 C 
ATOM     29  C   UNL     1       0.946  -2.030  -0.393  0.00  0.00    +0.104 C 
ENDBRANCH  25  29
BRANCH  25  30
ATOM     30  C   UNL     1       2.970  -2.320  -1.894  0.00  0.00    +0.104 C 
ATOM     31  C   UNL     1       3.355  -3.800  -1.836  0.00  0.00    +0.024 C 
ENDBRANCH  25  30
ENDBRANCH  24  26
ENDBRANCH  18  24
ENDBRANCH   1  21
TORSDOF 8
