REMARK  Name = ZINC39866301
REMARK  7 active torsions:
REMARK  status: ('A' for Active; 'I' for Inactive)
REMARK    1  A    between atoms: C_1  and  C_2
REMARK    2  A    between atoms: C_5  and  N_7
REMARK    3  A    between atoms: N_9  and  C_23
REMARK    4  A    between atoms: C_13  and  C_14
REMARK    5  A    between atoms: C_17  and  O_21
REMARK    6  A    between atoms: C_18  and  O_20
REMARK    7  A    between atoms: C_23  and  C_24
REMARK                            x       y       z     vdW  Elec       q    Type
REMARK                         _______ _______ _______ _____ _____    ______ ____
ROOT
ATOM      1  N   UNL     1      -0.822  -4.037   1.414  0.00  0.00    -0.198 NA
ATOM      2  C   UNL     1      -0.821  -4.860   0.387  0.00  0.00    +0.171 C 
ATOM      3  N   UNL     1      -1.001  -4.565  -0.946  0.00  0.00    -0.242 N 
ATOM      4  C   UNL     1      -0.971  -5.522  -1.859  0.00  0.00    +0.259 C 
ATOM      5  O   UNL     1      -1.127  -5.279  -3.041  0.00  0.00    -0.269 OA
ATOM      6  C   UNL     1      -0.737  -6.897  -1.378  0.00  0.00    +0.078 C 
ATOM      7  C   UNL     1      -0.658  -8.054  -2.084  0.00  0.00    +0.028 C 
ATOM      8  S   UNL     1      -0.579  -6.629   0.381  0.00  0.00    -0.049 S 
ENDROOT
BRANCH   1  13
ATOM      9  C   UNL     1      -2.872   1.037   0.849  0.00  0.00    +0.075 C 
ATOM     10  C   UNL     1      -2.127  -0.268   0.961  0.00  0.00    +0.101 A 
ATOM     11  N   UNL     1      -0.843  -0.526   0.806  0.00  0.00    -0.145 NA
ATOM     12  N   UNL     1      -0.369  -1.687   0.934  0.00  0.00    -0.121 NA
ATOM     13  C   UNL     1      -1.145  -2.728   1.237  0.00  0.00    +0.217 A 
ATOM     14  S   UNL     1      -2.732  -1.908   1.348  0.00  0.00    -0.031 S 
ENDBRANCH   1  13
BRANCH   7  15
ATOM     15  C   UNL     1      -0.595  -9.341  -1.379  0.00  0.00    -0.020 A 
ATOM     16  C   UNL     1      -0.970  -9.423  -0.033  0.00  0.00    +0.012 A 
ATOM     17  C   UNL     1      -0.910 -10.632   0.626  0.00  0.00    +0.050 A 
ATOM     18  C   UNL     1      -0.479 -11.770  -0.042  0.00  0.00    +0.158 A 
ATOM     19  C   UNL     1      -0.104 -11.697  -1.383  0.00  0.00    +0.159 A 
ATOM     20  C   UNL     1      -0.166 -10.491  -2.053  0.00  0.00    +0.057 A 
BRANCH  19  21
ATOM     21  O   UNL     1       0.318 -12.815  -2.033  0.00  0.00    -0.503 OA
ATOM     22  H   UNL     1      -0.392 -13.311  -2.463  0.00  0.00    +0.292 HD
ENDBRANCH  19  21
BRANCH  18  23
ATOM     23  O   UNL     1      -0.422 -12.959   0.613  0.00  0.00    -0.503 OA
ATOM     24  H   UNL     1      -1.237 -13.476   0.561  0.00  0.00    +0.292 HD
ENDBRANCH  18  23
ENDBRANCH   7  15
BRANCH   3  25
ATOM     25  C   UNL     1      -1.230  -3.178  -1.358  0.00  0.00    +0.142 C 
BRANCH  25  26
ATOM     26  C   UNL     1       0.095  -2.481  -1.532  0.00  0.00    -0.015 C 
ATOM     27  C   UNL     1       0.381  -1.892  -2.667  0.00  0.00    +0.005 C 
ENDBRANCH  25  26
ENDBRANCH   3  25
TORSDOF 6
