REMARK  Name = ZINC67004006
REMARK  12 active torsions:
REMARK  status: ('A' for Active; 'I' for Inactive)
REMARK    1  A    between atoms: C_1  and  C_2
REMARK    2  A    between atoms: C_3  and  C_9
REMARK    3  A    between atoms: C_4  and  C_8
REMARK    4  A    between atoms: N_5  and  C_7
REMARK    5  A    between atoms: C_9  and  C_11
REMARK    6  A    between atoms: C_9  and  N_12
REMARK    7  A    between atoms: N_15  and  C_16
REMARK    8  A    between atoms: C_16  and  C_17
REMARK    9  A    between atoms: C_17  and  C_19
REMARK   10  A    between atoms: C_17  and  N_25
REMARK   11  A    between atoms: N_25  and  C_26
REMARK   12  A    between atoms: N_25  and  C_27
REMARK                            x       y       z     vdW  Elec       q    Type
REMARK                         _______ _______ _______ _____ _____    ______ ____
ROOT
ATOM      1  N   UNL     1      -1.254   0.372  -3.069  0.00  0.00    -0.293 N 
ATOM      2  C   UNL     1      -1.647   0.883  -4.252  0.00  0.00    +0.300 C 
ATOM      3  O   UNL     1      -1.278   0.367  -5.290  0.00  0.00    -0.253 OA
ATOM      4  N   UNL     1      -2.450   1.964  -4.286  0.00  0.00    -0.301 N 
ATOM      5  H   UNL     1      -1.548   0.784  -2.241  0.00  0.00    +0.151 HD
ATOM      6  H   UNL     1      -2.745   2.376  -3.459  0.00  0.00    +0.150 HD
ENDROOT
BRANCH   1   7
ATOM      7  C   UNL     1      -0.381  -0.803  -3.032  0.00  0.00    +0.105 C 
ATOM      8  C   UNL     1       1.081  -0.357  -3.113  0.00  0.00    +0.033 C 
BRANCH   7  11
ATOM      9  C   UNL     1      -0.770  -3.936  -2.750  0.00  0.00    +0.068 C 
ATOM     10  C   UNL     1      -0.777  -2.938  -1.620  0.00  0.00    +0.065 A 
ATOM     11  C   UNL     1      -0.605  -1.556  -1.746  0.00  0.00    +0.016 A 
ATOM     12  C   UNL     1      -0.676  -1.014  -0.508  0.00  0.00    +0.041 A 
ATOM     13  N   UNL     1      -0.885  -2.017   0.370  0.00  0.00    -0.271 N 
ATOM     14  N   UNL     1      -0.950  -3.216  -0.353  0.00  0.00    -0.176 NA
ATOM     15  C   UNL     1      -1.025  -1.878   1.821  0.00  0.00    +0.172 C 
ATOM     16  C   UNL     1      -0.545   0.449  -0.170  0.00  0.00    +0.065 C 
ENDBRANCH   7  11
ENDBRANCH   1   7
BRANCH   4  17
ATOM     17  C   UNL     1      -2.878   2.519  -5.573  0.00  0.00    +0.091 C 
BRANCH  17  18
ATOM     18  C   UNL     1      -3.606   3.845  -5.340  0.00  0.00    -0.049 C 
BRANCH  18  19
ATOM     19  C   UNL     1      -4.238   4.316  -6.651  0.00  0.00    -0.023 C 
ATOM     20  C   UNL     1      -4.865   5.697  -6.447  0.00  0.00    +0.002 C 
ATOM     21  C   UNL     1      -5.498   6.168  -7.758  0.00  0.00    +0.000 C 
ATOM     22  C   UNL     1      -6.580   5.176  -8.188  0.00  0.00    +0.000 C 
ATOM     23  C   UNL     1      -5.953   3.795  -8.392  0.00  0.00    +0.000 C 
ATOM     24  C   UNL     1      -5.320   3.323  -7.081  0.00  0.00    +0.002 C 
ENDBRANCH  18  19
BRANCH  18  25
ATOM     25  N   UNL     1      -2.647   4.853  -4.869  0.00  0.00    +0.379 N 
ATOM     26  C   UNL     1      -2.084   4.429  -3.580  0.00  0.00    -0.096 C 
ATOM     27  C   UNL     1      -1.565   4.997  -5.852  0.00  0.00    -0.096 C 
ATOM     28  H   UNL     1      -3.118   5.738  -4.755  0.00  0.00    -0.082 HD
ENDBRANCH  18  25
ENDBRANCH  17  18
ENDBRANCH   4  17
TORSDOF 6
