REMARK  Name = ZINC66957054
REMARK  8 active torsions:
REMARK  status: ('A' for Active; 'I' for Inactive)
REMARK    1  A    between atoms: C_1  and  C_2
REMARK    2  A    between atoms: C_2  and  C_4
REMARK    3  A    between atoms: C_2  and  N_24
REMARK    4  A    between atoms: C_4  and  N_5
REMARK    5  A    between atoms: N_8  and  C_9
REMARK    6  A    between atoms: C_12  and  C_15
REMARK    7  A    between atoms: N_24  and  C_25
REMARK    8  A    between atoms: N_24  and  C_26
REMARK                            x       y       z     vdW  Elec       q    Type
REMARK                         _______ _______ _______ _____ _____    ______ ____
ROOT
ATOM      1  N   UNL     1      -1.772  -1.795   0.026  0.00  0.00    -0.301 N 
ATOM      2  C   UNL     1      -3.005  -2.292  -0.195  0.00  0.00    +0.304 C 
ATOM      3  O   UNL     1      -3.961  -1.833   0.399  0.00  0.00    -0.253 OA
ATOM      4  N   UNL     1      -3.178  -3.298  -1.075  0.00  0.00    -0.269 N 
ATOM      5  H   UNL     1      -1.000  -2.209  -0.390  0.00  0.00    +0.150 HD
ATOM      6  H   UNL     1      -2.409  -3.699  -1.511  0.00  0.00    +0.156 HD
ENDROOT
BRANCH   4   7
ATOM      7  C   UNL     1      -4.464  -3.764  -1.361  0.00  0.00    +0.035 A 
ATOM      8  C   UNL     1      -5.536  -2.878  -1.373  0.00  0.00    +0.024 A 
ATOM      9  C   UNL     1      -6.805  -3.334  -1.654  0.00  0.00    +0.013 A 
ATOM     10  C   UNL     1      -7.015  -4.687  -1.926  0.00  0.00    +0.019 A 
ATOM     11  C   UNL     1      -5.937  -5.574  -1.913  0.00  0.00    +0.013 A 
ATOM     12  C   UNL     1      -4.669  -5.111  -1.637  0.00  0.00    +0.024 A 
BRANCH  10  13
ATOM     13  C   UNL     1      -8.376  -5.180  -2.227  0.00  0.00    +0.164 A 
ATOM     14  N   UNL     1      -8.784  -6.433  -2.196  0.00  0.00    -0.129 NA
ATOM     15  N   UNL     1     -10.031  -6.494  -2.513  0.00  0.00    -0.134 NA
ATOM     16  C   UNL     1     -10.484  -5.302  -2.760  0.00  0.00    +0.134 A 
ATOM     17  N   UNL     1      -9.452  -4.427  -2.583  0.00  0.00    -0.311 N 
ATOM     18  C   UNL     1      -9.544  -2.979  -2.762  0.00  0.00    +0.125 C 
ATOM     19  C   UNL     1     -10.812  -2.663  -3.564  0.00  0.00    +0.022 C 
ATOM     20  C   UNL     1     -12.011  -3.376  -2.933  0.00  0.00    +0.009 C 
ATOM     21  C   UNL     1     -11.877  -4.889  -3.164  0.00  0.00    +0.076 C 
ENDBRANCH  10  13
ENDBRANCH   4   7
BRANCH   1  22
ATOM     22  C   UNL     1      -1.598  -0.629   0.896  0.00  0.00    +0.090 C 
BRANCH  22  24
ATOM     23  C   UNL     1       0.039   1.061   1.738  0.00  0.00    -0.012 C 
ATOM     24  C   UNL     1      -0.132  -0.189   0.872  0.00  0.00    -0.054 C 
BRANCH  24  25
ATOM     25  N   UNL     1       0.266   0.114  -0.509  0.00  0.00    +0.382 N 
ATOM     26  C   UNL     1      -0.560   1.213  -1.026  0.00  0.00    -0.095 C 
ATOM     27  H   UNL     1       0.134  -0.705  -1.084  0.00  0.00    -0.081 HD
BRANCH  25  28
ATOM     28  C   UNL     1       1.680   0.509  -0.535  0.00  0.00    -0.069 C 
ATOM     29  C   UNL     1       2.570  -0.120  -1.609  0.00  0.00    -0.017 C 
ATOM     30  C   UNL     1       2.716  -0.547  -0.147  0.00  0.00    -0.017 C 
ENDBRANCH  25  28
ENDBRANCH  24  25
ENDBRANCH  22  24
ENDBRANCH   1  22
TORSDOF 6
