REMARK  Name = ZINC16674559
REMARK  9 active torsions:
REMARK  status: ('A' for Active; 'I' for Inactive)
REMARK    1  A    between atoms: C_2  and  C_3
REMARK    2  A    between atoms: C_3  and  N_4
REMARK    3  A    between atoms: C_8  and  C_31
REMARK    4  A    between atoms: C_13  and  S_14
REMARK    5  A    between atoms: S_14  and  C_15
REMARK    6  A    between atoms: C_15  and  C_16
REMARK    7  A    between atoms: C_16  and  C_18
REMARK    8  A    between atoms: C_19  and  N_30
REMARK    9  A    between atoms: N_20  and  C_27
REMARK                            x       y       z     vdW  Elec       q    Type
REMARK                         _______ _______ _______ _____ _____    ______ ____
ROOT
ATOM      1  C   UNL     1       2.893   4.427  -1.187  0.00  0.00    +0.157 C 
ENDROOT
BRANCH   1   2
ATOM      2  C   UNL     1       3.050   5.831  -0.663  0.00  0.00    +0.182 C 
ATOM      3  O   UNL     1       2.074   6.540  -0.524  0.00  0.00    -0.291 OA
BRANCH   2   4
ATOM      4  C   UNL     1       4.332   6.322  -0.335  0.00  0.00    +0.120 A 
ATOM      5  C   UNL     1       4.524   7.669   0.021  0.00  0.00    +0.116 A 
ATOM      6  N   UNL     1       5.782   8.096   0.336  0.00  0.00    -0.278 N 
ATOM      7  C   UNL     1       6.832   7.261   0.301  0.00  0.00    +0.331 A 
ATOM      8  O   UNL     1       7.932   7.691   0.586  0.00  0.00    -0.246 OA
ATOM      9  N   UNL     1       6.711   5.966  -0.036  0.00  0.00    -0.274 N 
ATOM     10  H   UNL     1       7.522   5.381  -0.048  0.00  0.00    +0.173 HD
ATOM     11  C   UNL     1       5.509   5.445  -0.359  0.00  0.00    +0.266 A 
ATOM     12  O   UNL     1       5.403   4.271  -0.664  0.00  0.00    -0.267 OA
BRANCH   6  13
ATOM     13  C   UNL     1       5.991   9.496   0.713  0.00  0.00    +0.094 C 
ATOM     14  C   UNL     1       6.833   9.773   1.961  0.00  0.00    +0.027 C 
ATOM     15  C   UNL     1       5.318   9.990   1.995  0.00  0.00    +0.027 C 
ENDBRANCH   6  13
BRANCH   5  16
ATOM     16  N   UNL     1       3.472   8.531   0.056  0.00  0.00    -0.344 N 
ATOM     17  H   UNL     1       2.576   8.197   0.223  0.00  0.00    +0.144 HD
ATOM     18  H   UNL     1       3.617   9.479  -0.087  0.00  0.00    +0.144 HD
ENDBRANCH   5  16
ENDBRANCH   2   4
ENDBRANCH   1   2
BRANCH   1  19
ATOM     19  S   UNL     1       1.144   4.097  -1.513  0.00  0.00    -0.080 S 
BRANCH  19  29
ATOM     20  N   UNL     1       0.111   1.781  -2.468  0.00  0.00    -0.283 N 
ATOM     21  C   UNL     1       0.152   0.514  -2.920  0.00  0.00    +0.263 A 
ATOM     22  O   UNL     1      -0.873  -0.058  -3.246  0.00  0.00    -0.267 OA
ATOM     23  C   UNL     1       1.415  -0.152  -3.010  0.00  0.00    +0.076 A 
ATOM     24  C   UNL     1       1.712  -1.501  -3.460  0.00  0.00    -0.023 A 
ATOM     25  C   UNL     1       2.984  -1.926  -3.462  0.00  0.00    +0.052 A 
ATOM     26  S   UNL     1       3.891  -0.519  -2.849  0.00  0.00    -0.077 S 
ATOM     27  C   UNL     1       2.535   0.599  -2.607  0.00  0.00    +0.116 A 
ATOM     28  N   UNL     1       2.425   1.848  -2.171  0.00  0.00    -0.216 NA
ATOM     29  C   UNL     1       1.249   2.438  -2.097  0.00  0.00    +0.173 A 
BRANCH  24  30
ATOM     30  C   UNL     1       0.604  -2.413  -3.920  0.00  0.00    +0.020 C 
ATOM     31  C   UNL     1       0.959  -3.877  -4.187  0.00  0.00    +0.009 C 
ATOM     32  C   UNL     1       0.668  -2.935  -5.357  0.00  0.00    +0.009 C 
ENDBRANCH  24  30
BRANCH  20  33
ATOM     33  C   UNL     1      -1.178   2.471  -2.379  0.00  0.00    +0.154 C 
BRANCH  33  35
ATOM     34  C   UNL     1      -2.135   3.244  -0.269  0.00  0.00    +0.005 C 
ATOM     35  C   UNL     1      -1.784   2.229  -1.020  0.00  0.00    -0.013 C 
ENDBRANCH  33  35
ENDBRANCH  20  33
ENDBRANCH  19  29
ENDBRANCH   1  19
TORSDOF 9
