REMARK  Name = ZINC00209428
REMARK  4 active torsions:
REMARK  status: ('A' for Active; 'I' for Inactive)
REMARK    1  A    between atoms: C_1  and  C_2
REMARK    2  A    between atoms: C_5  and  C_7
REMARK    3  A    between atoms: C_11  and  C_22
REMARK    4  A    between atoms: C_13  and  C_15
REMARK                            x       y       z     vdW  Elec       q    Type
REMARK                         _______ _______ _______ _____ _____    ______ ____
ROOT
ATOM      1  C   UNL     1      -0.806   6.503   1.289  0.00  0.00    +0.088 C 
ATOM      2  C   UNL     1      -0.656   8.024   1.361  0.00  0.00    +0.040 C 
ATOM      3  C   UNL     1      -1.019   8.643   0.043  0.00  0.00    -0.027 C 
ATOM      4  C   UNL     1      -1.091   7.986  -1.071  0.00  0.00    -0.076 C 
ATOM      5  C   UNL     1      -0.828   6.514  -1.200  0.00  0.00    +0.039 C 
ATOM      6  C   UNL     1      -0.079   6.003   0.034  0.00  0.00    +0.035 C 
ATOM      7  C   UNL     1      -1.458   8.749  -2.318  0.00  0.00    +0.039 C 
ENDROOT
BRANCH   6   8
ATOM      8  C   UNL     1      -0.059   4.497   0.026  0.00  0.00    -0.043 A 
ATOM      9  C   UNL     1       1.148   3.822   0.012  0.00  0.00    +0.005 A 
ATOM     10  C   UNL     1       1.167   2.440   0.004  0.00  0.00    +0.020 A 
ATOM     11  C   UNL     1      -0.021   1.732   0.012  0.00  0.00    +0.041 A 
ATOM     12  C   UNL     1      -1.229   2.407   0.021  0.00  0.00    +0.020 A 
ATOM     13  C   UNL     1      -1.247   3.789   0.034  0.00  0.00    +0.005 A 
ATOM     14 CL   UNL     1       0.002  -0.004   0.002  0.00  0.00    -0.084 Cl
ENDBRANCH   6   8
BRANCH   1  19
ATOM     15  C   UNL     1      -0.133   3.891   5.540  0.00  0.00    +0.111 C 
ATOM     16  C   UNL     1       0.095   4.759   4.330  0.00  0.00    +0.214 A 
ATOM     17  N   UNL     1       1.219   5.320   3.985  0.00  0.00    -0.113 NA
ATOM     18  N   UNL     1       1.047   5.988   2.899  0.00  0.00    -0.112 NA
ATOM     19  C   UNL     1      -0.192   5.875   2.513  0.00  0.00    +0.221 A 
ATOM     20  O   UNL     1      -0.824   5.101   3.411  0.00  0.00    -0.425 OA
ENDBRANCH   1  19
TORSDOF 2
