REMARK  Name = ZINC12028659
REMARK  8 active torsions:
REMARK  status: ('A' for Active; 'I' for Inactive)
REMARK    1  A    between atoms: C_1  and  N_55
REMARK    2  A    between atoms: C_7  and  C_9
REMARK    3  A    between atoms: C_9  and  C_10
REMARK    4  A    between atoms: N_12  and  C_13
REMARK    5  A    between atoms: C_13  and  C_14
REMARK    6  A    between atoms: C_14  and  C_19
REMARK    7  A    between atoms: C_22  and  O_25
REMARK    8  A    between atoms: O_25  and  C_26
REMARK                            x       y       z     vdW  Elec       q    Type
REMARK                         _______ _______ _______ _____ _____    ______ ____
ROOT
ATOM      1  C   UNL     1       3.622   3.564  -0.459  0.00  0.00    +0.212 C 
ATOM      2  O   UNL     1       2.637   4.251  -0.633  0.00  0.00    -0.276 OA
ATOM      3  N   UNL     1       4.834   4.141  -0.344  0.00  0.00    -0.315 N 
ATOM      4  H   UNL     1       5.621   3.592  -0.205  0.00  0.00    +0.149 HD
ENDROOT
BRANCH   1   5
ATOM      5  C   UNL     1       3.489   2.065  -0.372  0.00  0.00    +0.089 C 
BRANCH   5  12
ATOM      6  C   UNL     1       2.361   1.514  -3.027  0.00  0.00    -0.095 C 
ATOM      7  C   UNL     1       0.168   2.006  -2.120  0.00  0.00    -0.059 C 
ATOM      8  C   UNL     1      -0.557   2.956  -1.165  0.00  0.00    +0.085 C 
ATOM      9  N   UNL     1      -0.024   2.811   0.186  0.00  0.00    -0.318 N 
ATOM     10  C   UNL     1       1.159   2.243   0.444  0.00  0.00    +0.200 C 
ATOM     11  O   UNL     1       1.541   2.191   1.594  0.00  0.00    -0.278 OA
ATOM     12  C   UNL     1       2.035   1.666  -0.632  0.00  0.00    +0.028 C 
ATOM     13  H   UNL     1      -0.551   3.141   0.931  0.00  0.00    +0.149 HD
ATOM     14  N   UNL     1       1.621   2.200  -1.943  0.00  0.00    +0.387 N 
ATOM     15  H   UNL     1       1.831   3.204  -1.978  0.00  0.00    -0.081 HD
ENDBRANCH   5  12
ENDBRANCH   1   5
BRANCH   3  16
ATOM     16  C   UNL     1       4.963   5.598  -0.429  0.00  0.00    +0.115 C 
BRANCH  16  17
ATOM     17  C   UNL     1       6.444   5.981  -0.395  0.00  0.00    +0.011 C 
ATOM     18  C   UNL     1       7.100   5.437   0.886  0.00  0.00    +0.013 C 
ATOM     19  C   UNL     1       7.623   6.660   1.668  0.00  0.00    +0.001 C 
ATOM     20  C   UNL     1       6.752   7.836   1.161  0.00  0.00    +0.001 C 
ATOM     21  C   UNL     1       6.591   7.516  -0.346  0.00  0.00    +0.013 C 
BRANCH  17  22
ATOM     22  C   UNL     1       7.147   5.433  -1.609  0.00  0.00    -0.039 A 
ATOM     23  C   UNL     1       8.517   5.571  -1.735  0.00  0.00    +0.008 A 
ATOM     24  C   UNL     1       9.164   5.064  -2.845  0.00  0.00    +0.046 A 
ATOM     25  C   UNL     1       8.438   4.427  -3.840  0.00  0.00    +0.120 A 
ATOM     26  C   UNL     1       7.062   4.295  -3.714  0.00  0.00    +0.046 A 
ATOM     27  C   UNL     1       6.420   4.798  -2.599  0.00  0.00    +0.008 A 
BRANCH  25  28
ATOM     28  O   UNL     1       9.072   3.932  -4.935  0.00  0.00    -0.495 OA
ATOM     29  C   UNL     1      10.489   4.104  -4.997  0.00  0.00    +0.277 C 
ENDBRANCH  25  28
ENDBRANCH  17  22
ENDBRANCH  16  17
ENDBRANCH   3  16
TORSDOF 6
