REMARK  Name = ZINC59260843
REMARK  12 active torsions:
REMARK  status: ('A' for Active; 'I' for Inactive)
REMARK    1  A    between atoms: C_1  and  C_2
REMARK    2  A    between atoms: C_2  and  C_29
REMARK    3  A    between atoms: N_3  and  N_4
REMARK    4  A    between atoms: C_5  and  C_7
REMARK    5  A    between atoms: C_7  and  S_8
REMARK    6  A    between atoms: S_8  and  C_9
REMARK    7  A    between atoms: C_12  and  C_17
REMARK    8  A    between atoms: N_13  and  C_14
REMARK    9  A    between atoms: C_14  and  C_15
REMARK   10  A    between atoms: C_17  and  N_18
REMARK   11  A    between atoms: N_18  and  C_19
REMARK   12  A    between atoms: C_32  and  N_35
REMARK                            x       y       z     vdW  Elec       q    Type
REMARK                         _______ _______ _______ _____ _____    ______ ____
ROOT
ATOM      1  C   UNL     1       0.075  -0.070   7.625  0.00  0.00    +0.192 A 
ATOM      2  N   UNL     1       0.052   1.242   7.655  0.00  0.00    -0.122 NA
ATOM      3  N   UNL     1       0.060   1.651   8.874  0.00  0.00    -0.132 NA
ATOM      4  C   UNL     1       0.088   0.633   9.687  0.00  0.00    +0.152 A 
ATOM      5  N   UNL     1       0.093  -0.500   8.921  0.00  0.00    -0.301 N 
ENDROOT
BRANCH   1   6
ATOM      6  S   UNL     1       0.075  -1.085   6.184  0.00  0.00    -0.077 S 
BRANCH   6   7
ATOM      7  C   UNL     1       0.046   0.101   4.812  0.00  0.00    +0.174 C 
BRANCH   7   9
ATOM      8  N   UNL     1       0.024   0.035   2.340  0.00  0.00    -0.206 N 
ATOM      9  C   UNL     1       0.044  -0.645   3.503  0.00  0.00    +0.242 C 
ATOM     10  O   UNL     1       0.060  -1.858   3.496  0.00  0.00    -0.273 OA
ATOM     11  H   UNL     1       0.011   1.005   2.345  0.00  0.00    +0.177 HD
BRANCH   8  14
ATOM     12  C   UNL     1      -0.018   1.503   0.010  0.00  0.00    +0.068 C 
ATOM     13  C   UNL     1       0.002  -0.004   0.002  0.00  0.00    +0.063 C 
ATOM     14  N   UNL     1       0.022  -0.659   1.123  0.00  0.00    -0.185 NA
BRANCH  13  15
ATOM     15  C   UNL     1      -0.000  -0.734  -1.278  0.00  0.00    -0.002 A 
ATOM     16  C   UNL     1      -0.015  -0.030  -2.486  0.00  0.00    +0.011 A 
ATOM     17  C   UNL     1      -0.017  -0.716  -3.681  0.00  0.00    +0.023 A 
ATOM     18  C   UNL     1      -0.003  -2.107  -3.686  0.00  0.00    +0.025 A 
ATOM     19  C   UNL     1       0.012  -2.811  -2.487  0.00  0.00    +0.023 A 
ATOM     20  C   UNL     1       0.019  -2.132  -1.288  0.00  0.00    +0.011 A 
BRANCH  18  21
ATOM     21  N   UNL     1      -0.005  -2.798  -4.898  0.00  0.00    -0.358 N 
ATOM     22  H   UNL     1      -0.016  -2.308  -5.735  0.00  0.00    +0.142 HD
ATOM     23  H   UNL     1       0.004  -3.768  -4.903  0.00  0.00    +0.142 HD
ENDBRANCH  18  21
ENDBRANCH  13  15
ENDBRANCH   8  14
ENDBRANCH   7   9
ENDBRANCH   6   7
ENDBRANCH   1   6
BRANCH   5  24
ATOM     24  C   UNL     1       0.117  -1.887   9.392  0.00  0.00    +0.152 C 
BRANCH  24  25
ATOM     25  C   UNL     1       1.545  -2.343   9.541  0.00  0.00    -0.013 C 
ATOM     26  C   UNL     1       1.963  -2.825  10.685  0.00  0.00    +0.005 C 
ENDBRANCH  24  25
ENDBRANCH   5  24
BRANCH   4  27
ATOM     27  C   UNL     1       0.106   0.693  11.193  0.00  0.00    +0.178 C 
BRANCH  27  28
ATOM     28  N   UNL     1      -1.269   0.686  11.698  0.00  0.00    -0.336 N 
ATOM     29  H   UNL     1      -2.013   0.648  11.077  0.00  0.00    +0.147 HD
BRANCH  28  30
ATOM     30  C   UNL     1      -1.507   0.736  13.070  0.00  0.00    +0.035 A 
ATOM     31  C   UNL     1      -0.453   0.797  13.957  0.00  0.00    +0.023 A 
ATOM     32  C   UNL     1      -0.680   0.848  15.329  0.00  0.00    +0.002 A 
ATOM     33  C   UNL     1      -1.946   0.838  15.833  0.00  0.00    +0.008 A 
ATOM     34  C   UNL     1      -3.047   0.777  14.963  0.00  0.00    -0.016 A 
ATOM     35  C   UNL     1      -2.829   0.731  13.563  0.00  0.00    +0.003 A 
ATOM     36  C   UNL     1      -3.931   0.674  12.696  0.00  0.00    +0.010 A 
ATOM     37  C   UNL     1      -5.192   0.670  13.207  0.00  0.00    +0.001 A 
ATOM     38  C   UNL     1      -5.408   0.722  14.583  0.00  0.00    +0.001 A 
ATOM     39  C   UNL     1      -4.364   0.765  15.455  0.00  0.00    +0.008 A 
ENDBRANCH  28  30
ENDBRANCH  27  28
ENDBRANCH   4  27
TORSDOF 11
