REMARK  Name = ZINC66825721
REMARK  10 active torsions:
REMARK  status: ('A' for Active; 'I' for Inactive)
REMARK    1  A    between atoms: C_1  and  C_2
REMARK    2  A    between atoms: C_2  and  C_3
REMARK    3  A    between atoms: C_2  and  C_4
REMARK    4  A    between atoms: C_4  and  C_5
REMARK    5  A    between atoms: C_4  and  C_6
REMARK    6  A    between atoms: C_4  and  N_8
REMARK    7  A    between atoms: C_9  and  C_11
REMARK    8  A    between atoms: C_11  and  N_12
REMARK    9  A    between atoms: N_12  and  C_13
REMARK   10  A    between atoms: C_16  and  N_20
REMARK                            x       y       z     vdW  Elec       q    Type
REMARK                         _______ _______ _______ _____ _____    ______ ____
ROOT
ATOM      1  N   UNL     1      -3.932  -4.690  -0.251  0.00  0.00    -0.335 N 
ATOM      2  H   UNL     1      -4.665  -4.083  -0.063  0.00  0.00    +0.147 HD
ENDROOT
BRANCH   1   3
ATOM      3  C   UNL     1      -4.171  -6.063  -0.362  0.00  0.00    +0.029 A 
ATOM      4  C   UNL     1      -3.120  -6.932  -0.626  0.00  0.00    +0.025 A 
ATOM      5  C   UNL     1      -3.356  -8.288  -0.735  0.00  0.00    +0.031 A 
ATOM      6  C   UNL     1      -4.644  -8.783  -0.581  0.00  0.00    +0.084 A 
ATOM      7  C   UNL     1      -5.696  -7.914  -0.318  0.00  0.00    +0.068 A 
ATOM      8  C   UNL     1      -5.459  -6.558  -0.202  0.00  0.00    +0.045 A 
ATOM      9 CL   UNL     1      -7.306  -8.534  -0.126  0.00  0.00    -0.081 Cl
BRANCH   6  10
ATOM     10  N   UNL     1      -4.883 -10.161  -0.692  0.00  0.00    -0.238 N 
ATOM     11  C   UNL     1      -4.174 -11.143  -0.092  0.00  0.00    +0.114 A 
ATOM     12  C   UNL     1      -4.722 -12.327  -0.452  0.00  0.00    +0.041 A 
ATOM     13  C   UNL     1      -5.803 -12.061  -1.300  0.00  0.00    +0.135 A 
ATOM     14  N   UNL     1      -5.904 -10.763  -1.440  0.00  0.00    -0.175 NA
ENDBRANCH   6  10
ENDBRANCH   1   3
BRANCH   1  15
ATOM     15  C   UNL     1      -2.574  -4.167  -0.420  0.00  0.00    +0.197 C 
BRANCH  15  17
ATOM     16  N   UNL     1      -1.442  -1.968  -0.367  0.00  0.00    -0.296 N 
ATOM     17  C   UNL     1      -2.588  -2.669  -0.254  0.00  0.00    +0.231 C 
ATOM     18  O   UNL     1      -3.629  -2.095  -0.018  0.00  0.00    -0.274 OA
ATOM     19  H   UNL     1      -0.609  -2.428  -0.556  0.00  0.00    +0.150 HD
BRANCH  16  20
ATOM     20  C   UNL     1      -1.456  -0.512  -0.205  0.00  0.00    +0.121 C 
ATOM     21  C   UNL     1      -1.968  -0.159   1.192  0.00  0.00    +0.048 C 
BRANCH  20  23
ATOM     22  C   UNL     1      -0.070   1.563  -0.337  0.00  0.00    +0.010 C 
ATOM     23  C   UNL     1      -0.037   0.034  -0.381  0.00  0.00    +0.020 C 
ATOM     24  C   UNL     1       0.854  -0.490   0.746  0.00  0.00    +0.010 C 
ENDBRANCH  20  23
BRANCH  20  25
ATOM     25  C   UNL     1      -2.341   0.086  -1.218  0.00  0.00    +0.088 C 
ATOM     26  N   UNL     1      -3.024   0.547  -2.000  0.00  0.00    -0.194 NA
ENDBRANCH  20  25
ENDBRANCH  16  20
ENDBRANCH  15  17
ENDBRANCH   1  15
TORSDOF 7
