REMARK  Name = ZINC04478201
REMARK  8 active torsions:
REMARK  status: ('A' for Active; 'I' for Inactive)
REMARK    1  A    between atoms: C_1  and  C_2
REMARK    2  A    between atoms: C_2  and  O_3
REMARK    3  A    between atoms: O_3  and  C_4
REMARK    4  A    between atoms: C_4  and  C_6
REMARK    5  A    between atoms: C_9  and  N_12
REMARK    6  A    between atoms: N_12  and  N_13
REMARK    7  A    between atoms: C_15  and  C_21
REMARK    8  A    between atoms: N_17  and  C_20
REMARK                            x       y       z     vdW  Elec       q    Type
REMARK                         _______ _______ _______ _____ _____    ______ ____
ROOT
ATOM      1  N   UNL     1      -4.962   1.494  -0.223  0.00  0.00    -0.177 NA
ATOM      2  C   UNL     1      -4.288   2.619  -0.121  0.00  0.00    +0.148 C 
ATOM      3  C   UNL     1      -2.821   2.789  -0.084  0.00  0.00    +0.119 C 
ATOM      4  N   UNL     1      -2.568   4.065   0.018  0.00  0.00    -0.176 NA
ATOM      5  N   UNL     1      -3.739   4.820   0.063  0.00  0.00    -0.210 N 
ATOM      6  C   UNL     1      -4.833   3.989  -0.014  0.00  0.00    +0.141 C 
ATOM      7  H   UNL     1      -6.438   5.251   0.065  0.00  0.00    +0.157 HD
ATOM      8  C   UNL     1      -3.796   6.279   0.176  0.00  0.00    +0.160 C 
ATOM      9  N   UNL     1      -6.133   4.280  -0.007  0.00  0.00    -0.384 N 
ATOM     10  H   UNL     1      -6.828   3.527  -0.074  0.00  0.00    +0.157 HD
ENDROOT
BRANCH   3  11
ATOM     11  C   UNL     1      -1.815   1.704  -0.156  0.00  0.00    +0.004 A 
ATOM     12  C   UNL     1      -1.399   1.217  -1.395  0.00  0.00    +0.011 A 
ATOM     13  C   UNL     1      -0.466   0.203  -1.457  0.00  0.00    +0.020 A 
ATOM     14  C   UNL     1       0.066  -0.324  -0.292  0.00  0.00    +0.041 A 
ATOM     15  C   UNL     1      -0.340   0.159   0.941  0.00  0.00    +0.020 A 
ATOM     16  C   UNL     1      -1.276   1.170   1.014  0.00  0.00    +0.011 A 
ATOM     17 CL   UNL     1       1.245  -1.595  -0.377  0.00  0.00    -0.084 Cl
ENDBRANCH   3  11
BRANCH   1  18
ATOM     18  N   UNL     1      -4.340   0.364  -0.190  0.00  0.00    -0.237 N 
ATOM     19  H   UNL     1      -3.387   0.340  -0.010  0.00  0.00    +0.174 HD
BRANCH  18  23
ATOM     20  C   UNL     1      -6.421  -3.178  -0.856  0.00  0.00    +0.059 A 
ATOM     21  C   UNL     1      -5.047  -3.210  -0.597  0.00  0.00    +0.017 A 
ATOM     22  C   UNL     1      -4.362  -2.038  -0.377  0.00  0.00    +0.025 A 
ATOM     23  C   UNL     1      -5.035  -0.819  -0.413  0.00  0.00    +0.048 A 
ATOM     24  C   UNL     1      -6.404  -0.783  -0.666  0.00  0.00    +0.025 A 
ATOM     25  C   UNL     1      -7.094  -1.952  -0.892  0.00  0.00    +0.017 A 
BRANCH  20  26
ATOM     26  C   UNL     1      -7.158  -4.433  -1.092  0.00  0.00    +0.339 C 
ATOM     27  O   UNL     1      -6.572  -5.497  -1.060  0.00  0.00    -0.245 OA
BRANCH  26  28
ATOM     28  O   UNL     1      -8.482  -4.399  -1.342  0.00  0.00    -0.461 OA
BRANCH  28  30
ATOM     29  C   UNL     1     -10.631  -5.436  -1.830  0.00  0.00    +0.048 C 
ATOM     30  C   UNL     1      -9.143  -5.673  -1.564  0.00  0.00    +0.229 C 
ENDBRANCH  28  30
ENDBRANCH  26  28
ENDBRANCH  20  26
ENDBRANCH  18  23
ENDBRANCH   1  18
TORSDOF 6
