REMARK  Name = ZINC39959433
REMARK  4 active torsions:
REMARK  status: ('A' for Active; 'I' for Inactive)
REMARK    1  A    between atoms: C_6  and  C_7
REMARK    2  A    between atoms: C_7  and  N_8
REMARK    3  A    between atoms: C_9  and  C_11
REMARK    4  A    between atoms: C_14  and  C_17
REMARK                            x       y       z     vdW  Elec       q    Type
REMARK                         _______ _______ _______ _____ _____    ______ ____
ROOT
ATOM      1  C   UNL     1      -3.314  -1.940  -3.025  0.00  0.00    +0.378 C 
ATOM      2  N   UNL     1      -3.784  -0.690  -3.643  0.00  0.00    -0.282 N 
ATOM      3  C   UNL     1      -5.114  -0.883  -3.975  0.00  0.00    +0.168 C 
ATOM      4  N   UNL     1      -5.510  -2.071  -3.645  0.00  0.00    -0.066 NA
ATOM      5  O   UNL     1      -4.457  -2.808  -3.046  0.00  0.00    -0.360 OA
ATOM      6  H   UNL     1      -3.262   0.115  -3.789  0.00  0.00    +0.152 HD
ENDROOT
BRANCH   3   7
ATOM      7  C   UNL     1      -5.969   0.133  -4.620  0.00  0.00    +0.018 C 
ATOM      8  C   UNL     1      -7.299  -0.155  -4.910  0.00  0.00    +0.017 C 
ATOM      9  C   UNL     1      -7.994   0.867  -5.573  0.00  0.00    -0.017 C 
ATOM     10  C   UNL     1      -9.286   1.242  -5.573  0.00  0.00    +0.025 C 
ATOM     11  C   UNL     1      -9.403   2.511  -6.185  0.00  0.00    +0.106 C 
ATOM     12  N   UNL     1      -8.273   2.919  -6.687  0.00  0.00    -0.279 NA
ATOM     13  C   UNL     1      -7.292   1.864  -6.479  0.00  0.00    +0.158 C 
ATOM     14  C   UNL     1      -6.027   2.292  -5.800  0.00  0.00    +0.005 C 
ATOM     15  C   UNL     1      -5.422   1.455  -4.954  0.00  0.00    +0.009 C 
ENDBRANCH   3   7
BRANCH   1  17
ATOM     16  N   UNL     1      -1.727  -1.016  -1.368  0.00  0.00    -0.307 N 
ATOM     17  C   UNL     1      -2.868  -1.691  -1.607  0.00  0.00    +0.276 C 
ATOM     18  O   UNL     1      -3.537  -2.098  -0.681  0.00  0.00    -0.270 OA
ATOM     19  H   UNL     1      -1.192  -0.690  -2.109  0.00  0.00    +0.149 HD
BRANCH  16  20
ATOM     20  C   UNL     1      -1.294  -0.774   0.010  0.00  0.00    +0.139 C 
BRANCH  20  26
ATOM     21  C   UNL     1      -0.017   1.378   0.010  0.00  0.00    +0.009 A 
ATOM     22  C   UNL     1       1.170   2.088   0.002  0.00  0.00    +0.050 A 
ATOM     23  C   UNL     1       2.380   1.416  -0.013  0.00  0.00    +0.166 A 
ATOM     24  C   UNL     1       2.399   0.023  -0.021  0.00  0.00    +0.167 A 
ATOM     25  C   UNL     1       1.207  -0.682  -0.014  0.00  0.00    +0.054 A 
ATOM     26  C   UNL     1       0.002  -0.004   0.002  0.00  0.00    -0.027 A 
ATOM     27  O   UNL     1       3.698  -0.395  -0.036  0.00  0.00    -0.453 OA
ATOM     28  C   UNL     1       4.466   0.750  -0.450  0.00  0.00    +0.466 C 
ATOM     29  O   UNL     1       3.668   1.870  -0.024  0.00  0.00    -0.453 OA
ENDBRANCH  20  26
ENDBRANCH  16  20
ENDBRANCH   1  17
TORSDOF 4
