REMARK  Name = ZINC09556677
REMARK  3 active torsions:
REMARK  status: ('A' for Active; 'I' for Inactive)
REMARK    1  A    between atoms: C_4  and  C_7
REMARK    2  A    between atoms: C_22  and  C_23
REMARK    3  A    between atoms: C_26  and  O_29
REMARK                            x       y       z     vdW  Elec       q    Type
REMARK                         _______ _______ _______ _____ _____    ______ ____
ROOT
ATOM      1  C   UNL     1       1.205  -1.938   0.171  0.00  0.00    +0.069 C 
ATOM      2  N   UNL     1       0.184  -2.729   0.105  0.00  0.00    -0.183 NA
ATOM      3  N   UNL     1       0.526  -4.066   0.018  0.00  0.00    -0.186 N 
ATOM      4  C   UNL     1       1.984  -4.173  -0.215  0.00  0.00    +0.138 C 
ATOM      5  C   UNL     1       2.480  -2.752   0.083  0.00  0.00    +0.086 C 
ATOM      6  C   UNL     1       2.502  -5.177   0.781  0.00  0.00    +0.017 A 
ATOM      7  C   UNL     1       3.861  -5.251   1.021  0.00  0.00    +0.009 A 
ATOM      8  C   UNL     1       4.365  -6.195   1.895  0.00  0.00    +0.001 A 
ATOM      9  C   UNL     1       3.503  -7.069   2.531  0.00  0.00    +0.004 A 
ATOM     10  C   UNL     1       2.146  -6.991   2.303  0.00  0.00    +0.046 A 
ATOM     11  C   UNL     1       1.627  -6.035   1.429  0.00  0.00    +0.131 A 
ATOM     12  O   UNL     1       0.279  -6.003   1.272  0.00  0.00    -0.446 OA
ATOM     13  C   UNL     1      -0.300  -5.271   0.181  0.00  0.00    +0.302 C 
ATOM     14  C   UNL     1      -1.702  -4.846   0.578  0.00  0.00    +0.079 C 
ATOM     15  C   UNL     1      -2.095  -4.112   1.623  0.00  0.00    +0.026 C 
ATOM     16  S   UNL     1      -2.687  -5.579  -0.715  0.00  0.00    -0.028 S 
ATOM     17  C   UNL     1      -1.401  -6.356  -1.669  0.00  0.00    +0.281 C 
ATOM     18  O   UNL     1      -1.530  -7.009  -2.686  0.00  0.00    -0.262 OA
ATOM     19  N   UNL     1      -0.259  -6.068  -1.027  0.00  0.00    -0.247 N 
ATOM     20  H   UNL     1       0.589  -6.392  -1.369  0.00  0.00    +0.155 HD
ENDROOT
BRANCH   1  24
ATOM     21  C   UNL     1       1.013   2.284   0.555  0.00  0.00    +0.000 A 
ATOM     22  C   UNL     1      -0.155   1.544   0.495  0.00  0.00    +0.001 A 
ATOM     23  C   UNL     1      -0.100   0.172   0.370  0.00  0.00    +0.010 A 
ATOM     24  C   UNL     1       1.138  -0.471   0.304  0.00  0.00    -0.002 A 
ATOM     25  C   UNL     1       2.313   0.282   0.365  0.00  0.00    +0.010 A 
ATOM     26  C   UNL     1       2.243   1.654   0.491  0.00  0.00    +0.001 A 
ENDBRANCH   1  24
BRANCH  15  27
ATOM     27  C   UNL     1      -3.500  -3.675   1.731  0.00  0.00    -0.024 A 
ATOM     28  C   UNL     1      -4.318  -3.660   0.599  0.00  0.00    +0.011 A 
ATOM     29  C   UNL     1      -5.632  -3.255   0.705  0.00  0.00    +0.046 A 
ATOM     30  C   UNL     1      -6.139  -2.853   1.933  0.00  0.00    +0.117 A 
ATOM     31  C   UNL     1      -5.329  -2.861   3.060  0.00  0.00    +0.046 A 
ATOM     32  C   UNL     1      -4.015  -3.269   2.964  0.00  0.00    +0.011 A 
BRANCH  30  33
ATOM     33  O   UNL     1      -7.433  -2.449   2.032  0.00  0.00    -0.507 OA
ATOM     34  H   UNL     1      -7.562  -1.502   1.890  0.00  0.00    +0.292 HD
ENDBRANCH  30  33
ENDBRANCH  15  27
TORSDOF 3
