REMARK  Name = ZINC40133566
REMARK  11 active torsions:
REMARK  status: ('A' for Active; 'I' for Inactive)
REMARK    1  A    between atoms: C_1  and  C_2
REMARK    2  A    between atoms: C_4  and  C_18
REMARK    3  A    between atoms: C_6  and  C_15
REMARK    4  A    between atoms: N_9  and  C_11
REMARK    5  A    between atoms: C_11  and  C_12
REMARK    6  A    between atoms: C_11  and  C_13
REMARK    7  A    between atoms: C_11  and  C_14
REMARK    8  A    between atoms: N_20  and  C_21
REMARK    9  A    between atoms: C_26  and  C_27
REMARK   10  A    between atoms: N_29  and  C_30
REMARK   11  A    between atoms: N_29  and  C_31
REMARK                            x       y       z     vdW  Elec       q    Type
REMARK                         _______ _______ _______ _____ _____    ______ ____
ROOT
ATOM      1  C   UNL     1      -1.019   2.345   0.309  0.00  0.00    +0.068 C 
ATOM      2  C   UNL     1      -0.980   0.857   0.544  0.00  0.00    +0.070 A 
ATOM      3  C   UNL     1      -0.804  -0.129  -0.449  0.00  0.00    +0.054 A 
ATOM      4  C   UNL     1      -0.623  -0.087  -1.850  0.00  0.00    +0.051 A 
ATOM      5  C   UNL     1      -0.478  -1.299  -2.523  0.00  0.00    +0.037 A 
ATOM      6  C   UNL     1      -0.515  -2.484  -1.805  0.00  0.00    +0.047 A 
ATOM      7  N   UNL     1      -0.685  -2.497  -0.501  0.00  0.00    -0.232 NA
ATOM      8  C   UNL     1      -0.829  -1.380   0.199  0.00  0.00    +0.160 A 
ATOM      9  N   UNL     1      -1.015  -1.121   1.532  0.00  0.00    -0.241 N 
ATOM     10  N   UNL     1      -1.098   0.267   1.699  0.00  0.00    -0.173 NA
ENDROOT
BRANCH   9  11
ATOM     11  C   UNL     1      -1.107  -2.122   2.597  0.00  0.00    +0.058 C 
ATOM     12  C   UNL     1       0.186  -2.938   2.643  0.00  0.00    +0.036 C 
ATOM     13  C   UNL     1      -1.316  -1.420   3.940  0.00  0.00    +0.036 C 
ATOM     14  C   UNL     1      -2.289  -3.054   2.320  0.00  0.00    +0.036 C 
ENDBRANCH   9  11
BRANCH   4  15
ATOM     15  C   UNL     1      -0.589   1.199  -2.577  0.00  0.00    +0.249 C 
ATOM     16  O   UNL     1       0.050   2.132  -2.133  0.00  0.00    -0.270 OA
ATOM     17  N   UNL     1      -1.268   1.337  -3.734  0.00  0.00    -0.281 N 
ATOM     18  H   UNL     1      -1.831   0.616  -4.054  0.00  0.00    +0.155 HD
BRANCH  17  19
ATOM     19  C   UNL     1      -1.160   2.515  -4.468  0.00  0.00    +0.046 A 
ATOM     20  C   UNL     1      -0.050   3.335  -4.311  0.00  0.00    +0.024 A 
ATOM     21  C   UNL     1       0.055   4.503  -5.039  0.00  0.00    +0.002 A 
ATOM     22  C   UNL     1      -0.943   4.865  -5.931  0.00  0.00    +0.001 A 
ATOM     23  C   UNL     1      -2.051   4.064  -6.099  0.00  0.00    +0.015 A 
ATOM     24  C   UNL     1      -2.168   2.876  -5.373  0.00  0.00    +0.058 A 
BRANCH  24  25
ATOM     25  C   UNL     1      -3.349   2.010  -5.554  0.00  0.00    +0.248 C 
ATOM     26  O   UNL     1      -4.010   1.675  -4.590  0.00  0.00    -0.270 OA
ATOM     27  N   UNL     1      -3.694   1.590  -6.787  0.00  0.00    -0.304 N 
ATOM     28  C   UNL     1      -4.929   0.826  -6.981  0.00  0.00    +0.132 C 
ATOM     29  C   UNL     1      -2.835   1.899  -7.933  0.00  0.00    +0.132 C 
ENDBRANCH  24  25
ENDBRANCH  17  19
ENDBRANCH   4  15
BRANCH   6  30
ATOM     30  C   UNL     1      -0.358  -3.792  -2.537  0.00  0.00    +0.038 C 
ATOM     31  C   UNL     1       0.211  -3.743  -3.957  0.00  0.00    +0.010 C 
ATOM     32  C   UNL     1       1.066  -4.283  -2.808  0.00  0.00    +0.010 C 
ENDBRANCH   6  30
TORSDOF 5
