REMARK  Name = ZINC63505593
REMARK  8 active torsions:
REMARK  status: ('A' for Active; 'I' for Inactive)
REMARK    1  A    between atoms: C_1  and  C_2
REMARK    2  A    between atoms: C_2  and  O_3
REMARK    3  A    between atoms: O_3  and  C_4
REMARK    4  A    between atoms: C_4  and  C_6
REMARK    5  A    between atoms: C_6  and  C_7
REMARK    6  A    between atoms: C_10  and  N_13
REMARK    7  A    between atoms: N_16  and  N_17
REMARK    8  A    between atoms: C_18  and  C_20
REMARK                            x       y       z     vdW  Elec       q    Type
REMARK                         _______ _______ _______ _____ _____    ______ ____
ROOT
ATOM      1  N   UNL     1       1.399  -8.022  -2.323  0.00  0.00    -0.268 N 
ATOM      2  C   UNL     1       2.065  -8.665  -1.344  0.00  0.00    +0.320 C 
ATOM      3  O   UNL     1       2.604  -8.031  -0.457  0.00  0.00    -0.251 OA
ATOM      4  N   UNL     1       2.133 -10.011  -1.347  0.00  0.00    -0.218 N 
ATOM      5  H   UNL     1       0.904  -8.528  -2.986  0.00  0.00    +0.156 HD
ATOM      6  H   UNL     1       2.613 -10.475  -0.642  0.00  0.00    +0.174 HD
ENDROOT
BRANCH   1  10
ATOM      7  C   UNL     1       1.467  -3.860  -2.502  0.00  0.00    -0.037 A 
ATOM      8  C   UNL     1       2.572  -4.548  -2.037  0.00  0.00    +0.006 A 
ATOM      9  C   UNL     1       2.553  -5.928  -1.976  0.00  0.00    +0.023 A 
ATOM     10  C   UNL     1       1.422  -6.624  -2.383  0.00  0.00    +0.035 A 
ATOM     11  C   UNL     1       0.313  -5.929  -2.849  0.00  0.00    +0.023 A 
ATOM     12  C   UNL     1       0.337  -4.549  -2.902  0.00  0.00    +0.006 A 
BRANCH   7  13
ATOM     13  C   UNL     1       1.491  -2.354  -2.567  0.00  0.00    +0.155 C 
BRANCH  13  14
ATOM     14  C   UNL     1       0.990  -1.787  -1.264  0.00  0.00    +0.311 C 
ATOM     15  O   UNL     1       0.648  -2.529  -0.373  0.00  0.00    -0.250 OA
BRANCH  14  16
ATOM     16  O   UNL     1       0.923  -0.458  -1.092  0.00  0.00    -0.465 OA
BRANCH  16  18
ATOM     17  C   UNL     1       0.435   1.540   0.178  0.00  0.00    +0.048 C 
ATOM     18  C   UNL     1       0.439   0.010   0.169  0.00  0.00    +0.229 C 
ENDBRANCH  16  18
ENDBRANCH  14  16
ENDBRANCH  13  14
ENDBRANCH   7  13
ENDBRANCH   1  10
BRANCH   4  19
ATOM     19  N   UNL     1       1.512 -10.742  -2.368  0.00  0.00    -0.231 N 
ATOM     20  C   UNL     1       1.580 -12.088  -2.372  0.00  0.00    +0.258 C 
ATOM     21  O   UNL     1       2.179 -12.667  -1.491  0.00  0.00    -0.272 OA
ATOM     22  H   UNL     1       1.032 -10.278  -3.073  0.00  0.00    +0.173 HD
BRANCH  20  23
ATOM     23  C   UNL     1       0.911 -12.873  -3.470  0.00  0.00    +0.217 C 
ATOM     24  C   UNL     1      -0.566 -13.019  -3.183  0.00  0.00    +0.026 C 
ATOM     25  C   UNL     1      -0.794 -14.319  -3.084  0.00  0.00    +0.036 A 
ATOM     26  C   UNL     1       0.456 -15.091  -3.289  0.00  0.00    +0.074 A 
ATOM     27  N   UNL     1       1.447 -14.236  -3.515  0.00  0.00    -0.266 NA
ATOM     28  C   UNL     1       0.263 -16.532  -3.191  0.00  0.00    +0.035 A 
ATOM     29  C   UNL     1      -0.958 -17.022  -2.938  0.00  0.00    +0.048 A 
ATOM     30  S   UNL     1      -2.004 -15.588  -2.800  0.00  0.00    -0.095 S 
ENDBRANCH  20  23
ENDBRANCH   4  19
TORSDOF 7
