REMARK  Name = ZINC19210539
REMARK  8 active torsions:
REMARK  status: ('A' for Active; 'I' for Inactive)
REMARK    1  A    between atoms: C_1  and  C_2
REMARK    2  A    between atoms: C_5  and  N_8
REMARK    3  A    between atoms: C_13  and  C_26
REMARK    4  A    between atoms: C_16  and  C_21
REMARK    5  A    between atoms: C_16  and  C_22
REMARK    6  A    between atoms: C_22  and  O_24
REMARK    7  A    between atoms: O_24  and  C_25
REMARK    8  A    between atoms: C_29  and  O_32
REMARK                            x       y       z     vdW  Elec       q    Type
REMARK                         _______ _______ _______ _____ _____    ______ ____
ROOT
ATOM      1  N   UNL     1       0.173  -4.242  -0.220  0.00  0.00    -0.210 N 
ATOM      2  C   UNL     1       0.184  -5.062  -1.321  0.00  0.00    +0.232 C 
ATOM      3  O   UNL     1      -0.009  -4.751  -2.477  0.00  0.00    -0.274 OA
ATOM      4  C   UNL     1       0.475  -6.375  -0.800  0.00  0.00    +0.111 C 
ATOM      5  C   UNL     1       0.341  -7.797  -1.161  0.00  0.00    +0.097 C 
ATOM      6  N   UNL     1       0.700  -8.483   0.128  0.00  0.00    -0.294 NA
ATOM      7  C   UNL     1       0.462  -7.517   1.242  0.00  0.00    +0.127 C 
ATOM      8  C   UNL     1      -0.275  -6.337   0.590  0.00  0.00    +0.120 C 
ATOM      9  C   UNL     1       0.147  -4.938   0.955  0.00  0.00    +0.232 C 
ATOM     10  O   UNL     1       0.408  -4.516   2.061  0.00  0.00    -0.274 OA
ATOM     11  C   UNL     1      -0.425  -8.153   2.314  0.00  0.00    +0.040 C 
ATOM     12  H   UNL     1       0.154  -9.323   0.255  0.00  0.00    +0.124 HD
ENDROOT
BRANCH   1  17
ATOM     13  C   UNL     1       0.249   1.425  -0.519  0.00  0.00    +0.044 C 
ATOM     14  C   UNL     1       0.229  -0.080  -0.440  0.00  0.00    -0.050 A 
ATOM     15  C   UNL     1       0.237  -0.832  -1.600  0.00  0.00    +0.005 A 
ATOM     16  C   UNL     1       0.218  -2.212  -1.530  0.00  0.00    +0.024 A 
ATOM     17  C   UNL     1       0.192  -2.842  -0.294  0.00  0.00    +0.044 A 
ATOM     18  C   UNL     1       0.185  -2.085   0.869  0.00  0.00    +0.024 A 
ATOM     19  C   UNL     1       0.209  -0.706   0.793  0.00  0.00    +0.005 A 
ENDBRANCH   1  17
BRANCH   5  20
ATOM     20  C   UNL     1       1.308  -8.168  -2.255  0.00  0.00    -0.029 A 
ATOM     21  C   UNL     1       2.631  -8.429  -1.948  0.00  0.00    +0.009 A 
ATOM     22  C   UNL     1       3.520  -8.769  -2.950  0.00  0.00    +0.046 A 
ATOM     23  C   UNL     1       3.084  -8.848  -4.265  0.00  0.00    +0.117 A 
ATOM     24  C   UNL     1       1.756  -8.585  -4.570  0.00  0.00    +0.046 A 
ATOM     25  C   UNL     1       0.870  -8.251  -3.564  0.00  0.00    +0.009 A 
BRANCH  23  26
ATOM     26  O   UNL     1       3.956  -9.181  -5.252  0.00  0.00    -0.507 OA
ATOM     27  H   UNL     1       4.013 -10.132  -5.422  0.00  0.00    +0.292 HD
ENDBRANCH  23  26
ENDBRANCH   5  20
BRANCH   7  28
ATOM     28  C   UNL     1       1.773  -7.078   1.841  0.00  0.00    +0.328 C 
ATOM     29  O   UNL     1       1.847  -6.839   3.023  0.00  0.00    -0.249 OA
BRANCH  28  30
ATOM     30  O   UNL     1       2.859  -6.954   1.062  0.00  0.00    -0.467 OA
ATOM     31  C   UNL     1       4.069  -6.534   1.696  0.00  0.00    +0.280 C 
ENDBRANCH  28  30
ENDBRANCH   7  28
TORSDOF 5
