REMARK  Name = ZINC10038115
REMARK  9 active torsions:
REMARK  status: ('A' for Active; 'I' for Inactive)
REMARK    1  A    between atoms: C_1  and  C_2
REMARK    2  A    between atoms: C_2  and  C_3
REMARK    3  A    between atoms: C_2  and  C_4
REMARK    4  A    between atoms: C_4  and  C_5
REMARK    5  A    between atoms: C_5  and  N_62
REMARK    6  A    between atoms: C_8  and  C_11
REMARK    7  A    between atoms: C_15  and  C_24
REMARK    8  A    between atoms: C_20  and  C_22
REMARK    9  A    between atoms: C_20  and  C_23
REMARK                            x       y       z     vdW  Elec       q    Type
REMARK                         _______ _______ _______ _____ _____    ______ ____
ROOT
ATOM      1  C   UNL     1      -4.250   2.221   2.329  0.00  0.00    +0.219 C 
ATOM      2  O   UNL     1      -4.744   3.317   2.486  0.00  0.00    -0.275 OA
ATOM      3  N   UNL     1      -2.948   2.021   2.619  0.00  0.00    -0.298 N 
ATOM      4  C   UNL     1      -2.245   0.730   2.567  0.00  0.00    +0.114 C 
ATOM      5  C   UNL     1      -0.799   1.002   3.043  0.00  0.00    -0.014 C 
ATOM      6  C   UNL     1      -0.592   2.487   2.637  0.00  0.00    +0.030 C 
ATOM      7  C   UNL     1      -1.980   3.057   3.028  0.00  0.00    +0.077 C 
ATOM      8  C   UNL     1      -1.993   3.188   4.551  0.00  0.00    +0.029 C 
ATOM      9  C   UNL     1      -1.691   1.891   5.279  0.00  0.00    -0.033 C 
ATOM     10  C   UNL     1      -0.755   0.933   4.568  0.00  0.00    +0.014 C 
ATOM     11  C   UNL     1      -3.004   1.177   5.633  0.00  0.00    +0.011 C 
ATOM     12  C   UNL     1      -1.023   2.268   6.625  0.00  0.00    +0.011 C 
ATOM     13  C   UNL     1       0.220   0.066   2.376  0.00  0.00    +0.013 C 
ENDROOT
BRANCH   1  16
ATOM     14  C   UNL     1      -7.415   0.205   1.575  0.00  0.00    -0.078 C 
ATOM     15  C   UNL     1      -6.560   1.333   2.157  0.00  0.00    -0.006 C 
ATOM     16  C   UNL     1      -5.090   1.083   1.810  0.00  0.00    +0.072 C 
ATOM     17  C   UNL     1      -4.941   0.989   0.289  0.00  0.00    -0.006 C 
ATOM     18  C   UNL     1      -5.843  -0.129  -0.239  0.00  0.00    -0.078 C 
ATOM     19  N   UNL     1      -7.246   0.183   0.106  0.00  0.00    +0.380 N 
ATOM     20  H   UNL     1      -7.483   1.109  -0.270  0.00  0.00    -0.082 HD
BRANCH  19  21
ATOM     21  C   UNL     1      -8.148  -0.823  -0.491  0.00  0.00    -0.079 C 
BRANCH  21  22
ATOM     22  C   UNL     1      -7.769  -1.027  -1.959  0.00  0.00    -0.016 C 
BRANCH  22  24
ATOM     23  C   UNL     1      -8.419  -2.160  -4.090  0.00  0.00    +0.007 C 
ATOM     24  C   UNL     1      -8.717  -2.048  -2.593  0.00  0.00    -0.019 C 
ATOM     25  C   UNL     1      -8.516  -3.412  -1.930  0.00  0.00    +0.007 C 
ENDBRANCH  22  24
ENDBRANCH  21  22
ENDBRANCH  19  21
ENDBRANCH   1  16
TORSDOF 4
