REMARK  Name = ZINC32538782
REMARK  7 active torsions:
REMARK  status: ('A' for Active; 'I' for Inactive)
REMARK    1  A    between atoms: C_1  and  C_2
REMARK    2  A    between atoms: C_2  and  O_3
REMARK    3  A    between atoms: O_3  and  C_4
REMARK    4  A    between atoms: C_6  and  C_14
REMARK    5  A    between atoms: C_8  and  N_11
REMARK    6  A    between atoms: N_15  and  N_16
REMARK    7  A    between atoms: C_17  and  C_19
REMARK                            x       y       z     vdW  Elec       q    Type
REMARK                         _______ _______ _______ _____ _____    ______ ____
ROOT
ATOM      1  C   UNL     1       3.645  -2.425   0.091  0.00  0.00    +0.170 A 
ATOM      2  C   UNL     1       3.561  -1.046   0.099  0.00  0.00    +0.059 A 
ATOM      3  C   UNL     1       2.309  -0.425   0.112  0.00  0.00    +0.000 A 
ATOM      4  C   UNL     1       1.149  -1.203   0.122  0.00  0.00    +0.046 A 
ATOM      5  C   UNL     1       1.240  -2.579   0.109  0.00  0.00    +0.177 A 
ATOM      6  C   UNL     1       2.483  -3.194   0.097  0.00  0.00    +0.250 A 
ATOM      7  O   UNL     1       2.568  -4.551   0.089  0.00  0.00    -0.282 OA
ENDROOT
BRANCH   5   8
ATOM      8  N   UNL     1       0.009  -3.401   0.113  0.00  0.00    +0.060 N 
ATOM      9  O   UNL     1      -1.081  -2.865   0.032  0.00  0.00    -0.126 OA
ATOM     10  O   UNL     1       0.087  -4.613   0.199  0.00  0.00    -0.126 OA
ENDBRANCH   5   8
BRANCH   3  11
ATOM     11  C   UNL     1       2.214   1.046   0.120  0.00  0.00    +0.138 C 
ATOM     12  N   UNL     1       1.113   1.627  -0.249  0.00  0.00    -0.187 NA
BRANCH  12  13
ATOM     13  N   UNL     1       0.155   0.912  -0.981  0.00  0.00    -0.203 N 
ATOM     14  C   UNL     1      -1.050   1.462  -1.231  0.00  0.00    +0.263 C 
ATOM     15  O   UNL     1      -1.274   2.611  -0.902  0.00  0.00    -0.268 OA
ATOM     16  H   UNL     1       0.387  -0.097  -1.351  0.00  0.00    +0.178 HD
BRANCH  14  17
ATOM     17  C   UNL     1      -2.098   0.669  -1.904  0.00  0.00    +0.038 A 
ATOM     18  C   UNL     1      -1.878  -0.678  -2.198  0.00  0.00    +0.014 A 
ATOM     19  C   UNL     1      -2.863  -1.415  -2.821  0.00  0.00    +0.016 A 
ATOM     20  C   UNL     1      -4.064  -0.818  -3.167  0.00  0.00    +0.018 A 
ATOM     21  C   UNL     1      -4.286   0.519  -2.883  0.00  0.00    +0.016 A 
ATOM     22  C   UNL     1      -3.312   1.265  -2.255  0.00  0.00    +0.014 A 
ATOM     23 BR   UNL     1      -5.407  -1.834  -4.028  0.00  0.00    -0.050 Br
ENDBRANCH  14  17
ENDBRANCH  12  13
ENDBRANCH   3  11
BRANCH   1  24
ATOM     24  O   UNL     1       4.862  -3.032   0.079  0.00  0.00    -0.488 OA
BRANCH  24  26
ATOM     25  C   UNL     1       7.279  -3.039   0.061  0.00  0.00    +0.048 C 
ATOM     26  C   UNL     1       6.011  -2.183   0.075  0.00  0.00    +0.226 C 
ENDBRANCH  24  26
ENDBRANCH   1  24
TORSDOF 6
