REMARK  Name = ZINC20828655
REMARK  8 active torsions:
REMARK  status: ('A' for Active; 'I' for Inactive)
REMARK    1  A    between atoms: C_1  and  C_2
REMARK    2  A    between atoms: C_2  and  N_3
REMARK    3  A    between atoms: N_6  and  C_9
REMARK    4  A    between atoms: C_9  and  C_10
REMARK    5  A    between atoms: C_10  and  C_12
REMARK    6  A    between atoms: C_10  and  O_36
REMARK    7  A    between atoms: C_12  and  N_13
REMARK    8  A    between atoms: C_20  and  C_30
REMARK                            x       y       z     vdW  Elec       q    Type
REMARK                         _______ _______ _______ _____ _____    ______ ____
ROOT
ATOM      1  N   UNL     1      -0.524   1.938  -1.173  0.00  0.00    +0.388 N 
ATOM      2  C   UNL     1      -0.687   3.399  -1.139  0.00  0.00    -0.056 C 
ATOM      3  C   UNL     1      -1.760   3.863  -2.131  0.00  0.00    +0.103 C 
ATOM      4  N   UNL     1      -1.484   3.236  -3.433  0.00  0.00    -0.347 N 
ATOM      5  C   UNL     1      -1.969   3.531  -4.672  0.00  0.00    +0.049 A 
ATOM      6  C   UNL     1      -2.843   4.520  -5.119  0.00  0.00    +0.027 A 
ATOM      7  C   UNL     1      -3.139   4.539  -6.470  0.00  0.00    +0.006 A 
ATOM      8  C   UNL     1      -2.600   3.621  -7.356  0.00  0.00    -0.044 A 
ATOM      9  C   UNL     1      -1.736   2.637  -6.950  0.00  0.00    +0.014 A 
ATOM     10  C   UNL     1      -1.413   2.590  -5.590  0.00  0.00    +0.003 A 
ATOM     11  C   UNL     1      -0.561   1.732  -4.812  0.00  0.00    -0.020 A 
ATOM     12  C   UNL     1      -0.632   2.173  -3.540  0.00  0.00    +0.009 A 
ATOM     13  C   UNL     1       0.143   1.516  -2.421  0.00  0.00    -0.020 C 
ATOM     14  C   UNL     1       0.049   0.009  -2.601  0.00  0.00    -0.009 C 
ATOM     15  C   UNL     1       0.129  -0.500  -4.019  0.00  0.00    +0.003 C 
ATOM     16  C   UNL     1       0.300   0.538  -5.119  0.00  0.00    +0.037 C 
ATOM     17  H   UNL     1      -1.525   1.484  -1.143  0.00  0.00    -0.081 HD
ENDROOT
BRANCH   8  18
ATOM     18  C   UNL     1      -2.976   3.706  -8.813  0.00  0.00    +0.019 C 
ATOM     19  C   UNL     1      -2.557   5.069  -9.369  0.00  0.00    +0.008 C 
ATOM     20  C   UNL     1      -2.938   5.155 -10.848  0.00  0.00    +0.001 C 
ATOM     21  C   UNL     1      -4.452   4.988 -10.995  0.00  0.00    +0.000 C 
ATOM     22  C   UNL     1      -4.871   3.626 -10.440  0.00  0.00    +0.001 C 
ATOM     23  C   UNL     1      -4.490   3.539  -8.960  0.00  0.00    +0.008 C 
ENDBRANCH   8  18
BRANCH   1  24
ATOM     24  C   UNL     1       0.214   1.464   0.005  0.00  0.00    -0.045 C 
BRANCH  24  25
ATOM     25  C   UNL     1      -0.721   1.435   1.216  0.00  0.00    +0.112 C 
BRANCH  25  26
ATOM     26  O   UNL     1      -1.099   2.770   1.558  0.00  0.00    -0.392 OA
ATOM     27  H   UNL     1      -1.630   3.396   0.826  0.00  0.00    +0.210 HD
ENDBRANCH  25  26
BRANCH  25  28
ATOM     28  C   UNL     1      -0.002   0.789   2.401  0.00  0.00    +0.113 C 
BRANCH  28  32
ATOM     29  N   UNL     1      -2.155  -0.673   5.729  0.00  0.00    +0.381 N 
ATOM     30  C   UNL     1      -2.881  -0.495   4.463  0.00  0.00    -0.063 C 
ATOM     31  C   UNL     1      -1.879  -0.444   3.307  0.00  0.00    +0.066 C 
ATOM     32  N   UNL     1      -0.934   0.659   3.529  0.00  0.00    -0.303 NA
ATOM     33  C   UNL     1      -0.209   0.482   4.795  0.00  0.00    +0.066 C 
ATOM     34  C   UNL     1      -1.211   0.431   5.951  0.00  0.00    -0.063 C 
ATOM     35  H   UNL     1      -1.577  -1.606   5.661  0.00  0.00    -0.082 HD
BRANCH  29  37
ATOM     36  C   UNL     1      -2.319  -1.231   8.108  0.00  0.00    -0.017 C 
ATOM     37  C   UNL     1      -3.088  -0.802   6.856  0.00  0.00    -0.082 C 
ENDBRANCH  29  37
ENDBRANCH  28  32
ENDBRANCH  25  28
ENDBRANCH  24  25
ENDBRANCH   1  24
TORSDOF 7
