REMARK  Name = ZINC40157566
REMARK  11 active torsions:
REMARK  status: ('A' for Active; 'I' for Inactive)
REMARK    1  A    between atoms: C_1  and  C_2
REMARK    2  A    between atoms: C_2  and  C_4
REMARK    3  A    between atoms: C_2  and  N_24
REMARK    4  A    between atoms: C_4  and  N_5
REMARK    5  A    between atoms: C_6  and  C_8
REMARK    6  A    between atoms: C_8  and  C_10
REMARK    7  A    between atoms: C_8  and  N_14
REMARK    8  A    between atoms: C_10  and  C_11
REMARK    9  A    between atoms: C_11  and  S_12
REMARK   10  A    between atoms: S_12  and  C_13
REMARK   11  A    between atoms: C_15  and  C_17
REMARK                            x       y       z     vdW  Elec       q    Type
REMARK                         _______ _______ _______ _____ _____    ______ ____
ROOT
ATOM      1  C   UNL     1      -1.823  -4.565  -0.590  0.00  0.00    +0.160 C 
ENDROOT
BRANCH   1   3
ATOM      2  N   UNL     1      -1.080  -2.233  -0.233  0.00  0.00    -0.315 N 
ATOM      3  C   UNL     1      -2.100  -3.094  -0.420  0.00  0.00    +0.233 C 
ATOM      4  O   UNL     1      -3.241  -2.684  -0.450  0.00  0.00    -0.274 OA
ATOM      5  H   UNL     1      -0.167  -2.561  -0.209  0.00  0.00    +0.149 HD
BRANCH   2   6
ATOM      6  C   UNL     1      -1.349  -0.803  -0.068  0.00  0.00    +0.089 C 
BRANCH   6   8
ATOM      7  C   UNL     1      -0.340   1.405   0.523  0.00  0.00    -0.012 C 
ATOM      8  C   UNL     1      -0.045  -0.072   0.258  0.00  0.00    -0.054 C 
BRANCH   8   9
ATOM      9  N   UNL     1       0.566  -0.671   1.453  0.00  0.00    +0.382 N 
ATOM     10  C   UNL     1      -0.304  -0.441   2.613  0.00  0.00    -0.078 C 
ATOM     11  C   UNL     1       0.287  -1.132   3.843  0.00  0.00    -0.019 C 
ATOM     12  C   UNL     1       1.679  -0.558   4.125  0.00  0.00    -0.004 C 
ATOM     13  C   UNL     1       2.555  -0.737   2.882  0.00  0.00    -0.019 C 
ATOM     14  C   UNL     1       1.880  -0.061   1.687  0.00  0.00    -0.078 C 
ATOM     15  H   UNL     1       0.678  -1.664   1.311  0.00  0.00    -0.081 HD
ENDBRANCH   8   9
ENDBRANCH   6   8
ENDBRANCH   2   6
ENDBRANCH   1   3
BRANCH   1  16
ATOM     16  N   UNL     1      -3.087  -5.282  -0.775  0.00  0.00    -0.300 N 
ATOM     17  C   UNL     1      -3.176  -6.587  -0.452  0.00  0.00    +0.246 C 
ATOM     18  O   UNL     1      -2.207  -7.170  -0.006  0.00  0.00    -0.270 OA
ATOM     19  H   UNL     1      -3.861  -4.817  -1.131  0.00  0.00    +0.150 HD
BRANCH  17  20
ATOM     20  C   UNL     1      -4.451  -7.310  -0.639  0.00  0.00    +0.051 A 
ATOM     21  C   UNL     1      -5.565  -6.646  -1.156  0.00  0.00    +0.014 A 
ATOM     22  C   UNL     1      -6.752  -7.326  -1.328  0.00  0.00    +0.001 A 
ATOM     23  C   UNL     1      -6.841  -8.665  -0.990  0.00  0.00    +0.001 A 
ATOM     24  C   UNL     1      -5.743  -9.331  -0.477  0.00  0.00    +0.016 A 
ATOM     25  C   UNL     1      -4.546  -8.663  -0.305  0.00  0.00    +0.030 A 
ATOM     26 BR   UNL     1      -3.043  -9.576   0.389  0.00  0.00    -0.050 Br
ENDBRANCH  17  20
ENDBRANCH   1  16
BRANCH   1  27
ATOM     27  C   UNL     1      -0.932  -4.778  -1.815  0.00  0.00    +0.042 C 
BRANCH  27  28
ATOM     28  C   UNL     1      -0.548  -6.256  -1.916  0.00  0.00    +0.071 C 
BRANCH  28  29
ATOM     29  S   UNL     1       0.508  -6.508  -3.369  0.00  0.00    -0.164 S 
ATOM     30  C   UNL     1       0.869  -8.286  -3.345  0.00  0.00    +0.084 C 
ENDBRANCH  28  29
ENDBRANCH  27  28
ENDBRANCH   1  27
TORSDOF 9
