REMARK  Name = ZINC38989937
REMARK  4 active torsions:
REMARK  status: ('A' for Active; 'I' for Inactive)
REMARK    1  A    between atoms: C_1  and  C_2
REMARK    2  A    between atoms: C_6  and  C_8
REMARK    3  A    between atoms: N_9  and  N_10
REMARK    4  A    between atoms: C_11  and  C_17
REMARK                            x       y       z     vdW  Elec       q    Type
REMARK                         _______ _______ _______ _____ _____    ______ ____
ROOT
ATOM      1  N   UNL     1       0.193  -4.854   3.642  0.00  0.00    -0.172 N 
ATOM      2  C   UNL     1       0.338  -6.311   3.818  0.00  0.00    +0.265 C 
ATOM      3  N   UNL     1       0.421  -6.483   5.277  0.00  0.00    -0.189 NA
ATOM      4  N   UNL     1       0.340  -5.368   5.800  0.00  0.00    -0.219 N 
ATOM      5  C   UNL     1       0.209  -4.357   4.899  0.00  0.00    +0.174 C 
ATOM      6  S   UNL     1       0.079  -2.698   5.299  0.00  0.00    -0.015 S 
ATOM      7  H   UNL     1       0.370  -5.226   6.759  0.00  0.00    +0.176 HD
ENDROOT
BRANCH   2   8
ATOM      8  C   UNL     1       1.598  -6.801   3.152  0.00  0.00    +0.016 A 
ATOM      9  C   UNL     1       2.148  -6.088   2.103  0.00  0.00    +0.009 A 
ATOM     10  C   UNL     1       3.304  -6.538   1.493  0.00  0.00    +0.000 A 
ATOM     11  C   UNL     1       3.910  -7.700   1.930  0.00  0.00    +0.001 A 
ATOM     12  C   UNL     1       3.361  -8.414   2.979  0.00  0.00    +0.020 A 
ATOM     13  C   UNL     1       2.207  -7.962   3.594  0.00  0.00    +0.048 A 
ATOM     14 CL   UNL     1       1.521  -8.854   4.916  0.00  0.00    -0.083 Cl
ENDBRANCH   2   8
BRANCH   1  16
ATOM     15  C   UNL     1      -0.157  -2.865   2.463  0.00  0.00    +0.138 C 
ATOM     16  N   UNL     1       0.071  -4.143   2.441  0.00  0.00    -0.183 NA
BRANCH  15  22
ATOM     17  C   UNL     1      -0.708   1.471   0.061  0.00  0.00    +0.044 C 
ATOM     18  C   UNL     1      -0.444  -0.012   0.042  0.00  0.00    -0.050 A 
ATOM     19  C   UNL     1      -0.220  -0.658  -1.162  0.00  0.00    +0.003 A 
ATOM     20  C   UNL     1       0.024  -2.020  -1.189  0.00  0.00    +0.001 A 
ATOM     21  C   UNL     1       0.046  -2.744  -0.015  0.00  0.00    +0.009 A 
ATOM     22  C   UNL     1      -0.179  -2.098   1.204  0.00  0.00    -0.005 A 
ATOM     23  C   UNL     1      -0.419  -0.722   1.224  0.00  0.00    +0.012 A 
ENDBRANCH  15  22
ENDBRANCH   1  16
TORSDOF 3
