REMARK  Name = ZINC03526972
REMARK  7 active torsions:
REMARK  status: ('A' for Active; 'I' for Inactive)
REMARK    1  A    between atoms: C_1  and  C_2
REMARK    2  A    between atoms: C_5  and  C_25
REMARK    3  A    between atoms: C_6  and  S_8
REMARK    4  A    between atoms: S_8  and  N_11
REMARK    5  A    between atoms: N_11  and  N_12
REMARK    6  A    between atoms: C_13  and  C_14
REMARK    7  A    between atoms: C_23  and  O_24
REMARK                            x       y       z     vdW  Elec       q    Type
REMARK                         _______ _______ _______ _____ _____    ______ ____
ROOT
ATOM      1  N   UNL     1       1.100   1.574   0.061  0.00  0.00    -0.174 NA
ATOM      2  C   UNL     1       0.050   0.815   0.160  0.00  0.00    +0.143 C 
ENDROOT
BRANCH   2   3
ATOM      3  C   UNL     1      -1.277   1.345  -0.187  0.00  0.00    +0.044 A 
ATOM      4  C   UNL     1      -2.482   0.553   0.047  0.00  0.00    -0.006 A 
ATOM      5  C   UNL     1      -2.416  -0.730   0.606  0.00  0.00    +0.009 A 
ATOM      6  C   UNL     1      -3.564  -1.436   0.808  0.00  0.00    +0.001 A 
ATOM      7  C   UNL     1      -4.804  -0.899   0.467  0.00  0.00    +0.001 A 
ATOM      8  C   UNL     1      -4.904   0.344  -0.078  0.00  0.00    +0.008 A 
ATOM      9  C   UNL     1      -3.741   1.101  -0.301  0.00  0.00    -0.017 A 
ATOM     10  C   UNL     1      -3.804   2.389  -0.862  0.00  0.00    +0.012 A 
ATOM     11  C   UNL     1      -2.672   3.112  -1.072  0.00  0.00    +0.046 A 
ATOM     12  C   UNL     1      -1.412   2.617  -0.741  0.00  0.00    +0.126 A 
BRANCH  12  13
ATOM     13  O   UNL     1      -0.309   3.377  -0.965  0.00  0.00    -0.506 OA
ATOM     14  H   UNL     1       0.084   3.252  -1.839  0.00  0.00    +0.292 HD
ENDBRANCH  12  13
ENDBRANCH   2   3
BRANCH   1  15
ATOM     15  N   UNL     1       2.378   1.029   0.237  0.00  0.00    -0.137 N 
ATOM     16  H   UNL     1       2.487   0.070   0.338  0.00  0.00    +0.197 HD
BRANCH  15  17
ATOM     17  S   UNL     1       3.704   2.021   0.274  0.00  0.00    +0.087 S 
ATOM     18  O   UNL     1       4.833   1.183   0.478  0.00  0.00    -0.149 OA
ATOM     19  O   UNL     1       3.592   2.889  -0.846  0.00  0.00    -0.149 OA
BRANCH  17  25
ATOM     20  C   UNL     1       5.340   3.534   5.001  0.00  0.00    +0.044 C 
ATOM     21  C   UNL     1       4.353   3.684   3.873  0.00  0.00    -0.049 A 
ATOM     22  C   UNL     1       3.333   4.613   3.966  0.00  0.00    +0.004 A 
ATOM     23  C   UNL     1       2.426   4.750   2.932  0.00  0.00    +0.005 A 
ATOM     24  C   UNL     1       2.540   3.958   1.804  0.00  0.00    -0.024 A 
ATOM     25  C   UNL     1       3.559   3.030   1.711  0.00  0.00    +0.113 A 
ATOM     26  C   UNL     1       4.463   2.890   2.748  0.00  0.00    +0.032 A 
ATOM     27  C   UNL     1       1.551   4.107   0.676  0.00  0.00    +0.046 C 
ENDBRANCH  17  25
ENDBRANCH  15  17
ENDBRANCH   1  15
TORSDOF 5
