REMARK  Name = ZINC13940440
REMARK  6 active torsions:
REMARK  status: ('A' for Active; 'I' for Inactive)
REMARK    1  A    between atoms: C_1  and  C_2
REMARK    2  A    between atoms: C_5  and  S_8
REMARK    3  A    between atoms: S_8  and  O_11
REMARK    4  A    between atoms: O_11  and  C_12
REMARK    5  A    between atoms: C_17  and  C_18
REMARK    6  A    between atoms: N_22  and  C_26
REMARK                            x       y       z     vdW  Elec       q    Type
REMARK                         _______ _______ _______ _____ _____    ______ ____
ROOT
ATOM      1  C   UNL     1      -3.054   6.913   0.207  0.00  0.00    +0.164 A 
ATOM      2  C   UNL     1      -4.425   7.097   0.278  0.00  0.00    +0.050 A 
ATOM      3  C   UNL     1      -5.268   6.005   0.363  0.00  0.00    +0.024 A 
ATOM      4  C   UNL     1      -4.751   4.718   0.378  0.00  0.00    +0.042 A 
ATOM      5  C   UNL     1      -3.390   4.515   0.303  0.00  0.00    +0.031 A 
ATOM      6  C   UNL     1      -2.524   5.612   0.222  0.00  0.00    +0.022 A 
ATOM      7 CL   UNL     1      -5.824   3.357   0.485  0.00  0.00    -0.084 Cl
ENDROOT
BRANCH   6   8
ATOM      8  C   UNL     1      -1.073   5.405   0.147  0.00  0.00    +0.032 C 
ATOM      9  C   UNL     1      -0.578   4.189  -0.199  0.00  0.00    +0.078 C 
ATOM     10  C   UNL     1       0.812   3.693  -0.162  0.00  0.00    +0.263 C 
ATOM     11  O   UNL     1       1.731   4.395   0.218  0.00  0.00    -0.269 OA
ATOM     12  N   UNL     1       1.008   2.448  -0.562  0.00  0.00    -0.224 N 
ATOM     13  C   UNL     1      -0.013   1.674  -0.982  0.00  0.00    +0.125 C 
ATOM     14  S   UNL     1       0.038   0.054  -1.533  0.00  0.00    -0.027 S 
ATOM     15  S   UNL     1      -1.430   2.749  -0.830  0.00  0.00    -0.061 S 
BRANCH  12  16
ATOM     16  C   UNL     1       2.307   1.921  -0.549  0.00  0.00    +0.043 A 
ATOM     17  C   UNL     1       2.651   0.942   0.373  0.00  0.00    +0.024 A 
ATOM     18  C   UNL     1       3.931   0.422   0.381  0.00  0.00    +0.002 A 
ATOM     19  C   UNL     1       4.871   0.883  -0.522  0.00  0.00    +0.000 A 
ATOM     20  C   UNL     1       4.532   1.861  -1.439  0.00  0.00    +0.002 A 
ATOM     21  C   UNL     1       3.253   2.382  -1.454  0.00  0.00    +0.024 A 
ENDBRANCH  12  16
ENDBRANCH   6   8
BRANCH   1  22
ATOM     22  O   UNL     1      -2.226   7.985   0.123  0.00  0.00    -0.342 OA
BRANCH  22  23
ATOM     23  S   UNL     1      -1.926   8.426  -1.302  0.00  0.00    +0.151 S 
ATOM     24  O   UNL     1      -0.900   9.405  -1.217  0.00  0.00    -0.131 OA
ATOM     25  O   UNL     1      -1.786   7.241  -2.073  0.00  0.00    -0.131 OA
BRANCH  23  30
ATOM     26  C   UNL     1      -6.841  11.254  -3.365  0.00  0.00    +0.044 C 
ATOM     27  C   UNL     1      -5.613  10.548  -2.851  0.00  0.00    -0.050 A 
ATOM     28  C   UNL     1      -4.624  11.264  -2.203  0.00  0.00    +0.005 A 
ATOM     29  C   UNL     1      -3.498  10.616  -1.730  0.00  0.00    +0.031 A 
ATOM     30  C   UNL     1      -3.361   9.252  -1.905  0.00  0.00    +0.128 A 
ATOM     31  C   UNL     1      -4.347   8.536  -2.558  0.00  0.00    +0.031 A 
ATOM     32  C   UNL     1      -5.475   9.183  -3.027  0.00  0.00    +0.005 A 
ENDBRANCH  23  30
ENDBRANCH  22  23
ENDBRANCH   1  22
TORSDOF 5
