REMARK  Name = ZINC57534275
REMARK  3 active torsions:
REMARK  status: ('A' for Active; 'I' for Inactive)
REMARK    1  A    between atoms: C_1  and  C_2
REMARK    2  A    between atoms: C_2  and  C_3
REMARK    3  A    between atoms: C_2  and  C_4
REMARK                            x       y       z     vdW  Elec       q    Type
REMARK                         _______ _______ _______ _____ _____    ______ ____
ROOT
ATOM      1  C   UNL     1      -1.412  -0.526   0.013  0.00  0.00    -0.044 A 
ATOM      2  C   UNL     1      -2.259  -0.203   1.058  0.00  0.00    +0.004 A 
ATOM      3  C   UNL     1      -3.557  -0.681   1.082  0.00  0.00    +0.005 A 
ATOM      4  C   UNL     1      -4.015  -1.482   0.057  0.00  0.00    -0.028 A 
ATOM      5  C   UNL     1      -3.168  -1.801  -1.006  0.00  0.00    +0.041 A 
ATOM      6  C   UNL     1      -1.861  -1.320  -1.024  0.00  0.00    +0.017 A 
ATOM      7  C   UNL     1      -3.688  -2.629  -2.115  0.00  0.00    +0.244 C 
ATOM      8  O   UNL     1      -2.926  -3.103  -2.935  0.00  0.00    -0.270 OA
ATOM      9  N   UNL     1      -5.012  -2.855  -2.209  0.00  0.00    -0.310 N 
ATOM     10  C   UNL     1      -5.962  -2.158  -1.344  0.00  0.00    +0.116 C 
ATOM     11  C   UNL     1      -5.416  -2.028   0.074  0.00  0.00    +0.012 C 
ATOM     12  C   UNL     1      -6.325  -1.095   0.897  0.00  0.00    +0.013 C 
ATOM     13  C   UNL     1      -7.282  -2.059   1.642  0.00  0.00    +0.001 C 
ATOM     14  C   UNL     1      -6.357  -3.249   2.001  0.00  0.00    +0.001 C 
ATOM     15  C   UNL     1      -5.436  -3.396   0.772  0.00  0.00    +0.013 C 
ATOM     16  H   UNL     1      -5.341  -3.491  -2.863  0.00  0.00    +0.149 HD
ENDROOT
BRANCH   1  18
ATOM     17  C   UNL     1      -0.019   1.526   0.010  0.00  0.00    +0.012 C 
ATOM     18  C   UNL     1       0.002  -0.004   0.002  0.00  0.00    +0.013 C 
ATOM     19  C   UNL     1       0.742  -0.511   1.242  0.00  0.00    +0.012 C 
ENDBRANCH   1  18
TORSDOF 1
