REMARK  Name = ZINC16007386
REMARK  4 active torsions:
REMARK  status: ('A' for Active; 'I' for Inactive)
REMARK    1  A    between atoms: C_12  and  C_16
REMARK    2  A    between atoms: N_18  and  C_19
REMARK    3  A    between atoms: C_19  and  C_20
REMARK    4  A    between atoms: C_20  and  C_21
REMARK                            x       y       z     vdW  Elec       q    Type
REMARK                         _______ _______ _______ _____ _____    ______ ____
ROOT
ATOM      1  C   UNL     1      -2.407   1.366   0.059  0.00  0.00    +0.000 A 
ATOM      2  C   UNL     1      -2.399  -0.018   0.063  0.00  0.00    +0.001 A 
ATOM      3  C   UNL     1      -1.204  -0.706   0.035  0.00  0.00    +0.013 A 
ATOM      4  C   UNL     1       0.002  -0.004   0.002  0.00  0.00    +0.043 A 
ATOM      5  C   UNL     1      -0.017   1.394   0.010  0.00  0.00    -0.005 A 
ATOM      6  C   UNL     1      -1.215   2.070   0.032  0.00  0.00    +0.007 A 
ATOM      7  C   UNL     1       1.420   1.828  -0.002  0.00  0.00    +0.166 C 
ATOM      8  N   UNL     1       2.206   0.606  -0.344  0.00  0.00    -0.269 N 
ATOM      9  C   UNL     1       1.410  -0.444  -0.050  0.00  0.00    +0.249 C 
ATOM     10  O   UNL     1       1.795  -1.581   0.143  0.00  0.00    -0.270 OA
ATOM     11  C   UNL     1       3.517   0.957  -0.893  0.00  0.00    +0.173 C 
ATOM     12  C   UNL     1       3.494   2.227  -1.777  0.00  0.00    +0.103 C 
ATOM     13  S   UNL     1       1.775   2.840  -1.501  0.00  0.00    -0.131 S 
ENDROOT
BRANCH  11  14
ATOM     14  C   UNL     1       4.019  -0.199  -1.721  0.00  0.00    +0.234 C 
ATOM     15  O   UNL     1       3.346  -1.202  -1.833  0.00  0.00    -0.274 OA
ATOM     16  N   UNL     1       5.215  -0.117  -2.336  0.00  0.00    -0.313 N 
ATOM     17  H   UNL     1       5.753   0.685  -2.246  0.00  0.00    +0.149 HD
BRANCH  16  18
ATOM     18  C   UNL     1       5.703  -1.240  -3.140  0.00  0.00    +0.109 C 
BRANCH  18  19
ATOM     19  C   UNL     1       7.074  -0.892  -3.723  0.00  0.00    +0.054 C 
BRANCH  19  20
ATOM     20  C   UNL     1       7.576  -2.048  -4.551  0.00  0.00    -0.046 A 
ATOM     21  C   UNL     1       8.341  -3.038  -3.962  0.00  0.00    +0.005 A 
ATOM     22  C   UNL     1       8.796  -4.101  -4.719  0.00  0.00    +0.020 A 
ATOM     23  C   UNL     1       8.497  -4.168  -6.069  0.00  0.00    +0.041 A 
ATOM     24  C   UNL     1       7.736  -3.174  -6.658  0.00  0.00    +0.020 A 
ATOM     25  C   UNL     1       7.276  -2.114  -5.899  0.00  0.00    +0.005 A 
ATOM     26 CL   UNL     1       9.075  -5.498  -7.021  0.00  0.00    -0.084 Cl
ENDBRANCH  19  20
ENDBRANCH  18  19
ENDBRANCH  16  18
ENDBRANCH  11  14
TORSDOF 4
