REMARK  Name = ZINC40687772
REMARK  6 active torsions:
REMARK  status: ('A' for Active; 'I' for Inactive)
REMARK    1  A    between atoms: C_1  and  C_2
REMARK    2  A    between atoms: C_9  and  O_12
REMARK    3  A    between atoms: O_12  and  C_13
REMARK    4  A    between atoms: C_14  and  N_30
REMARK    5  A    between atoms: C_15  and  O_19
REMARK    6  A    between atoms: O_19  and  C_20
REMARK                            x       y       z     vdW  Elec       q    Type
REMARK                         _______ _______ _______ _____ _____    ______ ____
ROOT
ATOM      1  C   UNL     1      -0.290  -2.708   4.733  0.00  0.00    +0.248 A 
ATOM      2  C   UNL     1      -0.277  -2.041   5.959  0.00  0.00    +0.150 A 
ATOM      3  C   UNL     1      -0.380  -2.802   7.124  0.00  0.00    +0.248 A 
ATOM      4  N   UNL     1      -0.486  -4.123   7.024  0.00  0.00    -0.199 NA
ATOM      5  C   UNL     1      -0.494  -4.714   5.846  0.00  0.00    +0.229 A 
ATOM      6  N   UNL     1      -0.405  -4.032   4.722  0.00  0.00    -0.199 NA
ENDROOT
BRANCH   2   7
ATOM      7  N   UNL     1      -0.163  -0.644   6.019  0.00  0.00    -0.350 N 
ATOM      8  H   UNL     1      -0.092  -0.128   5.201  0.00  0.00    +0.143 HD
ATOM      9  H   UNL     1      -0.155  -0.195   6.878  0.00  0.00    +0.143 HD
ENDBRANCH   2   7
BRANCH   1  10
ATOM     10  O   UNL     1      -0.194  -2.014   3.572  0.00  0.00    -0.434 OA
BRANCH  10  19
ATOM     11  C   UNL     1      -5.104  -2.568   2.851  0.00  0.00    +0.065 C 
ATOM     12  C   UNL     1      -3.880  -2.991   2.080  0.00  0.00    +0.039 A 
ATOM     13  C   UNL     1      -4.039  -3.697   0.890  0.00  0.00    +0.023 A 
ATOM     14  C   UNL     1      -2.941  -4.088   0.178  0.00  0.00    +0.012 A 
ATOM     15  C   UNL     1      -1.669  -3.756   0.683  0.00  0.00    +0.004 A 
ATOM     16  C   UNL     1      -0.495  -4.124   0.006  0.00  0.00    +0.010 A 
ATOM     17  C   UNL     1       0.718  -3.786   0.524  0.00  0.00    +0.004 A 
ATOM     18  C   UNL     1       0.813  -3.078   1.720  0.00  0.00    +0.048 A 
ATOM     19  C   UNL     1      -0.306  -2.704   2.406  0.00  0.00    +0.156 A 
ATOM     20  C   UNL     1      -1.580  -3.037   1.899  0.00  0.00    +0.113 A 
ATOM     21  N   UNL     1      -2.694  -2.679   2.544  0.00  0.00    -0.248 NA
ENDBRANCH  10  19
ENDBRANCH   1  10
BRANCH   3  22
ATOM     22  O   UNL     1      -0.371  -2.203   8.341  0.00  0.00    -0.436 OA
BRANCH  22  23
ATOM     23  C   UNL     1      -0.350  -2.997   9.443  0.00  0.00    +0.131 A 
ATOM     24  C   UNL     1       0.813  -3.705   9.762  0.00  0.00    +0.047 A 
ATOM     25  C   UNL     1       0.865  -4.508  10.858  0.00  0.00    +0.012 A 
ATOM     26  C   UNL     1      -0.265  -4.631  11.686  0.00  0.00    -0.018 A 
ATOM     27  C   UNL     1      -0.245  -5.451  12.827  0.00  0.00    +0.008 A 
ATOM     28  C   UNL     1      -1.357  -5.547  13.607  0.00  0.00    +0.001 A 
ATOM     29  C   UNL     1      -2.517  -4.842  13.292  0.00  0.00    +0.001 A 
ATOM     30  C   UNL     1      -2.573  -4.038  12.195  0.00  0.00    +0.008 A 
ATOM     31  C   UNL     1      -1.445  -3.914  11.366  0.00  0.00    -0.014 A 
ATOM     32  C   UNL     1      -1.464  -3.089  10.229  0.00  0.00    +0.054 A 
ENDBRANCH  22  23
ENDBRANCH   3  22
TORSDOF 5
