REMARK  Name = ZINC15987297
REMARK  4 active torsions:
REMARK  status: ('A' for Active; 'I' for Inactive)
REMARK    1  A    between atoms: C_1  and  C_2
REMARK    2  A    between atoms: C_2  and  C_3
REMARK    3  A    between atoms: C_2  and  C_4
REMARK    4  A    between atoms: N_12  and  C_15
REMARK                            x       y       z     vdW  Elec       q    Type
REMARK                         _______ _______ _______ _____ _____    ______ ____
ROOT
ATOM      1  C   UNL     1      -1.508   0.237   0.041  0.00  0.00    +0.070 C 
ATOM      2  C   UNL     1      -2.258  -1.040   0.408  0.00  0.00    +0.107 C 
ATOM      3  C   UNL     1      -2.016  -1.815  -0.940  0.00  0.00    +0.123 C 
ATOM      4  C   UNL     1      -2.348  -3.170  -0.573  0.00  0.00    +0.233 C 
ATOM      5  O   UNL     1      -2.846  -4.024  -1.274  0.00  0.00    -0.274 OA
ATOM      6  N   UNL     1      -1.976  -3.280   0.745  0.00  0.00    -0.210 N 
ATOM      7  C   UNL     1      -1.657  -2.063   1.319  0.00  0.00    +0.232 C 
ATOM      8  O   UNL     1      -1.025  -1.861   2.333  0.00  0.00    -0.274 OA
ATOM      9  C   UNL     1      -2.191  -0.828  -2.002  0.00  0.00    +0.136 C 
ATOM     10  N   UNL     1      -2.047   0.513  -1.338  0.00  0.00    -0.295 NA
ATOM     11  C   UNL     1      -1.179  -0.918  -3.117  0.00  0.00    +0.003 A 
ATOM     12  C   UNL     1       0.197  -0.912  -3.141  0.00  0.00    +0.008 A 
ATOM     13  C   UNL     1       0.868  -1.009  -4.348  0.00  0.00    +0.000 A 
ATOM     14  C   UNL     1       0.152  -1.113  -5.527  0.00  0.00    +0.002 A 
ATOM     15  C   UNL     1      -1.227  -1.120  -5.506  0.00  0.00    +0.023 A 
ATOM     16  C   UNL     1      -1.910  -1.023  -4.295  0.00  0.00    +0.039 A 
ATOM     17  N   UNL     1      -3.278  -1.009  -4.018  0.00  0.00    -0.283 N 
ATOM     18  C   UNL     1      -3.528  -0.898  -2.701  0.00  0.00    +0.243 C 
ATOM     19  O   UNL     1      -4.621  -0.861  -2.176  0.00  0.00    -0.273 OA
ATOM     20  H   UNL     1      -2.939   0.983  -1.290  0.00  0.00    +0.124 HD
ATOM     21  H   UNL     1      -3.968  -1.072  -4.697  0.00  0.00    +0.155 HD
ENDROOT
BRANCH   6  22
ATOM     22  C   UNL     1      -1.936  -4.496   1.443  0.00  0.00    +0.044 A 
ATOM     23  C   UNL     1      -2.278  -5.678   0.800  0.00  0.00    +0.025 A 
ATOM     24  C   UNL     1      -2.237  -6.874   1.490  0.00  0.00    +0.017 A 
ATOM     25  C   UNL     1      -1.856  -6.895   2.820  0.00  0.00    +0.018 A 
ATOM     26  C   UNL     1      -1.514  -5.718   3.462  0.00  0.00    +0.017 A 
ATOM     27  C   UNL     1      -1.548  -4.520   2.776  0.00  0.00    +0.025 A 
ATOM     28 BR   UNL     1      -1.802  -8.534   3.760  0.00  0.00    -0.050 Br
ENDBRANCH   6  22
BRANCH   1  30
ATOM     29  C   UNL     1       0.690   1.178  -0.684  0.00  0.00    +0.009 C 
ATOM     30  C   UNL     1       0.002  -0.004   0.002  0.00  0.00    +0.001 C 
ATOM     31  C   UNL     1       0.533  -0.145   1.430  0.00  0.00    +0.009 C 
ENDBRANCH   1  30
TORSDOF 2
