REMARK  Name = ZINC05034745
REMARK  5 active torsions:
REMARK  status: ('A' for Active; 'I' for Inactive)
REMARK    1  A    between atoms: C_3  and  O_25
REMARK    2  A    between atoms: C_4  and  C_8
REMARK    3  A    between atoms: N_9  and  N_10
REMARK    4  A    between atoms: N_10  and  C_11
REMARK    5  A    between atoms: C_14  and  C_19
REMARK                            x       y       z     vdW  Elec       q    Type
REMARK                         _______ _______ _______ _____ _____    ______ ____
ROOT
ATOM      1  C   UNL     1       7.231   0.010  -0.069  0.00  0.00    +0.124 A 
ATOM      2  C   UNL     1       7.229   1.368  -0.367  0.00  0.00    +0.184 A 
ATOM      3  C   UNL     1       8.420   2.075  -0.374  0.00  0.00    +0.175 A 
ATOM      4  C   UNL     1       9.611   1.431  -0.084  0.00  0.00    +0.131 A 
ATOM      5  C   UNL     1       9.616   0.078   0.214  0.00  0.00    +0.175 A 
ATOM      6  C   UNL     1       8.428  -0.633   0.228  0.00  0.00    +0.184 A 
ATOM      7  F   UNL     1       8.432  -1.951   0.524  0.00  0.00    -0.200 F 
ATOM      8  F   UNL     1      10.780  -0.546   0.497  0.00  0.00    -0.202 F 
ATOM      9  F   UNL     1       8.420   3.394  -0.664  0.00  0.00    -0.202 F 
ATOM     10  F   UNL     1       6.068   1.997  -0.651  0.00  0.00    -0.200 F 
ENDROOT
BRANCH   4  11
ATOM     11  C   UNL     1      10.905   2.203  -0.092  0.00  0.00    +0.423 C 
ATOM     12  F   UNL     1      11.146   2.724   1.184  0.00  0.00    -0.166 F 
ATOM     13  F   UNL     1      11.954   1.351  -0.454  0.00  0.00    -0.166 F 
ATOM     14  F   UNL     1      10.816   3.252  -1.014  0.00  0.00    -0.166 F 
ENDBRANCH   4  11
BRANCH   1  15
ATOM     15  N   UNL     1       6.030  -0.707  -0.060  0.00  0.00    -0.232 N 
ATOM     16  H   UNL     1       6.044  -1.677  -0.066  0.00  0.00    +0.175 HD
BRANCH  15  18
ATOM     17  C   UNL     1       3.692  -0.690  -0.037  0.00  0.00    +0.141 C 
ATOM     18  N   UNL     1       4.807  -0.024  -0.045  0.00  0.00    -0.190 NA
BRANCH  17  22
ATOM     19  C   UNL     1      -0.017   1.381   0.010  0.00  0.00    +0.023 A 
ATOM     20  C   UNL     1       1.167   2.096   0.002  0.00  0.00    +0.047 A 
ATOM     21  C   UNL     1       2.381   1.430  -0.013  0.00  0.00    +0.126 A 
ATOM     22  C   UNL     1       2.405   0.029  -0.021  0.00  0.00    +0.037 A 
ATOM     23  C   UNL     1       1.204  -0.683  -0.013  0.00  0.00    +0.033 A 
ATOM     24  C   UNL     1       0.002  -0.004   0.002  0.00  0.00    +0.042 A 
ATOM     25 CL   UNL     1      -1.491  -0.889   0.011  0.00  0.00    -0.084 Cl
BRANCH  21  26
ATOM     26  O   UNL     1       3.543   2.133  -0.021  0.00  0.00    -0.506 OA
ATOM     27  H   UNL     1       3.889   2.332   0.860  0.00  0.00    +0.292 HD
ENDBRANCH  21  26
ENDBRANCH  17  22
ENDBRANCH  15  18
ENDBRANCH   1  15
TORSDOF 5
