REMARK  Name = ZINC41924369
REMARK  7 active torsions:
REMARK  status: ('A' for Active; 'I' for Inactive)
REMARK    1  A    between atoms: C_1  and  C_2
REMARK    2  A    between atoms: C_3  and  C_26
REMARK    3  A    between atoms: C_7  and  N_8
REMARK    4  A    between atoms: C_9  and  C_11
REMARK    5  A    between atoms: N_13  and  C_14
REMARK    6  A    between atoms: C_14  and  C_16
REMARK    7  A    between atoms: C_14  and  C_21
REMARK                            x       y       z     vdW  Elec       q    Type
REMARK                         _______ _______ _______ _____ _____    ______ ____
ROOT
ATOM      1  N   UNL     1       0.135   0.086   2.417  0.00  0.00    -0.277 N 
ATOM      2  C   UNL     1       0.340  -0.569   3.577  0.00  0.00    +0.303 C 
ATOM      3  O   UNL     1       0.386  -1.782   3.588  0.00  0.00    -0.265 OA
ATOM      4  H   UNL     1       0.023   1.050   2.418  0.00  0.00    +0.155 HD
ENDROOT
BRANCH   1  11
ATOM      5  C   UNL     1      -1.157   1.306   0.198  0.00  0.00    +0.046 C 
ATOM      6  C   UNL     1      -0.536  -0.064   0.106  0.00  0.00    -0.017 A 
ATOM      7  C   UNL     1      -0.578  -0.773  -1.094  0.00  0.00    +0.041 A 
ATOM      8  C   UNL     1      -0.001  -2.041  -1.171  0.00  0.00    +0.013 A 
ATOM      9  C   UNL     1       0.610  -2.590  -0.062  0.00  0.00    +0.003 A 
ATOM     10  C   UNL     1       0.652  -1.889   1.128  0.00  0.00    +0.023 A 
ATOM     11  C   UNL     1       0.085  -0.622   1.214  0.00  0.00    +0.037 A 
BRANCH   7  12
ATOM     12  C   UNL     1      -1.234  -0.183  -2.281  0.00  0.00    +0.242 C 
ATOM     13  O   UNL     1      -1.624   0.968  -2.251  0.00  0.00    -0.270 OA
ATOM     14  N   UNL     1      -1.398  -0.921  -3.397  0.00  0.00    -0.325 N 
ATOM     15  H   UNL     1      -1.087  -1.839  -3.421  0.00  0.00    +0.145 HD
ATOM     16  H   UNL     1      -1.828  -0.534  -4.175  0.00  0.00    +0.145 HD
ENDBRANCH   7  12
ENDBRANCH   1  11
BRANCH   2  17
ATOM     17  C   UNL     1       0.509   0.197   4.848  0.00  0.00    +0.300 C 
ATOM     18  O   UNL     1       0.463   1.409   4.837  0.00  0.00    -0.265 OA
ATOM     19  N   UNL     1       0.714  -0.459   6.008  0.00  0.00    -0.300 N 
ATOM     20  H   UNL     1       0.751  -1.428   6.017  0.00  0.00    +0.150 HD
BRANCH  19  21
ATOM     21  C   UNL     1       0.880   0.292   7.254  0.00  0.00    +0.113 C 
BRANCH  21  22
ATOM     22  C   UNL     1       2.321   0.708   7.402  0.00  0.00    +0.010 A 
ATOM     23  C   UNL     1       2.829   1.877   7.862  0.00  0.00    +0.013 A 
ATOM     24  C   UNL     1       4.201   2.038   7.910  0.00  0.00    +0.008 A 
ATOM     25  C   UNL     1       4.998   1.022   7.497  0.00  0.00    +0.045 A 
ATOM     26  S   UNL     1       3.801  -0.216   7.025  0.00  0.00    -0.100 S 
ENDBRANCH  21  22
BRANCH  21  27
ATOM     27  C   UNL     1       0.479  -0.590   8.438  0.00  0.00    +0.014 C 
ATOM     28  C   UNL     1       1.320  -1.883   8.442  0.00  0.00    +0.006 C 
ATOM     29  C   UNL     1       0.331  -2.978   8.914  0.00  0.00    +0.000 C 
ATOM     30  C   UNL     1      -0.993  -2.562   8.225  0.00  0.00    +0.000 C 
ATOM     31  C   UNL     1      -0.991  -1.022   8.300  0.00  0.00    +0.006 C 
ENDBRANCH  21  27
ENDBRANCH  19  21
ENDBRANCH   2  17
TORSDOF 6
