REMARK  Name = ZINC67017720
REMARK  8 active torsions:
REMARK  status: ('A' for Active; 'I' for Inactive)
REMARK    1  A    between atoms: C_1  and  C_2
REMARK    2  A    between atoms: C_2  and  C_4
REMARK    3  A    between atoms: C_2  and  N_16
REMARK    4  A    between atoms: C_8  and  S_10
REMARK    5  A    between atoms: S_10  and  N_13
REMARK    6  A    between atoms: N_13  and  C_14
REMARK    7  A    between atoms: N_13  and  C_15
REMARK    8  A    between atoms: N_19  and  C_20
REMARK                            x       y       z     vdW  Elec       q    Type
REMARK                         _______ _______ _______ _____ _____    ______ ____
ROOT
ATOM      1  C   UNL     1      -0.014   1.517   0.017  0.00  0.00    +0.033 C 
ATOM      2  C   UNL     1       0.005  -0.013   0.001  0.00  0.00    +0.102 C 
ENDROOT
BRANCH   2   3
ATOM      3  C   UNL     1       0.736  -0.518   1.218  0.00  0.00    -0.026 A 
ATOM      4  C   UNL     1       0.088  -0.579   2.438  0.00  0.00    +0.005 A 
ATOM      5  C   UNL     1       0.758  -1.042   3.554  0.00  0.00    +0.002 A 
ATOM      6  C   UNL     1       2.076  -1.446   3.451  0.00  0.00    +0.028 A 
ATOM      7  C   UNL     1       2.724  -1.387   2.231  0.00  0.00    +0.106 A 
ATOM      8  C   UNL     1       2.052  -0.927   1.114  0.00  0.00    +0.034 A 
BRANCH   7   9
ATOM      9  S   UNL     1       4.404  -1.901   2.099  0.00  0.00    +0.060 S 
ATOM     10  O   UNL     1       4.945  -1.235   0.967  0.00  0.00    -0.153 OA
ATOM     11  O   UNL     1       4.969  -1.778   3.397  0.00  0.00    -0.153 OA
BRANCH   9  12
ATOM     12  N   UNL     1       4.395  -3.517   1.738  0.00  0.00    -0.183 NA
ATOM     13  C   UNL     1       4.378  -3.955   0.340  0.00  0.00    +0.131 C 
ATOM     14  C   UNL     1       4.403  -4.509   2.816  0.00  0.00    +0.131 C 
ENDBRANCH   9  12
ENDBRANCH   7   9
ENDBRANCH   2   3
BRANCH   2  15
ATOM     15  N   UNL     1      -1.370  -0.518   0.011  0.00  0.00    -0.293 N 
ATOM     16  C   UNL     1      -2.050  -0.644  -1.145  0.00  0.00    +0.304 C 
ATOM     17  O   UNL     1      -1.524  -0.337  -2.197  0.00  0.00    -0.252 OA
ATOM     18  N   UNL     1      -3.315  -1.109  -1.135  0.00  0.00    -0.268 N 
ATOM     19  H   UNL     1      -1.790  -0.763   0.851  0.00  0.00    +0.151 HD
ATOM     20  H   UNL     1      -3.712  -1.418  -0.305  0.00  0.00    +0.156 HD
BRANCH  18  21
ATOM     21  C   UNL     1      -4.056  -1.148  -2.322  0.00  0.00    +0.053 A 
ATOM     22  C   UNL     1      -3.433  -1.431  -3.535  0.00  0.00    +0.028 A 
ATOM     23  C   UNL     1      -4.207  -1.457  -4.683  0.00  0.00    +0.042 A 
ATOM     24  C   UNL     1      -5.565  -1.204  -4.588  0.00  0.00    +0.129 A 
ATOM     25  N   UNL     1      -6.125  -0.939  -3.423  0.00  0.00    -0.242 NA
ATOM     26  C   UNL     1      -5.424  -0.910  -2.307  0.00  0.00    +0.135 A 
ATOM     27 CL   UNL     1      -6.544  -1.235  -6.021  0.00  0.00    -0.062 Cl
ENDBRANCH  18  21
ENDBRANCH   2  15
TORSDOF 5
