REMARK  Name = ZINC39400194
REMARK  8 active torsions:
REMARK  status: ('A' for Active; 'I' for Inactive)
REMARK    1  A    between atoms: C_1  and  C_2
REMARK    2  A    between atoms: C_2  and  C_3
REMARK    3  A    between atoms: C_3  and  C_5
REMARK    4  A    between atoms: C_3  and  C_6
REMARK    5  A    between atoms: N_11  and  C_17
REMARK    6  A    between atoms: C_17  and  C_18
REMARK    7  A    between atoms: C_21  and  S_23
REMARK    8  A    between atoms: S_23  and  C_24
REMARK                            x       y       z     vdW  Elec       q    Type
REMARK                         _______ _______ _______ _____ _____    ______ ____
ROOT
ATOM      1  C   UNL     1       0.700  -2.034   1.383  0.00  0.00    +0.099 C 
ATOM      2  C   UNL     1       1.339  -2.472   2.706  0.00  0.00    +0.040 C 
ATOM      3  C   UNL     1       1.751  -1.277   3.569  0.00  0.00    -0.067 C 
ATOM      4  N   UNL     1       2.617  -1.764   4.653  0.00  0.00    +0.385 N 
ATOM      5  C   UNL     1       3.904  -2.248   4.147  0.00  0.00    -0.072 C 
ATOM      6  C   UNL     1       3.700  -3.505   3.283  0.00  0.00    +0.034 C 
ATOM      7  C   UNL     1       2.620  -3.169   2.268  0.00  0.00    +0.038 C 
ATOM      8  N   UNL     1       2.640  -3.276   1.013  0.00  0.00    -0.196 NA
ATOM      9  N   UNL     1       1.553  -2.676   0.365  0.00  0.00    -0.265 N 
ATOM     10  H   UNL     1       1.388  -2.680  -0.590  0.00  0.00    +0.168 HD
ATOM     11  H   UNL     1       2.149  -2.518   5.134  0.00  0.00    -0.081 HD
ENDROOT
BRANCH   1  12
ATOM     12  C   UNL     1       0.742  -0.511   1.242  0.00  0.00    +0.008 C 
ATOM     13  C   UNL     1       0.469  -0.126  -0.214  0.00  0.00    +0.009 C 
BRANCH  12  15
ATOM     14  C   UNL     1      -0.169   1.637   2.135  0.00  0.00    +0.004 C 
ATOM     15  C   UNL     1      -0.324   0.115   2.143  0.00  0.00    +0.002 C 
ENDBRANCH  12  15
ENDBRANCH   1  12
BRANCH   4  16
ATOM     16  C   UNL     1       2.857  -0.669   5.603  0.00  0.00    -0.003 C 
BRANCH  16  17
ATOM     17  C   UNL     1       3.641  -1.188   6.780  0.00  0.00    +0.090 A 
ATOM     18  C   UNL     1       4.982  -1.212   6.882  0.00  0.00    +0.044 A 
ATOM     19  C   UNL     1       5.289  -1.776   8.141  0.00  0.00    +0.057 A 
ATOM     20  C   UNL     1       4.109  -2.064   8.739  0.00  0.00    +0.169 A 
ATOM     21  O   UNL     1       3.116  -1.700   7.909  0.00  0.00    -0.455 OA
BRANCH  20  22
ATOM     22  S   UNL     1       3.909  -2.787  10.334  0.00  0.00    -0.013 S 
BRANCH  22  23
ATOM     23  C   UNL     1       2.162  -2.904  10.532  0.00  0.00    +0.192 A 
ATOM     24  H   UNL     1       1.919  -3.767  12.412  0.00  0.00    +0.191 HD
ATOM     25  N   UNL     1       1.255  -2.525   9.657  0.00  0.00    -0.209 NA
ATOM     26  C   UNL     1       0.036  -2.763  10.141  0.00  0.00    +0.245 A 
ATOM     27  N   UNL     1       0.144  -3.297  11.329  0.00  0.00    -0.160 NA
ATOM     28  N   UNL     1       1.516  -3.406  11.607  0.00  0.00    -0.253 N 
ENDBRANCH  22  23
ENDBRANCH  20  22
ENDBRANCH  16  17
ENDBRANCH   4  16
TORSDOF 6
