REMARK  Name = ZINC04276219
REMARK  4 active torsions:
REMARK  status: ('A' for Active; 'I' for Inactive)
REMARK    1  A    between atoms: C_1  and  C_2
REMARK    2  A    between atoms: C_2  and  C_4
REMARK    3  A    between atoms: C_7  and  C_10
REMARK    4  A    between atoms: C_16  and  C_18
REMARK                            x       y       z     vdW  Elec       q    Type
REMARK                         _______ _______ _______ _____ _____    ______ ____
ROOT
ATOM      1  C   UNL     1       3.150   9.031   0.017  0.00  0.00    +0.252 C 
ATOM      2  O   UNL     1       2.033   9.510   0.030  0.00  0.00    -0.270 OA
ATOM      3  N   UNL     1       3.310   7.693   0.009  0.00  0.00    -0.234 N 
ATOM      4  C   UNL     1       2.201   6.863   0.016  0.00  0.00    +0.315 A 
ATOM      5  N   UNL     1       0.947   7.245   0.029  0.00  0.00    -0.092 NA
ATOM      6  N   UNL     1       0.182   6.211   0.026  0.00  0.00    -0.105 NA
ATOM      7  C   UNL     1       0.921   5.124   0.019  0.00  0.00    +0.257 A 
ATOM      8  O   UNL     1       2.214   5.516   0.009  0.00  0.00    -0.404 OA
ATOM      9  H   UNL     1       4.201   7.311  -0.002  0.00  0.00    +0.160 HD
ENDROOT
BRANCH   1  13
ATOM     10  C   UNL     1       6.556  11.580  -0.004  0.00  0.00    +0.017 A 
ATOM     11  C   UNL     1       5.271  12.130   0.011  0.00  0.00    +0.012 A 
ATOM     12  C   UNL     1       4.169  11.304   0.018  0.00  0.00    +0.014 A 
ATOM     13  C   UNL     1       4.335   9.918   0.009  0.00  0.00    +0.037 A 
ATOM     14  C   UNL     1       5.618   9.367   0.000  0.00  0.00    +0.014 A 
ATOM     15  C   UNL     1       6.721  10.192  -0.013  0.00  0.00    +0.012 A 
BRANCH  10  17
ATOM     16  C   UNL     1       9.122  11.869  -0.029  0.00  0.00    +0.091 C 
ATOM     17  C   UNL     1       7.737  12.463  -0.012  0.00  0.00    +0.160 C 
ATOM     18  O   UNL     1       7.593  13.667  -0.006  0.00  0.00    -0.292 OA
ENDBRANCH  10  17
ENDBRANCH   1  13
BRANCH   7  19
ATOM     19  C   UNL     1       0.431   3.737   0.017  0.00  0.00    +0.076 A 
ATOM     20  C   UNL     1      -0.872   3.273   0.027  0.00  0.00    +0.021 A 
ATOM     21  C   UNL     1      -1.082   1.913   0.017  0.00  0.00    +0.008 A 
ATOM     22  C   UNL     1      -0.013   1.076   0.008  0.00  0.00    +0.046 A 
ATOM     23  S   UNL     1       1.362   2.214   0.001  0.00  0.00    -0.092 S 
ENDBRANCH   7  19
TORSDOF 3
