REMARK  Name = ZINC08798870
REMARK  9 active torsions:
REMARK  status: ('A' for Active; 'I' for Inactive)
REMARK    1  A    between atoms: C_1  and  N_2
REMARK    2  A    between atoms: C_10  and  C_12
REMARK    3  A    between atoms: C_12  and  C_14
REMARK    4  A    between atoms: C_12  and  N_53
REMARK    5  A    between atoms: C_14  and  N_15
REMARK    6  A    between atoms: N_15  and  S_16
REMARK    7  A    between atoms: S_16  and  C_19
REMARK    8  A    between atoms: C_27  and  N_53
REMARK    9  A    between atoms: C_28  and  N_53
REMARK                            x       y       z     vdW  Elec       q    Type
REMARK                         _______ _______ _______ _____ _____    ______ ____
ROOT
ATOM      1  C   UNL     1       3.568  -1.418   4.422  0.00  0.00    -0.023 C 
ENDROOT
BRANCH   1  11
ATOM      2  C   UNL     1      -1.603   0.428   1.299  0.00  0.00    +0.129 C 
ATOM      3  N   UNL     1      -0.251   0.658   0.773  0.00  0.00    -0.333 N 
ATOM      4  C   UNL     1      -0.062   2.062   0.405  0.00  0.00    +0.105 C 
ATOM      5  C   UNL     1       1.371   2.247  -0.110  0.00  0.00    +0.024 C 
ATOM      6  C   UNL     1       2.324   2.053   1.071  0.00  0.00    +0.038 C 
ATOM      7  C   UNL     1       1.944   0.805   1.830  0.00  0.00    -0.026 A 
ATOM      8  C   UNL     1       0.716   0.190   1.661  0.00  0.00    +0.033 A 
ATOM      9  C   UNL     1       0.416  -0.954   2.403  0.00  0.00    +0.023 A 
ATOM     10  C   UNL     1       1.334  -1.470   3.293  0.00  0.00    +0.004 A 
ATOM     11  C   UNL     1       2.561  -0.854   3.453  0.00  0.00    -0.059 A 
ATOM     12  C   UNL     1       2.863   0.279   2.724  0.00  0.00    +0.007 A 
ENDBRANCH   1  11
BRANCH   1  15
ATOM     13  C   UNL     1       3.025  -3.595   3.511  0.00  0.00    -0.096 C 
ATOM     14  C   UNL     1       5.007  -2.426   2.757  0.00  0.00    -0.096 C 
ATOM     15  N   UNL     1       4.123  -2.689   3.911  0.00  0.00    +0.381 N 
ATOM     16  H   UNL     1       4.670  -3.137   4.655  0.00  0.00    -0.082 HD
ENDBRANCH   1  15
BRANCH   1  17
ATOM     17  C   UNL     1       2.889  -1.682   5.767  0.00  0.00    +0.095 C 
BRANCH  17  18
ATOM     18  N   UNL     1       3.835  -2.341   6.671  0.00  0.00    -0.191 NA
ATOM     19  H   UNL     1       4.649  -2.733   6.319  0.00  0.00    +0.148 HD
BRANCH  18  20
ATOM     20  S   UNL     1       3.514  -2.415   8.294  0.00  0.00    +0.061 S 
ATOM     21  O   UNL     1       4.590  -3.128   8.889  0.00  0.00    -0.153 OA
ATOM     22  O   UNL     1       3.156  -1.100   8.698  0.00  0.00    -0.153 OA
BRANCH  20  23
ATOM     23  C   UNL     1       2.076  -3.413   8.496  0.00  0.00    +0.140 A 
ATOM     24  C   UNL     1       2.163  -4.623   9.160  0.00  0.00    +0.034 A 
ATOM     25  C   UNL     1       1.036  -5.406   9.319  0.00  0.00    +0.040 A 
ATOM     26  C   UNL     1      -0.182  -4.980   8.815  0.00  0.00    +0.126 A 
ATOM     27  C   UNL     1      -0.269  -3.770   8.150  0.00  0.00    +0.078 A 
ATOM     28  C   UNL     1       0.860  -2.983   7.996  0.00  0.00    +0.152 A 
ATOM     29  F   UNL     1       0.774  -1.798   7.352  0.00  0.00    -0.203 F 
ATOM     30  F   UNL     1      -1.283  -5.747   8.971  0.00  0.00    -0.205 F 
ENDBRANCH  20  23
ENDBRANCH  18  20
ENDBRANCH  17  18
ENDBRANCH   1  17
TORSDOF 6
