REMARK  Name = ZINC00120745
REMARK  7 active torsions:
REMARK  status: ('A' for Active; 'I' for Inactive)
REMARK    1  A    between atoms: C_1  and  O_2
REMARK    2  A    between atoms: O_2  and  C_3
REMARK    3  A    between atoms: C_6  and  C_11
REMARK    4  A    between atoms: C_8  and  O_9
REMARK    5  A    between atoms: O_9  and  C_10
REMARK    6  A    between atoms: C_14  and  C_17
REMARK    7  A    between atoms: C_26  and  O_27
REMARK                            x       y       z     vdW  Elec       q    Type
REMARK                         _______ _______ _______ _____ _____    ______ ____
ROOT
ATOM      1  C   UNL     1       2.590  -2.548   4.315  0.00  0.00    +0.125 C 
ATOM      2  C   UNL     1       4.120  -2.494   4.137  0.00  0.00    +0.086 C 
ATOM      3  C   UNL     1       4.599  -1.707   5.336  0.00  0.00    +0.072 C 
ATOM      4  N   UNL     1       3.589  -1.369   6.061  0.00  0.00    -0.190 NA
ATOM      5  N   UNL     1       2.358  -1.807   5.566  0.00  0.00    -0.261 N 
ATOM      6  H   UNL     1       1.494  -1.648   5.976  0.00  0.00    +0.169 HD
ENDROOT
BRANCH   3   7
ATOM      7  C   UNL     1       6.005  -1.377   5.630  0.00  0.00    +0.040 A 
ATOM      8  C   UNL     1       7.020  -1.801   4.753  0.00  0.00    +0.014 A 
ATOM      9  C   UNL     1       8.322  -1.509   5.002  0.00  0.00    +0.009 A 
ATOM     10  C   UNL     1       8.676  -0.774   6.149  0.00  0.00    -0.014 A 
ATOM     11  C   UNL     1      10.018  -0.462   6.424  0.00  0.00    +0.008 A 
ATOM     12  C   UNL     1      10.330   0.252   7.541  0.00  0.00    +0.001 A 
ATOM     13  C   UNL     1       9.337   0.679   8.420  0.00  0.00    +0.001 A 
ATOM     14  C   UNL     1       8.026   0.396   8.187  0.00  0.00    +0.012 A 
ATOM     15  C   UNL     1       7.666  -0.338   7.043  0.00  0.00    +0.024 A 
ATOM     16  C   UNL     1       6.319  -0.643   6.769  0.00  0.00    +0.133 A 
BRANCH  16  17
ATOM     17  O   UNL     1       5.338  -0.230   7.611  0.00  0.00    -0.506 OA
ATOM     18  H   UNL     1       5.132  -0.860   8.315  0.00  0.00    +0.292 HD
ENDBRANCH  16  17
ENDBRANCH   3   7
BRANCH   1  22
ATOM     19  C   UNL     1       0.626  -0.619   1.042  0.00  0.00    +0.162 A 
ATOM     20  C   UNL     1       1.202   0.137   2.051  0.00  0.00    +0.050 A 
ATOM     21  C   UNL     1       1.836  -0.490   3.108  0.00  0.00    +0.009 A 
ATOM     22  C   UNL     1       1.897  -1.870   3.161  0.00  0.00    -0.022 A 
ATOM     23  C   UNL     1       1.325  -2.630   2.158  0.00  0.00    +0.055 A 
ATOM     24  C   UNL     1       0.683  -2.008   1.099  0.00  0.00    +0.162 A 
BRANCH  19  26
ATOM     25  C   UNL     1      -0.017   1.425   0.010  0.00  0.00    +0.277 C 
ATOM     26  O   UNL     1       0.002  -0.004   0.002  0.00  0.00    -0.491 OA
ENDBRANCH  19  26
BRANCH  24  27
ATOM     27  O   UNL     1       0.115  -2.754   0.114  0.00  0.00    -0.491 OA
ATOM     28  C   UNL     1       0.211  -4.174   0.238  0.00  0.00    +0.277 C 
ENDBRANCH  24  27
ENDBRANCH   1  22
TORSDOF 5
