REMARK  Name = ZINC38938342
REMARK  3 active torsions:
REMARK  status: ('A' for Active; 'I' for Inactive)
REMARK    1  A    between atoms: C_4  and  C_7
REMARK    2  A    between atoms: N_8  and  N_9
REMARK    3  A    between atoms: C_10  and  C_16
REMARK                            x       y       z     vdW  Elec       q    Type
REMARK                         _______ _______ _______ _____ _____    ______ ____
ROOT
ATOM      1  N   UNL     1       4.933  -2.660  -0.166  0.00  0.00    -0.172 N 
ATOM      2  C   UNL     1       5.146  -4.113  -0.300  0.00  0.00    +0.264 C 
ATOM      3  N   UNL     1       6.609  -4.248  -0.388  0.00  0.00    -0.189 NA
ATOM      4  N   UNL     1       7.103  -3.119  -0.318  0.00  0.00    -0.219 N 
ATOM      5  C   UNL     1       6.176  -2.131  -0.192  0.00  0.00    +0.174 C 
ATOM      6  S   UNL     1       6.534  -0.461  -0.078  0.00  0.00    -0.015 S 
ATOM      7  H   UNL     1       8.057  -2.953  -0.354  0.00  0.00    +0.176 HD
ENDROOT
BRANCH   2   8
ATOM      8  C   UNL     1       4.617  -4.840   0.909  0.00  0.00    -0.002 A 
ATOM      9  C   UNL     1       3.540  -4.326   1.607  0.00  0.00    +0.009 A 
ATOM     10  C   UNL     1       3.054  -4.992   2.716  0.00  0.00    +0.020 A 
ATOM     11  C   UNL     1       3.646  -6.173   3.128  0.00  0.00    +0.041 A 
ATOM     12  C   UNL     1       4.723  -6.687   2.429  0.00  0.00    +0.020 A 
ATOM     13  C   UNL     1       5.205  -6.023   1.316  0.00  0.00    +0.009 A 
ATOM     14 CL   UNL     1       3.036  -7.010   4.521  0.00  0.00    -0.084 Cl
ENDBRANCH   2   8
BRANCH   1  16
ATOM     15  C   UNL     1       3.704  -0.700   0.173  0.00  0.00    +0.138 C 
ATOM     16  N   UNL     1       3.714  -1.980  -0.044  0.00  0.00    -0.183 NA
BRANCH  15  20
ATOM     17  C   UNL     1       0.022   1.411   0.242  0.00  0.00    +0.000 A 
ATOM     18  C   UNL     1       1.210   2.090   0.452  0.00  0.00    +0.001 A 
ATOM     19  C   UNL     1       2.410   1.411   0.431  0.00  0.00    +0.009 A 
ATOM     20  C   UNL     1       2.425   0.033   0.197  0.00  0.00    -0.005 A 
ATOM     21  C   UNL     1       1.222  -0.646  -0.014  0.00  0.00    +0.009 A 
ATOM     22  C   UNL     1       0.030   0.047   0.009  0.00  0.00    +0.001 A 
ENDBRANCH  15  20
ENDBRANCH   1  16
TORSDOF 3
