REMARK  Name = ZINC64066638
REMARK  7 active torsions:
REMARK  status: ('A' for Active; 'I' for Inactive)
REMARK    1  A    between atoms: C_6  and  C_11
REMARK    2  A    between atoms: C_11  and  N_12
REMARK    3  A    between atoms: C_13  and  C_15
REMARK    4  A    between atoms: C_15  and  C_16
REMARK    5  A    between atoms: C_16  and  C_17
REMARK    6  A    between atoms: C_21  and  C_24
REMARK    7  A    between atoms: C_24  and  C_28
REMARK                            x       y       z     vdW  Elec       q    Type
REMARK                         _______ _______ _______ _____ _____    ______ ____
ROOT
ATOM      1  C   UNL     1       9.280  -3.474  -3.736  0.00  0.00    +0.202 C 
ATOM      2  N   UNL     1       9.509  -4.210  -4.996  0.00  0.00    -0.227 NA
ATOM      3  N   UNL     1      10.416  -5.313  -4.657  0.00  0.00    -0.226 NA
ATOM      4  C   UNL     1      11.083  -4.847  -3.413  0.00  0.00    +0.212 C 
ATOM      5  O   UNL     1      10.026  -4.154  -2.711  0.00  0.00    -0.341 OA
ATOM      6  H   UNL     1       8.641  -4.559  -5.374  0.00  0.00    +0.143 HD
ATOM      7  H   UNL     1      11.089  -5.468  -5.392  0.00  0.00    +0.143 HD
ENDROOT
BRANCH   4   8
ATOM      8  C   UNL     1      11.591  -6.036  -2.594  0.00  0.00    +0.036 C 
ATOM      9  C   UNL     1      10.484  -6.766  -1.816  0.00  0.00    +0.015 C 
ATOM     10  C   UNL     1      11.487  -6.886  -0.656  0.00  0.00    +0.002 C 
ATOM     11  C   UNL     1      12.180  -5.638  -1.230  0.00  0.00    +0.015 C 
BRANCH   8  12
ATOM     12  C   UNL     1      12.480  -6.957  -3.390  0.00  0.00    -0.037 A 
ATOM     13  C   UNL     1      12.061  -8.242  -3.679  0.00  0.00    +0.006 A 
ATOM     14  C   UNL     1      12.876  -9.087  -4.409  0.00  0.00    +0.020 A 
ATOM     15  C   UNL     1      14.111  -8.647  -4.849  0.00  0.00    +0.041 A 
ATOM     16  C   UNL     1      14.530  -7.361  -4.559  0.00  0.00    +0.020 A 
ATOM     17  C   UNL     1      13.712  -6.515  -3.835  0.00  0.00    +0.006 A 
ATOM     18 CL   UNL     1      15.135  -9.708  -5.765  0.00  0.00    -0.084 Cl
ENDBRANCH   8  12
ENDBRANCH   4   8
BRANCH   1  19
ATOM     19  C   UNL     1       7.789  -3.481  -3.390  0.00  0.00    +0.058 C 
BRANCH  19  20
ATOM     20  C   UNL     1       7.555  -2.652  -2.126  0.00  0.00    +0.099 C 
BRANCH  20  22
ATOM     21  N   UNL     1       5.644  -1.990  -0.702  0.00  0.00    -0.313 N 
ATOM     22  C   UNL     1       6.087  -2.660  -1.784  0.00  0.00    +0.213 C 
ATOM     23  O   UNL     1       5.306  -3.269  -2.483  0.00  0.00    -0.276 OA
ATOM     24  H   UNL     1       6.269  -1.503  -0.143  0.00  0.00    +0.149 HD
BRANCH  21  25
ATOM     25  C   UNL     1       4.216  -1.998  -0.371  0.00  0.00    +0.132 C 
BRANCH  25  31
ATOM     26  C   UNL     1       1.139   2.493   1.156  0.00  0.00    +0.001 A 
ATOM     27  C   UNL     1       2.360   3.137   0.910  0.00  0.00    +0.002 A 
ATOM     28  C   UNL     1       3.520   2.466   0.753  0.00  0.00    +0.026 A 
ATOM     29  C   UNL     1       3.546   1.046   0.835  0.00  0.00    +0.043 A 
ATOM     30  N   UNL     1       4.526   0.183   0.720  0.00  0.00    -0.376 N 
ATOM     31  C   UNL     1       3.982  -1.168   0.894  0.00  0.00    +0.120 C 
ATOM     32  C   UNL     1       2.500  -0.991   1.135  0.00  0.00    +0.009 C 
ATOM     33  C   UNL     1       2.271   0.342   1.094  0.00  0.00    -0.004 A 
ATOM     34  C   UNL     1       1.053   1.146   1.252  0.00  0.00    +0.010 A 
ATOM     35  H   UNL     1       5.456   0.402   0.548  0.00  0.00    +0.160 HD
ENDBRANCH  25  31
ENDBRANCH  21  25
ENDBRANCH  20  22
ENDBRANCH  19  20
ENDBRANCH   1  19
TORSDOF 7
