REMARK  Name = ZINC39937760
REMARK  8 active torsions:
REMARK  status: ('A' for Active; 'I' for Inactive)
REMARK    1  A    between atoms: C_4  and  N_7
REMARK    2  A    between atoms: N_7  and  C_8
REMARK    3  A    between atoms: C_8  and  C_9
REMARK    4  A    between atoms: C_11  and  C_13
REMARK    5  A    between atoms: C_13  and  S_14
REMARK    6  A    between atoms: S_14  and  C_15
REMARK    7  A    between atoms: C_19  and  C_24
REMARK    8  A    between atoms: N_20  and  C_21
REMARK                            x       y       z     vdW  Elec       q    Type
REMARK                         _______ _______ _______ _____ _____    ______ ____
ROOT
ATOM      1  C   UNL     1       6.332  -5.239   0.391  0.00  0.00    +0.237 C 
ATOM      2  N   UNL     1       7.131  -4.838  -0.778  0.00  0.00    -0.237 N 
ATOM      3  N   UNL     1       8.213  -4.098  -0.286  0.00  0.00    -0.169 NA
ATOM      4  C   UNL     1       8.169  -4.003   1.017  0.00  0.00    +0.147 C 
ATOM      5  N   UNL     1       7.055  -4.670   1.541  0.00  0.00    -0.282 N 
ATOM      6  H   UNL     1       6.945  -5.045  -1.707  0.00  0.00    +0.171 HD
ENDROOT
BRANCH   4   7
ATOM      7  C   UNL     1       9.120  -3.322   1.793  0.00  0.00    +0.022 C 
ATOM      8  C   UNL     1      10.192  -2.557   1.333  0.00  0.00    +0.006 A 
ATOM      9  C   UNL     1      10.647  -2.236   0.037  0.00  0.00    +0.010 A 
ATOM     10  C   UNL     1      11.745  -1.451  -0.117  0.00  0.00    +0.001 A 
ATOM     11  C   UNL     1      12.444  -0.948   0.983  0.00  0.00    +0.002 A 
ATOM     12  C   UNL     1      12.063  -1.217   2.256  0.00  0.00    +0.026 A 
ATOM     13  C   UNL     1      10.925  -2.030   2.496  0.00  0.00    +0.043 A 
ATOM     14  N   UNL     1      10.360  -2.430   3.618  0.00  0.00    -0.380 N 
ATOM     15  C   UNL     1       9.191  -3.257   3.303  0.00  0.00    +0.152 C 
ATOM     16  H   UNL     1      10.666  -2.208   4.511  0.00  0.00    +0.160 HD
ENDBRANCH   4   7
BRANCH   5  17
ATOM     17  C   UNL     1       6.679  -4.779   2.952  0.00  0.00    +0.078 C 
ATOM     18  C   UNL     1       5.443  -5.613   3.292  0.00  0.00    +0.024 C 
ATOM     19  C   UNL     1       5.388  -4.088   3.396  0.00  0.00    +0.024 C 
ENDBRANCH   5  17
BRANCH   1  20
ATOM     20  S   UNL     1       4.660  -4.544   0.286  0.00  0.00    -0.109 S 
BRANCH  20  21
ATOM     21  C   UNL     1       4.935  -2.757   0.144  0.00  0.00    +0.168 C 
BRANCH  21  23
ATOM     22  N   UNL     1       3.565  -0.708  -0.067  0.00  0.00    -0.257 N 
ATOM     23  C   UNL     1       3.608  -2.050   0.047  0.00  0.00    +0.231 C 
ATOM     24  O   UNL     1       2.577  -2.690   0.071  0.00  0.00    -0.274 OA
BRANCH  22  28
ATOM     25  C   UNL     1      -0.098   1.274   0.009  0.00  0.00    +0.000 A 
ATOM     26  C   UNL     1       0.749   1.432  -1.072  0.00  0.00    +0.002 A 
ATOM     27  C   UNL     1       1.964   0.776  -1.100  0.00  0.00    +0.023 A 
ATOM     28  C   UNL     1       2.335  -0.042  -0.041  0.00  0.00    +0.037 A 
ATOM     29  C   UNL     1       1.482  -0.198   1.044  0.00  0.00    +0.023 A 
ATOM     30  C   UNL     1       0.268   0.460   1.066  0.00  0.00    +0.002 A 
ENDBRANCH  22  28
BRANCH  22  31
ATOM     31  C   UNL     1       4.808   0.054  -0.218  0.00  0.00    +0.232 C 
BRANCH  31  32
ATOM     32  C   UNL     1       5.317   0.429   1.111  0.00  0.00    +0.082 C 
ATOM     33  N   UNL     1       5.711   0.718   2.137  0.00  0.00    -0.195 NA
ENDBRANCH  31  32
ENDBRANCH  22  31
ENDBRANCH  21  23
ENDBRANCH  20  21
ENDBRANCH   1  20
TORSDOF 8
