REMARK  Name = ZINC13959746
REMARK  8 active torsions:
REMARK  status: ('A' for Active; 'I' for Inactive)
REMARK    1  A    between atoms: C_4  and  O_10
REMARK    2  A    between atoms: C_6  and  N_7
REMARK    3  A    between atoms: O_10  and  C_11
REMARK    4  A    between atoms: C_11  and  C_12
REMARK    5  A    between atoms: C_15  and  C_17
REMARK    6  A    between atoms: C_20  and  C_27
REMARK    7  A    between atoms: C_20  and  O_30
REMARK    8  A    between atoms: C_22  and  C_24
REMARK                            x       y       z     vdW  Elec       q    Type
REMARK                         _______ _______ _______ _____ _____    ______ ____
ROOT
ATOM      1  C   UNL     1      -3.762   5.792   0.067  0.00  0.00    +0.143 A 
ATOM      2  C   UNL     1      -4.485   6.073   1.173  0.00  0.00    +0.049 A 
ATOM      3  C   UNL     1      -5.722   6.576   0.742  0.00  0.00    +0.055 A 
ATOM      4  C   UNL     1      -5.696   6.566  -0.623  0.00  0.00    +0.192 A 
ATOM      5  O   UNL     1      -4.496   6.087  -1.014  0.00  0.00    -0.452 OA
ENDROOT
BRANCH   4   6
ATOM      6  C   UNL     1      -6.780   7.001  -1.509  0.00  0.00    +0.304 C 
ATOM      7  O   UNL     1      -7.822   7.417  -1.037  0.00  0.00    -0.265 OA
ATOM      8  N   UNL     1      -6.623   6.939  -2.846  0.00  0.00    -0.149 N 
ATOM      9  C   UNL     1      -7.625   7.341  -3.847  0.00  0.00    +0.222 C 
ATOM     10  C   UNL     1      -6.918   7.060  -5.189  0.00  0.00    +0.121 C 
ATOM     11  C   UNL     1      -5.566   6.520  -4.777  0.00  0.00    +0.107 C 
ATOM     12  N   UNL     1      -5.483   6.491  -3.511  0.00  0.00    -0.178 NA
BRANCH  11  13
ATOM     13  C   UNL     1      -4.479   6.089  -5.728  0.00  0.00    +0.387 C 
ATOM     14  F   UNL     1      -3.719   5.074  -5.137  0.00  0.00    -0.203 F 
ATOM     15  F   UNL     1      -5.056   5.611  -6.910  0.00  0.00    -0.203 F 
ENDBRANCH  11  13
BRANCH   9  16
ATOM     16  C   UNL     1      -7.960   8.828  -3.710  0.00  0.00    +0.393 C 
ATOM     17  F   UNL     1      -6.794   9.585  -3.868  0.00  0.00    -0.204 F 
ATOM     18  F   UNL     1      -8.888   9.189  -4.692  0.00  0.00    -0.204 F 
ENDBRANCH   9  16
BRANCH   9  19
ATOM     19  O   UNL     1      -8.807   6.546  -3.725  0.00  0.00    -0.365 OA
ATOM     20  H   UNL     1      -9.251   6.631  -2.870  0.00  0.00    +0.212 HD
ENDBRANCH   9  19
ENDBRANCH   4   6
BRANCH   1  21
ATOM     21  C   UNL     1      -2.363   5.232   0.051  0.00  0.00    +0.303 C 
BRANCH  21  22
ATOM     22  O   UNL     1      -2.421   3.804   0.044  0.00  0.00    -0.483 OA
BRANCH  22  26
ATOM     23  C   UNL     1       1.176   1.783   0.000  0.00  0.00    +0.034 A 
ATOM     24  C   UNL     1      -0.013   1.076   0.008  0.00  0.00    +0.026 A 
ATOM     25  C   UNL     1      -1.219   1.750   0.017  0.00  0.00    +0.083 A 
ATOM     26  C   UNL     1      -1.236   3.139   0.029  0.00  0.00    +0.142 A 
ATOM     27  C   UNL     1      -0.043   3.845   0.022  0.00  0.00    +0.079 A 
ATOM     28  C   UNL     1       1.160   3.165   0.008  0.00  0.00    +0.130 A 
ATOM     29 CL   UNL     1      -2.711   0.862   0.020  0.00  0.00    -0.080 Cl
BRANCH  28  30
ATOM     30  N   UNL     1       2.434   3.919   0.000  0.00  0.00    +0.057 N 
ATOM     31  O   UNL     1       3.495   3.321  -0.013  0.00  0.00    -0.126 OA
ATOM     32  O   UNL     1       2.422   5.137   0.007  0.00  0.00    -0.126 OA
ENDBRANCH  28  30
ENDBRANCH  22  26
ENDBRANCH  21  22
ENDBRANCH   1  21
TORSDOF 8
