REMARK  Name = ZINC05682089
REMARK  2 active torsions:
REMARK  status: ('A' for Active; 'I' for Inactive)
REMARK    1  A    between atoms: C_4  and  C_7
REMARK    2  A    between atoms: C_9  and  C_18
REMARK                            x       y       z     vdW  Elec       q    Type
REMARK                         _______ _______ _______ _____ _____    ______ ____
ROOT
ATOM      1  C   UNL     1       3.694  -0.683  -0.037  0.00  0.00    +0.049 C 
ATOM      2  C   UNL     1       3.620  -2.178  -0.050  0.00  0.00    +0.085 C 
ATOM      3  C   UNL     1       4.978  -2.800  -0.413  0.00  0.00    +0.139 C 
ATOM      4  N   UNL     1       5.995  -1.948   0.203  0.00  0.00    -0.206 N 
ATOM      5  C   UNL     1       6.095  -0.503  -0.099  0.00  0.00    +0.300 C 
ATOM      6  N   UNL     1       4.744   0.044  -0.044  0.00  0.00    -0.246 NA
ATOM      7  N   UNL     1       6.956  -0.003   0.978  0.00  0.00    -0.296 N 
ATOM      8  C   UNL     1       7.485  -1.127   1.604  0.00  0.00    +0.204 C 
ATOM      9  N   UNL     1       6.963  -2.217   1.158  0.00  0.00    -0.173 NA
ATOM     10  H   UNL     1       7.124   0.924   1.207  0.00  0.00    +0.151 HD
ENDROOT
BRANCH   1  14
ATOM     11  C   UNL     1      -0.017   1.379   0.010  0.00  0.00    +0.000 A 
ATOM     12  C   UNL     1       1.168   2.094   0.002  0.00  0.00    +0.001 A 
ATOM     13  C   UNL     1       2.377   1.430  -0.013  0.00  0.00    +0.010 A 
ATOM     14  C   UNL     1       2.404   0.034  -0.021  0.00  0.00    -0.004 A 
ATOM     15  C   UNL     1       1.204  -0.681  -0.013  0.00  0.00    +0.010 A 
ATOM     16  C   UNL     1       0.002  -0.004   0.002  0.00  0.00    +0.001 A 
ENDBRANCH   1  14
BRANCH   3  17
ATOM     17  C   UNL     1       5.069  -4.200   0.136  0.00  0.00    +0.012 A 
ATOM     18  C   UNL     1       4.889  -5.381  -0.503  0.00  0.00    +0.013 A 
ATOM     19  C   UNL     1       5.025  -6.558   0.210  0.00  0.00    +0.008 A 
ATOM     20  C   UNL     1       5.335  -6.495   1.528  0.00  0.00    +0.045 A 
ATOM     21  S   UNL     1       5.450  -4.734   1.797  0.00  0.00    -0.100 S 
ENDBRANCH   3  17
TORSDOF 2
