REMARK  Name = ZINC05194019
REMARK  8 active torsions:
REMARK  status: ('A' for Active; 'I' for Inactive)
REMARK    1  A    between atoms: C_1  and  C_2
REMARK    2  A    between atoms: C_2  and  S_3
REMARK    3  A    between atoms: S_3  and  N_6
REMARK    4  A    between atoms: C_13  and  C_15
REMARK    5  A    between atoms: C_15  and  C_17
REMARK    6  A    between atoms: C_17  and  S_18
REMARK    7  A    between atoms: S_18  and  C_19
REMARK    8  A    between atoms: C_23  and  N_25
REMARK                            x       y       z     vdW  Elec       q    Type
REMARK                         _______ _______ _______ _____ _____    ______ ____
ROOT
ATOM      1  C   UNL     1       0.002  -0.004   0.002  0.00  0.00    +0.173 C 
ATOM      2  O   UNL     1       1.061  -0.596  -0.011  0.00  0.00    -0.291 OA
ENDROOT
BRANCH   1  10
ATOM      3  N   UNL     1      -4.712  -3.063   0.029  0.00  0.00    -0.207 N 
ATOM      4  C   UNL     1      -4.229  -4.446   0.017  0.00  0.00    +0.136 C 
ATOM      5  C   UNL     1      -2.695  -4.337   0.003  0.00  0.00    +0.058 C 
ATOM      6  C   UNL     1      -2.423  -2.849   0.009  0.00  0.00    -0.023 A 
ATOM      7  C   UNL     1      -3.642  -2.179   0.025  0.00  0.00    +0.054 A 
ATOM      8  C   UNL     1      -3.653  -0.778   0.033  0.00  0.00    +0.026 A 
ATOM      9  C   UNL     1      -2.484  -0.077   0.025  0.00  0.00    +0.013 A 
ATOM     10  C   UNL     1      -1.259  -0.755   0.010  0.00  0.00    +0.019 A 
ATOM     11  C   UNL     1      -1.246  -2.156  -0.004  0.00  0.00    +0.017 A 
BRANCH   3  12
ATOM     12  S   UNL     1      -6.307  -2.619   0.047  0.00  0.00    +0.045 S 
ATOM     13  O   UNL     1      -6.982  -3.713   0.650  0.00  0.00    -0.155 OA
ATOM     14  O   UNL     1      -6.319  -1.335   0.657  0.00  0.00    -0.155 OA
BRANCH  12  16
ATOM     15  C   UNL     1      -8.243  -2.074  -1.807  0.00  0.00    +0.030 C 
ATOM     16  C   UNL     1      -6.773  -2.484  -1.701  0.00  0.00    +0.185 C 
ENDBRANCH  12  16
ENDBRANCH   3  12
ENDBRANCH   1  10
BRANCH   1  17
ATOM     17  C   UNL     1      -0.018   1.503   0.010  0.00  0.00    +0.157 C 
BRANCH  17  18
ATOM     18  S   UNL     1       1.680   2.129  -0.003  0.00  0.00    -0.078 S 
BRANCH  18  19
ATOM     19  C   UNL     1       1.366   3.863   0.010  0.00  0.00    +0.192 A 
ATOM     20  N   UNL     1       0.113   4.292   0.019  0.00  0.00    -0.207 NA
ATOM     21  C   UNL     1      -0.162   5.595   0.034  0.00  0.00    +0.122 A 
ATOM     22  C   UNL     1       0.888   6.508   0.029  0.00  0.00    +0.086 A 
ATOM     23  C   UNL     1       2.191   6.020   0.013  0.00  0.00    +0.122 A 
ATOM     24  N   UNL     1       2.390   4.704   0.004  0.00  0.00    -0.207 NA
ATOM     25  N   UNL     1      -1.476   6.035   0.049  0.00  0.00    -0.343 N 
ATOM     26  H   UNL     1      -1.669   6.986   0.056  0.00  0.00    +0.144 HD
ATOM     27  H   UNL     1      -2.203   5.393   0.052  0.00  0.00    +0.144 HD
BRANCH  23  28
ATOM     28  N   UNL     1       3.268   6.893   0.008  0.00  0.00    -0.343 N 
ATOM     29  H   UNL     1       4.174   6.546  -0.002  0.00  0.00    +0.144 HD
ATOM     30  H   UNL     1       3.116   7.851   0.015  0.00  0.00    +0.144 HD
ENDBRANCH  23  28
ENDBRANCH  18  19
ENDBRANCH  17  18
ENDBRANCH   1  17
TORSDOF 7
