REMARK  Name = ZINC67354486
REMARK  10 active torsions:
REMARK  status: ('A' for Active; 'I' for Inactive)
REMARK    1  A    between atoms: C_1  and  C_2
REMARK    2  A    between atoms: C_2  and  C_3
REMARK    3  A    between atoms: C_3  and  C_5
REMARK    4  A    between atoms: C_3  and  N_6
REMARK    5  A    between atoms: C_7  and  C_9
REMARK    6  A    between atoms: C_9  and  C_11
REMARK    7  A    between atoms: C_9  and  N_12
REMARK    8  A    between atoms: N_15  and  C_16
REMARK    9  A    between atoms: C_20  and  C_22
REMARK   10  A    between atoms: C_23  and  C_27
REMARK                            x       y       z     vdW  Elec       q    Type
REMARK                         _______ _______ _______ _____ _____    ______ ____
ROOT
ATOM      1  N   UNL     1       0.305   1.127  -6.105  0.00  0.00    -0.288 N 
ATOM      2  C   UNL     1      -0.091   0.850  -7.363  0.00  0.00    +0.304 C 
ATOM      3  O   UNL     1      -1.276   0.777  -7.625  0.00  0.00    -0.252 OA
ATOM      4  N   UNL     1       0.826   0.654  -8.331  0.00  0.00    -0.269 N 
ATOM      5  H   UNL     1       1.250   1.185  -5.896  0.00  0.00    +0.151 HD
ATOM      6  H   UNL     1       1.768   0.786  -8.140  0.00  0.00    +0.156 HD
ENDROOT
BRANCH   4   7
ATOM      7  C   UNL     1       0.420   0.262  -9.611  0.00  0.00    +0.035 A 
ATOM      8  C   UNL     1       1.131   0.688 -10.727  0.00  0.00    +0.023 A 
ATOM      9  C   UNL     1       0.734   0.302 -11.994  0.00  0.00    +0.002 A 
ATOM     10  C   UNL     1      -0.371  -0.508 -12.159  0.00  0.00    +0.009 A 
ATOM     11  C   UNL     1      -1.091  -0.941 -11.045  0.00  0.00    -0.009 A 
ATOM     12  C   UNL     1      -0.688  -0.556  -9.766  0.00  0.00    +0.032 A 
BRANCH  11  13
ATOM     13  C   UNL     1      -2.276  -1.809 -11.219  0.00  0.00    +0.022 A 
ATOM     14  C   UNL     1      -3.325  -1.672 -12.087  0.00  0.00    -0.036 A 
ATOM     15  C   UNL     1      -4.328  -2.617 -12.069  0.00  0.00    +0.011 A 
ATOM     16  C   UNL     1      -4.246  -3.651 -11.193  0.00  0.00    +0.046 A 
ATOM     17  S   UNL     1      -2.705  -3.312 -10.357  0.00  0.00    -0.096 S 
ATOM     18  C   UNL     1      -3.383  -0.509 -13.044  0.00  0.00    +0.045 C 
ENDBRANCH  11  13
ENDBRANCH   4   7
BRANCH   1  19
ATOM     19  C   UNL     1      -0.692   1.339  -5.053  0.00  0.00    +0.157 C 
ATOM     20  C   UNL     1      -1.151   2.799  -5.073  0.00  0.00    +0.038 C 
BRANCH  19  22
ATOM     21  N   UNL     1      -0.820   1.147  -2.590  0.00  0.00    -0.311 N 
ATOM     22  C   UNL     1      -0.083   1.022  -3.712  0.00  0.00    +0.233 C 
ATOM     23  O   UNL     1       1.071   0.655  -3.641  0.00  0.00    -0.274 OA
ATOM     24  H   UNL     1      -1.743   1.441  -2.647  0.00  0.00    +0.149 HD
BRANCH  21  25
ATOM     25  C   UNL     1      -0.228   0.839  -1.286  0.00  0.00    +0.070 C 
ATOM     26  C   UNL     1      -0.340  -0.663  -1.017  0.00  0.00    +0.028 C 
BRANCH  25  28
ATOM     27  C   UNL     1      -0.755   3.112  -0.392  0.00  0.00    +0.005 C 
ATOM     28  C   UNL     1      -0.972   1.610  -0.194  0.00  0.00    +0.018 C 
ENDBRANCH  25  28
ENDBRANCH  21  25
ENDBRANCH  19  22
ENDBRANCH   1  19
TORSDOF 6
