REMARK  Name = ZINC22938453
REMARK  9 active torsions:
REMARK  status: ('A' for Active; 'I' for Inactive)
REMARK    1  A    between atoms: C_1  and  C_2
REMARK    2  A    between atoms: C_5  and  C_7
REMARK    3  A    between atoms: C_7  and  C_9
REMARK    4  A    between atoms: C_7  and  N_26
REMARK    5  A    between atoms: C_9  and  N_10
REMARK    6  A    between atoms: C_11  and  C_13
REMARK    7  A    between atoms: C_18  and  C_25
REMARK    8  A    between atoms: C_20  and  C_24
REMARK    9  A    between atoms: N_29  and  C_32
REMARK                            x       y       z     vdW  Elec       q    Type
REMARK                         _______ _______ _______ _____ _____    ______ ____
ROOT
ATOM      1  N   UNL     1       3.312  -4.457   1.342  0.00  0.00    -0.307 N 
ATOM      2  C   UNL     1       3.990  -4.770   2.464  0.00  0.00    +0.280 C 
ATOM      3  O   UNL     1       3.762  -4.175   3.498  0.00  0.00    -0.267 OA
ATOM      4  H   UNL     1       3.494  -4.933   0.517  0.00  0.00    +0.149 HD
ENDROOT
BRANCH   2   5
ATOM      5  C   UNL     1       5.014  -5.841   2.436  0.00  0.00    +0.193 A 
ATOM      6  C   UNL     1       5.675  -6.137   3.582  0.00  0.00    +0.103 A 
ATOM      7  C   UNL     1       6.704  -7.191   3.541  0.00  0.00    +0.193 A 
ATOM      8  O   UNL     1       7.179  -7.668   4.556  0.00  0.00    -0.287 OA
ATOM      9  C   UNL     1       7.123  -7.634   2.196  0.00  0.00    +0.067 A 
ATOM     10  C   UNL     1       8.253  -8.428   2.010  0.00  0.00    -0.036 A 
ATOM     11  C   UNL     1       8.608  -8.812   0.746  0.00  0.00    +0.007 A 
ATOM     12  C   UNL     1       7.852  -8.413  -0.347  0.00  0.00    -0.047 A 
ATOM     13  C   UNL     1       6.731  -7.629  -0.181  0.00  0.00    +0.050 A 
ATOM     14  C   UNL     1       6.347  -7.230   1.096  0.00  0.00    +0.140 A 
ATOM     15  O   UNL     1       5.243  -6.480   1.281  0.00  0.00    -0.450 OA
ATOM     16  C   UNL     1       8.262  -8.842  -1.732  0.00  0.00    +0.044 C 
ATOM     17  C   UNL     1       9.078  -8.863   3.194  0.00  0.00    +0.044 C 
ENDBRANCH   2   5
BRANCH   1  18
ATOM     18  C   UNL     1       2.299  -3.399   1.370  0.00  0.00    +0.131 C 
BRANCH  18  19
ATOM     19  C   UNL     1       1.684  -3.245  -0.023  0.00  0.00    +0.140 C 
BRANCH  19  20
ATOM     20  N   UNL     1       2.750  -3.011  -1.006  0.00  0.00    -0.295 NA
ATOM     21  C   UNL     1       3.568  -1.849  -0.628  0.00  0.00    +0.066 C 
ATOM     22  C   UNL     1       4.700  -1.676  -1.643  0.00  0.00    -0.064 C 
ATOM     23  N   UNL     1       4.131  -1.481  -2.983  0.00  0.00    +0.379 N 
ATOM     24  C   UNL     1       3.337  -2.659  -3.356  0.00  0.00    -0.064 C 
ATOM     25  C   UNL     1       2.194  -2.841  -2.356  0.00  0.00    +0.066 C 
ATOM     26  C   UNL     1       5.218  -1.296  -3.954  0.00  0.00    -0.096 C 
ATOM     27  H   UNL     1       3.540  -0.663  -2.982  0.00  0.00    -0.082 HD
ENDBRANCH  19  20
BRANCH  19  32
ATOM     28  C   UNL     1      -0.060   1.487   0.044  0.00  0.00    +0.086 C 
ATOM     29  C   UNL     1      -0.026  -0.019   0.004  0.00  0.00    +0.102 A 
ATOM     30  C   UNL     1      -1.098  -0.829  -0.056  0.00  0.00    +0.045 A 
ATOM     31  C   UNL     1      -0.610  -2.155  -0.075  0.00  0.00    +0.046 A 
ATOM     32  C   UNL     1       0.732  -2.076  -0.025  0.00  0.00    +0.124 A 
ATOM     33  O   UNL     1       1.081  -0.780   0.017  0.00  0.00    -0.463 OA
ENDBRANCH  19  32
ENDBRANCH  18  19
ENDBRANCH   1  18
TORSDOF 5
