REMARK  Name = ZINC63698880
REMARK  10 active torsions:
REMARK  status: ('A' for Active; 'I' for Inactive)
REMARK    1  A    between atoms: C_1  and  C_2
REMARK    2  A    between atoms: C_6  and  S_12
REMARK    3  A    between atoms: C_10  and  C_11
REMARK    4  A    between atoms: S_12  and  C_13
REMARK    5  A    between atoms: C_13  and  C_14
REMARK    6  A    between atoms: C_16  and  C_19
REMARK    7  A    between atoms: C_19  and  C_20
REMARK    8  A    between atoms: C_20  and  C_21
REMARK    9  A    between atoms: N_23  and  C_24
REMARK   10  A    between atoms: C_27  and  C_30
REMARK                            x       y       z     vdW  Elec       q    Type
REMARK                         _______ _______ _______ _____ _____    ______ ____
ROOT
ATOM      1  C   UNL     1      -4.097  -4.899  -1.821  0.00  0.00    +0.182 A 
ATOM      2  N   UNL     1      -4.803  -4.704  -2.940  0.00  0.00    -0.195 NA
ATOM      3  C   UNL     1      -5.878  -5.442  -2.926  0.00  0.00    +0.228 A 
ATOM      4  O   UNL     1      -5.893  -6.140  -1.784  0.00  0.00    -0.338 OA
ATOM      5  N   UNL     1      -4.716  -5.773  -1.079  0.00  0.00    -0.060 NA
ENDROOT
BRANCH   1   6
ATOM      6  C   UNL     1      -2.795  -4.223  -1.476  0.00  0.00    +0.152 C 
BRANCH   6   7
ATOM      7  S   UNL     1      -1.413  -5.214  -2.108  0.00  0.00    -0.107 S 
BRANCH   7  13
ATOM      8  C   UNL     1      -0.040   1.543  -0.018  0.00  0.00    +0.044 C 
ATOM      9  C   UNL     1      -0.011   0.036  -0.028  0.00  0.00    -0.045 A 
ATOM     10  C   UNL     1      -0.009  -0.604  -1.214  0.00  0.00    +0.031 A 
ATOM     11  C   UNL     1       0.019  -2.072  -1.245  0.00  0.00    +0.061 A 
ATOM     12  N   UNL     1       0.028  -2.937  -2.219  0.00  0.00    -0.355 N 
ATOM     13  C   UNL     1       0.060  -4.276  -1.618  0.00  0.00    +0.236 C 
ATOM     14  N   UNL     1       0.070  -4.077  -0.163  0.00  0.00    -0.355 N 
ATOM     15  C   UNL     1       0.046  -2.794   0.056  0.00  0.00    +0.061 A 
ATOM     16  C   UNL     1       0.042  -1.991   1.286  0.00  0.00    +0.031 A 
ATOM     17  C   UNL     1       0.020  -0.646   1.202  0.00  0.00    -0.045 A 
ATOM     18  C   UNL     1       0.021   0.159   2.476  0.00  0.00    +0.044 C 
ATOM     19  H   UNL     1       0.014  -2.733  -3.167  0.00  0.00    +0.162 HD
ATOM     20  H   UNL     1       0.090  -4.774   0.511  0.00  0.00    +0.162 HD
ENDBRANCH   7  13
ENDBRANCH   6   7
ENDBRANCH   1   6
BRANCH   3  21
ATOM     21  C   UNL     1      -6.924  -5.499  -4.010  0.00  0.00    +0.108 C 
BRANCH  21  22
ATOM     22  C   UNL     1      -6.553  -6.587  -5.019  0.00  0.00    +0.105 C 
BRANCH  22  23
ATOM     23  C   UNL     1      -7.599  -6.645  -6.103  0.00  0.00    +0.218 C 
ATOM     24  O   UNL     1      -8.548  -5.890  -6.070  0.00  0.00    -0.275 OA
ATOM     25  N   UNL     1      -7.480  -7.535  -7.108  0.00  0.00    -0.285 N 
ATOM     26  H   UNL     1      -6.689  -8.092  -7.171  0.00  0.00    +0.155 HD
BRANCH  25  27
ATOM     27  C   UNL     1      -8.498  -7.655  -8.060  0.00  0.00    +0.033 A 
ATOM     28  C   UNL     1      -8.802  -8.898  -8.600  0.00  0.00    +0.024 A 
ATOM     29  C   UNL     1      -9.808  -9.013  -9.540  0.00  0.00    +0.014 A 
ATOM     30  C   UNL     1     -10.511  -7.893  -9.943  0.00  0.00    +0.055 A 
ATOM     31  C   UNL     1     -10.210  -6.654  -9.408  0.00  0.00    +0.014 A 
ATOM     32  C   UNL     1      -9.210  -6.533  -8.463  0.00  0.00    +0.024 A 
BRANCH  30  33
ATOM     33  C   UNL     1     -11.608  -8.022 -10.969  0.00  0.00    +0.417 C 
ATOM     34  F   UNL     1     -12.824  -8.266 -10.323  0.00  0.00    -0.166 F 
ATOM     35  F   UNL     1     -11.701  -6.836 -11.705  0.00  0.00    -0.166 F 
ATOM     36  F   UNL     1     -11.317  -9.084 -11.832  0.00  0.00    -0.166 F 
ENDBRANCH  30  33
ENDBRANCH  25  27
ENDBRANCH  22  23
ENDBRANCH  21  22
ENDBRANCH   3  21
TORSDOF 8
