REMARK  Name = ZINC16045756
REMARK  7 active torsions:
REMARK  status: ('A' for Active; 'I' for Inactive)
REMARK    1  A    between atoms: C_1  and  C_2
REMARK    2  A    between atoms: C_6  and  C_8
REMARK    3  A    between atoms: N_10  and  C_11
REMARK    4  A    between atoms: C_11  and  C_13
REMARK    5  A    between atoms: C_11  and  C_14
REMARK    6  A    between atoms: N_16  and  C_17
REMARK    7  A    between atoms: C_20  and  N_23
REMARK                            x       y       z     vdW  Elec       q    Type
REMARK                         _______ _______ _______ _____ _____    ______ ____
ROOT
ATOM      1  C   UNL     1       2.433   8.005   0.473  0.00  0.00    +0.237 C 
ATOM      2  O   UNL     1       3.350   7.249   0.712  0.00  0.00    -0.273 OA
ATOM      3  N   UNL     1       2.560   9.322   0.730  0.00  0.00    -0.284 N 
ATOM      4  H   UNL     1       1.857   9.937   0.468  0.00  0.00    +0.155 HD
ENDROOT
BRANCH   3   5
ATOM      5  C   UNL     1       3.707   9.802   1.373  0.00  0.00    +0.034 A 
ATOM      6  C   UNL     1       4.347   9.020   2.327  0.00  0.00    +0.025 A 
ATOM      7  C   UNL     1       5.481   9.491   2.956  0.00  0.00    +0.030 A 
ATOM      8  C   UNL     1       5.976  10.751   2.645  0.00  0.00    +0.069 A 
ATOM      9  C   UNL     1       5.333  11.534   1.696  0.00  0.00    +0.030 A 
ATOM     10  C   UNL     1       4.203  11.061   1.062  0.00  0.00    +0.025 A 
BRANCH   8  11
ATOM     11  N   UNL     1       7.126  11.231   3.290  0.00  0.00    -0.200 N 
ATOM     12  C   UNL     1       7.863  10.601   4.229  0.00  0.00    +0.250 A 
ATOM     13  N   UNL     1       8.842  11.403   4.558  0.00  0.00    -0.116 NA
ATOM     14  N   UNL     1       8.773  12.498   3.890  0.00  0.00    -0.023 NA
ATOM     15  N   UNL     1       7.760  12.470   3.092  0.00  0.00    -0.039 NA
ENDBRANCH   8  11
ENDBRANCH   3   5
BRANCH   1  16
ATOM     16  C   UNL     1       1.150   7.472  -0.111  0.00  0.00    +0.156 C 
ATOM     17  C   UNL     1       0.889   8.139  -1.463  0.00  0.00    +0.038 C 
BRANCH  16  20
ATOM     18  C   UNL     1       0.152   5.258  -0.312  0.00  0.00    +0.245 C 
ATOM     19  O   UNL     1      -0.942   5.771  -0.176  0.00  0.00    -0.270 OA
ATOM     20  N   UNL     1       1.262   6.023  -0.294  0.00  0.00    -0.300 N 
ATOM     21  H   UNL     1       2.134   5.614  -0.403  0.00  0.00    +0.150 HD
BRANCH  18  27
ATOM     22  C   UNL     1      -2.008   0.778  -0.721  0.00  0.00    +0.044 C 
ATOM     23  C   UNL     1      -0.770   1.637  -0.695  0.00  0.00    -0.050 A 
ATOM     24  C   UNL     1       0.476   1.056  -0.844  0.00  0.00    +0.003 A 
ATOM     25  C   UNL     1       1.617   1.838  -0.827  0.00  0.00    +0.001 A 
ATOM     26  C   UNL     1       1.519   3.204  -0.654  0.00  0.00    +0.013 A 
ATOM     27  C   UNL     1       0.265   3.796  -0.498  0.00  0.00    +0.037 A 
ATOM     28  C   UNL     1      -0.882   3.001  -0.516  0.00  0.00    +0.016 A 
ENDBRANCH  18  27
ENDBRANCH  16  20
ENDBRANCH   1  16
TORSDOF 5
