REMARK  Name = ZINC34571701
REMARK  3 active torsions:
REMARK  status: ('A' for Active; 'I' for Inactive)
REMARK    1  A    between atoms: C_3  and  N_19
REMARK    2  A    between atoms: C_6  and  C_7
REMARK    3  A    between atoms: C_7  and  C_12
REMARK                            x       y       z     vdW  Elec       q    Type
REMARK                         _______ _______ _______ _____ _____    ______ ____
ROOT
ATOM      1  C   UNL     1      -1.293  -0.775   0.010  0.00  0.00    +0.224 C 
ATOM      2  O   UNL     1      -1.114  -2.027  -0.674  0.00  0.00    -0.339 OA
ATOM      3  C   UNL     1      -2.369  -2.259  -1.357  0.00  0.00    +0.192 C 
ATOM      4  C   UNL     1      -2.772  -0.821  -1.771  0.00  0.00    +0.192 C 
ATOM      5  O   UNL     1      -2.307  -0.021  -0.666  0.00  0.00    -0.339 OA
ENDROOT
BRANCH   1   6
ATOM      6  C   UNL     1      -1.718  -1.035   1.432  0.00  0.00    +0.016 A 
ATOM      7  C   UNL     1      -1.296  -2.181   2.081  0.00  0.00    +0.010 A 
ATOM      8  C   UNL     1      -1.685  -2.420   3.386  0.00  0.00    +0.020 A 
ATOM      9  C   UNL     1      -2.498  -1.513   4.042  0.00  0.00    +0.041 A 
ATOM     10  C   UNL     1      -2.921  -0.367   3.392  0.00  0.00    +0.020 A 
ATOM     11  C   UNL     1      -2.526  -0.126   2.089  0.00  0.00    +0.010 A 
ATOM     12 CL   UNL     1      -2.989  -1.813   5.680  0.00  0.00    -0.084 Cl
ENDBRANCH   1   6
BRANCH   1  18
ATOM     13  C   UNL     1      -0.017   1.378   0.010  0.00  0.00    +0.011 A 
ATOM     14  C   UNL     1       1.171   2.086   0.002  0.00  0.00    +0.033 A 
ATOM     15  C   UNL     1       2.377   1.411  -0.013  0.00  0.00    +0.126 A 
ATOM     16  C   UNL     1       2.396   0.029  -0.020  0.00  0.00    +0.033 A 
ATOM     17  C   UNL     1       1.208  -0.679  -0.012  0.00  0.00    +0.011 A 
ATOM     18  C   UNL     1       0.002  -0.004   0.002  0.00  0.00    +0.016 A 
BRANCH  15  19
ATOM     19  N   UNL     1       3.649   2.168  -0.022  0.00  0.00    +0.056 N 
ATOM     20  O   UNL     1       3.633   3.377  -0.016  0.00  0.00    -0.126 OA
ATOM     21  O   UNL     1       4.704   1.578  -0.035  0.00  0.00    -0.126 OA
ENDBRANCH  15  19
ENDBRANCH   1  18
TORSDOF 3
