REMARK  Name = ZINC17247956
REMARK  7 active torsions:
REMARK  status: ('A' for Active; 'I' for Inactive)
REMARK    1  A    between atoms: C_1  and  C_2
REMARK    2  A    between atoms: C_5  and  S_8
REMARK    3  A    between atoms: S_8  and  N_11
REMARK    4  A    between atoms: C_25  and  N_27
REMARK    5  A    between atoms: N_27  and  C_28
REMARK    6  A    between atoms: C_31  and  O_34
REMARK    7  A    between atoms: O_34  and  C_35
REMARK                            x       y       z     vdW  Elec       q    Type
REMARK                         _______ _______ _______ _____ _____    ______ ____
ROOT
ATOM      1  N   UNL     1       1.135   5.916  -1.816  0.00  0.00    -0.174 NA
ATOM      2  C   UNL     1       2.129   5.537  -0.800  0.00  0.00    +0.128 C 
ATOM      3  C   UNL     1       2.276   4.012  -0.808  0.00  0.00    +0.125 C 
ATOM      4  N   UNL     1       0.953   3.396  -0.642  0.00  0.00    -0.299 N 
ATOM      5  C   UNL     1       0.066   3.726  -1.766  0.00  0.00    +0.125 C 
ATOM      6  C   UNL     1      -0.171   5.239  -1.798  0.00  0.00    +0.128 C 
ATOM      7  C   UNL     1       1.060   2.026  -0.481  0.00  0.00    +0.198 A 
ATOM      8  N   UNL     1       2.262   1.481  -0.496  0.00  0.00    -0.327 N 
ATOM      9  C   UNL     1       2.408   0.156  -0.344  0.00  0.00    +0.052 A 
ATOM     10  C   UNL     1       3.669  -0.456  -0.355  0.00  0.00    +0.026 A 
ATOM     11  C   UNL     1       3.763  -1.807  -0.196  0.00  0.00    +0.002 A 
ATOM     12  C   UNL     1       2.625  -2.589  -0.022  0.00  0.00    +0.001 A 
ATOM     13  C   UNL     1       1.383  -2.025  -0.006  0.00  0.00    +0.013 A 
ATOM     14  C   UNL     1       1.252  -0.642  -0.167  0.00  0.00    +0.038 A 
ATOM     15  C   UNL     1      -0.012  -0.001  -0.159  0.00  0.00    +0.136 A 
ATOM     16  N   UNL     1      -0.051   1.314  -0.318  0.00  0.00    -0.200 NA
ATOM     17  H   UNL     1       3.151   2.113  -0.634  0.00  0.00    +0.169 HD
ENDROOT
BRANCH   1  18
ATOM     18  S   UNL     1       1.476   7.074  -2.949  0.00  0.00    +0.061 S 
ATOM     19  O   UNL     1       0.228   7.599  -3.382  0.00  0.00    -0.153 OA
ATOM     20  O   UNL     1       2.497   7.894  -2.397  0.00  0.00    -0.153 OA
BRANCH  18  25
ATOM     21  C   UNL     1       3.903   4.261  -7.703  0.00  0.00    +0.044 C 
ATOM     22  C   UNL     1       3.297   4.964  -6.516  0.00  0.00    -0.050 A 
ATOM     23  C   UNL     1       1.928   5.144  -6.444  0.00  0.00    +0.005 A 
ATOM     24  C   UNL     1       1.372   5.788  -5.355  0.00  0.00    +0.029 A 
ATOM     25  C   UNL     1       2.184   6.253  -4.337  0.00  0.00    +0.105 A 
ATOM     26  C   UNL     1       3.554   6.077  -4.411  0.00  0.00    +0.029 A 
ATOM     27  C   UNL     1       4.109   5.428  -5.498  0.00  0.00    +0.005 A 
ENDBRANCH  18  25
ENDBRANCH   1  18
BRANCH  15  28
ATOM     28  N   UNL     1      -1.172  -0.727   0.010  0.00  0.00    -0.299 N 
ATOM     29  H   UNL     1      -1.132  -1.826   0.049  0.00  0.00    +0.154 HD
BRANCH  28  30
ATOM     30  C   UNL     1      -2.400  -0.066   0.131  0.00  0.00    +0.033 A 
ATOM     31  C   UNL     1      -2.463   1.175   0.750  0.00  0.00    +0.027 A 
ATOM     32  C   UNL     1      -3.674   1.829   0.865  0.00  0.00    +0.047 A 
ATOM     33  C   UNL     1      -4.830   1.240   0.373  0.00  0.00    +0.120 A 
ATOM     34  C   UNL     1      -4.769  -0.003  -0.241  0.00  0.00    +0.047 A 
ATOM     35  C   UNL     1      -3.558  -0.655  -0.362  0.00  0.00    +0.027 A 
BRANCH  33  36
ATOM     36  O   UNL     1      -6.023   1.881   0.491  0.00  0.00    -0.495 OA
ATOM     37  C   UNL     1      -6.012   3.158   1.134  0.00  0.00    +0.277 C 
ENDBRANCH  33  36
ENDBRANCH  28  30
ENDBRANCH  15  28
TORSDOF 5
