REMARK  Name = ZINC02741185
REMARK  7 active torsions:
REMARK  status: ('A' for Active; 'I' for Inactive)
REMARK    1  A    between atoms: C_1  and  C_2
REMARK    2  A    between atoms: C_4  and  C_16
REMARK    3  A    between atoms: C_6  and  C_12
REMARK    4  A    between atoms: N_9  and  C_11
REMARK    5  A    between atoms: C_12  and  C_13
REMARK    6  A    between atoms: C_12  and  C_14
REMARK    7  A    between atoms: C_12  and  C_15
REMARK                            x       y       z     vdW  Elec       q    Type
REMARK                         _______ _______ _______ _____ _____    ______ ____
ROOT
ATOM      1  C   UNL     1       0.656   4.629   0.020  0.00  0.00    +0.068 C 
ATOM      2  C   UNL     1       1.594   3.450   0.005  0.00  0.00    +0.070 A 
ATOM      3  C   UNL     1       1.209   2.043   0.002  0.00  0.00    +0.053 A 
ATOM      4  C   UNL     1      -0.017   1.366   0.010  0.00  0.00    +0.069 A 
ATOM      5  C   UNL     1       0.002  -0.004   0.002  0.00  0.00    +0.037 A 
ATOM      6  C   UNL     1       1.218  -0.674  -0.013  0.00  0.00    +0.050 A 
ATOM      7  N   UNL     1       2.362  -0.026  -0.021  0.00  0.00    -0.232 NA
ATOM      8  C   UNL     1       2.406   1.301  -0.014  0.00  0.00    +0.159 A 
ATOM      9  N   UNL     1       3.429   2.210  -0.019  0.00  0.00    -0.249 N 
ATOM     10  N   UNL     1       2.895   3.503  -0.007  0.00  0.00    -0.174 NA
ATOM     11  C   UNL     1       4.856   1.882  -0.034  0.00  0.00    +0.174 C 
ENDROOT
BRANCH   6  12
ATOM     12  C   UNL     1       1.226  -2.181  -0.022  0.00  0.00    +0.005 C 
ATOM     13  C   UNL     1       0.843  -2.685  -1.415  0.00  0.00    +0.017 C 
ATOM     14  C   UNL     1       2.626  -2.685   0.336  0.00  0.00    +0.017 C 
ATOM     15  C   UNL     1       0.219  -2.703   1.005  0.00  0.00    +0.017 C 
ENDBRANCH   6  12
BRANCH   4  16
ATOM     16  C   UNL     1      -1.320   2.123   0.020  0.00  0.00    +0.418 C 
ATOM     17  F   UNL     1      -2.385   1.216   0.020  0.00  0.00    -0.166 F 
ATOM     18  F   UNL     1      -1.386   2.921   1.167  0.00  0.00    -0.166 F 
ATOM     19  F   UNL     1      -1.397   2.933  -1.118  0.00  0.00    -0.166 F 
ENDBRANCH   4  16
TORSDOF 2
