REMARK  Name = ZINC41514854
REMARK  10 active torsions:
REMARK  status: ('A' for Active; 'I' for Inactive)
REMARK    1  A    between atoms: C_1  and  C_2
REMARK    2  A    between atoms: C_2  and  N_3
REMARK    3  A    between atoms: N_6  and  C_9
REMARK    4  A    between atoms: C_9  and  C_10
REMARK    5  A    between atoms: C_11  and  O_31
REMARK    6  A    between atoms: C_13  and  C_30
REMARK    7  A    between atoms: C_18  and  C_19
REMARK    8  A    between atoms: C_22  and  C_25
REMARK    9  A    between atoms: C_25  and  C_26
REMARK   10  A    between atoms: C_25  and  C_27
REMARK                            x       y       z     vdW  Elec       q    Type
REMARK                         _______ _______ _______ _____ _____    ______ ____
ROOT
ATOM      1  C   UNL     1       1.195  -4.136   4.307  0.00  0.00    +0.051 A 
ATOM      2  C   UNL     1       0.157  -4.764   4.977  0.00  0.00    +0.125 A 
ATOM      3  C   UNL     1       0.217  -6.125   5.261  0.00  0.00    +0.050 A 
ATOM      4  C   UNL     1       1.306  -6.858   4.879  0.00  0.00    -0.033 A 
ATOM      5  C   UNL     1       2.358  -6.239   4.204  0.00  0.00    +0.071 A 
ATOM      6  C   UNL     1       2.306  -4.868   3.907  0.00  0.00    +0.148 A 
ATOM      7  O   UNL     1       3.426  -4.501   3.248  0.00  0.00    -0.451 OA
ATOM      8  C   UNL     1       4.265  -5.546   3.060  0.00  0.00    +0.176 C 
ATOM      9  C   UNL     1       5.468  -5.506   2.434  0.00  0.00    +0.058 C 
ATOM     10  C   UNL     1       3.640  -6.732   3.668  0.00  0.00    +0.232 C 
ATOM     11  O   UNL     1       4.079  -7.868   3.709  0.00  0.00    -0.283 OA
ATOM     12  C   UNL     1       1.369  -8.332   5.188  0.00  0.00    +0.045 C 
ENDROOT
BRANCH   9  13
ATOM     13  C   UNL     1       6.033  -4.218   2.010  0.00  0.00    -0.021 A 
ATOM     14  C   UNL     1       5.421  -3.020   2.396  0.00  0.00    +0.008 A 
ATOM     15  C   UNL     1       5.958  -1.815   1.994  0.00  0.00    +0.004 A 
ATOM     16  C   UNL     1       7.098  -1.788   1.210  0.00  0.00    -0.045 A 
ATOM     17  C   UNL     1       7.710  -2.969   0.823  0.00  0.00    +0.004 A 
ATOM     18  C   UNL     1       7.190  -4.182   1.223  0.00  0.00    +0.008 A 
BRANCH  16  19
ATOM     19  C   UNL     1       7.678  -0.467   0.774  0.00  0.00    +0.013 C 
ATOM     20  C   UNL     1       9.107  -0.337   1.305  0.00  0.00    +0.012 C 
ATOM     21  C   UNL     1       7.693  -0.396  -0.754  0.00  0.00    +0.012 C 
ENDBRANCH  16  19
ENDBRANCH   9  13
BRANCH   2  22
ATOM     22  O   UNL     1      -0.929  -4.044   5.360  0.00  0.00    -0.506 OA
ATOM     23  H   UNL     1      -1.634  -4.014   4.699  0.00  0.00    +0.292 HD
ENDBRANCH   2  22
BRANCH   1  24
ATOM     24  C   UNL     1       1.116  -2.662   4.007  0.00  0.00    +0.126 C 
BRANCH  24  28
ATOM     25  N   UNL     1       0.297  -1.391   0.059  0.00  0.00    +0.381 N 
ATOM     26  C   UNL     1      -0.559  -0.884   1.139  0.00  0.00    -0.063 C 
ATOM     27  C   UNL     1       0.162  -1.042   2.479  0.00  0.00    +0.066 C 
ATOM     28  N   UNL     1       0.472  -2.461   2.701  0.00  0.00    -0.301 NA
ATOM     29  C   UNL     1       1.308  -2.990   1.615  0.00  0.00    +0.066 C 
ATOM     30  C   UNL     1       0.577  -2.816   0.282  0.00  0.00    -0.063 C 
ATOM     31  H   UNL     1       1.165  -0.876   0.048  0.00  0.00    -0.082 HD
BRANCH  25  33
ATOM     32  C   UNL     1      -0.569   0.268  -1.520  0.00  0.00    -0.017 C 
ATOM     33  C   UNL     1      -0.389  -1.223  -1.229  0.00  0.00    -0.082 C 
ENDBRANCH  25  33
ENDBRANCH  24  28
ENDBRANCH   1  24
TORSDOF 6
