REMARK  Name = ZINC07991226
REMARK  11 active torsions:
REMARK  status: ('A' for Active; 'I' for Inactive)
REMARK    1  A    between atoms: C_1  and  C_2
REMARK    2  A    between atoms: C_2  and  C_4
REMARK    3  A    between atoms: C_6  and  C_18
REMARK    4  A    between atoms: C_12  and  C_13
REMARK    5  A    between atoms: C_12  and  O_17
REMARK    6  A    between atoms: C_20  and  O_28
REMARK    7  A    between atoms: C_21  and  O_26
REMARK    8  A    between atoms: C_22  and  O_24
REMARK    9  A    between atoms: O_24  and  C_25
REMARK   10  A    between atoms: O_26  and  C_27
REMARK   11  A    between atoms: O_28  and  C_29
REMARK                            x       y       z     vdW  Elec       q    Type
REMARK                         _______ _______ _______ _____ _____    ______ ____
ROOT
ATOM      1  C   UNL     1      -0.899  -3.578   0.344  0.00  0.00    +0.139 C 
ATOM      2  C   UNL     1      -1.188  -2.103   0.642  0.00  0.00    +0.120 C 
ATOM      3  N   UNL     1      -2.630  -1.869   0.555  0.00  0.00    -0.292 N 
ATOM      4  C   UNL     1      -3.408  -2.602  -0.254  0.00  0.00    +0.302 C 
ATOM      5  O   UNL     1      -4.599  -2.360  -0.297  0.00  0.00    -0.253 OA
ATOM      6  N   UNL     1      -2.925  -3.593  -1.019  0.00  0.00    -0.264 N 
ATOM      7  C   UNL     1      -1.496  -3.929  -1.023  0.00  0.00    +0.243 C 
ATOM      8  H   UNL     1      -3.031  -1.169   1.094  0.00  0.00    +0.151 HD
ATOM      9  H   UNL     1      -3.533  -4.099  -1.581  0.00  0.00    +0.153 HD
ENDROOT
BRANCH   2  10
ATOM     10  C   UNL     1      -0.704  -1.766   2.029  0.00  0.00    -0.019 A 
ATOM     11  C   UNL     1       0.587  -1.309   2.217  0.00  0.00    +0.055 A 
ATOM     12  C   UNL     1       1.036  -0.998   3.492  0.00  0.00    +0.165 A 
ATOM     13  C   UNL     1       0.186  -1.145   4.581  0.00  0.00    +0.204 A 
ATOM     14  C   UNL     1      -1.112  -1.604   4.388  0.00  0.00    +0.165 A 
ATOM     15  C   UNL     1      -1.555  -1.908   3.110  0.00  0.00    +0.055 A 
BRANCH  14  16
ATOM     16  O   UNL     1      -1.948  -1.750   5.451  0.00  0.00    -0.491 OA
ATOM     17  C   UNL     1      -3.267  -2.226   5.178  0.00  0.00    +0.277 C 
ENDBRANCH  14  16
BRANCH  13  18
ATOM     18  O   UNL     1       0.623  -0.842   5.833  0.00  0.00    -0.488 OA
ATOM     19  C   UNL     1       0.430   0.502   6.280  0.00  0.00    +0.277 C 
ENDBRANCH  13  18
BRANCH  12  20
ATOM     20  O   UNL     1       2.307  -0.550   3.675  0.00  0.00    -0.491 OA
ATOM     21  C   UNL     1       3.125  -0.424   2.511  0.00  0.00    +0.277 C 
ENDBRANCH  12  20
ENDBRANCH   2  10
BRANCH   7  22
ATOM     22  C   UNL     1      -0.786  -3.126  -2.113  0.00  0.00    +0.436 C 
ATOM     23  F   UNL     1       0.578  -3.436  -2.108  0.00  0.00    -0.166 F 
ATOM     24  F   UNL     1      -1.332  -3.447  -3.361  0.00  0.00    -0.166 F 
ATOM     25  F   UNL     1      -0.954  -1.758  -1.869  0.00  0.00    -0.166 F 
ENDBRANCH   7  22
BRANCH   1  27
ATOM     26  C   UNL     1      -0.835  -5.703   1.859  0.00  0.00    +0.086 C 
ATOM     27  C   UNL     1      -1.526  -4.442   1.408  0.00  0.00    +0.140 C 
ATOM     28  O   UNL     1      -2.582  -4.123   1.899  0.00  0.00    -0.297 OA
ENDBRANCH   1  27
BRANCH   7  29
ATOM     29  O   UNL     1      -1.329  -5.327  -1.272  0.00  0.00    -0.364 OA
ATOM     30  H   UNL     1      -1.685  -5.620  -2.122  0.00  0.00    +0.212 HD
ENDBRANCH   7  29
TORSDOF 7
