REMARK  Name = ZINC16159109
REMARK  7 active torsions:
REMARK  status: ('A' for Active; 'I' for Inactive)
REMARK    1  A    between atoms: C_1  and  C_2
REMARK    2  A    between atoms: C_2  and  C_4
REMARK    3  A    between atoms: C_2  and  O_19
REMARK    4  A    between atoms: N_6  and  C_7
REMARK    5  A    between atoms: C_8  and  C_17
REMARK    6  A    between atoms: O_19  and  C_20
REMARK    7  A    between atoms: C_20  and  C_22
REMARK                            x       y       z     vdW  Elec       q    Type
REMARK                         _______ _______ _______ _____ _____    ______ ____
ROOT
ATOM      1  C   UNL     1       6.606  -2.404   1.594  0.00  0.00    +0.258 C 
ATOM      2  O   UNL     1       6.904  -1.602   0.734  0.00  0.00    -0.271 OA
ATOM      3  N   UNL     1       5.327  -2.503   2.010  0.00  0.00    -0.276 N 
ATOM      4  H   UNL     1       5.089  -3.144   2.697  0.00  0.00    +0.155 HD
ENDROOT
BRANCH   3   5
ATOM      5  C   UNL     1       4.352  -1.687   1.454  0.00  0.00    +0.090 A 
ATOM      6  C   UNL     1       2.999  -1.641   1.746  0.00  0.00    +0.084 A 
ATOM      7  C   UNL     1       2.179  -0.684   1.016  0.00  0.00    -0.018 A 
ATOM      8  C   UNL     1       2.847   0.062   0.110  0.00  0.00    -0.004 A 
ATOM      9  S   UNL     1       4.530  -0.479   0.226  0.00  0.00    -0.077 S 
ATOM     10  C   UNL     1       2.288   1.105  -0.807  0.00  0.00    +0.043 C 
ATOM     11  C   UNL     1       1.406   2.068  -0.000  0.00  0.00    +0.005 C 
ATOM     12  C   UNL     1      -0.019   1.523   0.010  0.00  0.00    +0.001 C 
ATOM     13  C   UNL     1       0.002  -0.004   0.002  0.00  0.00    +0.005 C 
ATOM     14  C   UNL     1       0.682  -0.535   1.259  0.00  0.00    +0.037 C 
BRANCH   6  15
ATOM     15  C   UNL     1       2.425  -2.506   2.733  0.00  0.00    +0.102 C 
ATOM     16  N   UNL     1       1.970  -3.192   3.515  0.00  0.00    -0.191 NA
ENDBRANCH   6  15
ENDBRANCH   3   5
BRANCH   1  18
ATOM     17  C   UNL     1       7.832  -2.948   3.679  0.00  0.00    +0.062 C 
ATOM     18  C   UNL     1       7.665  -3.290   2.198  0.00  0.00    +0.259 C 
BRANCH  18  19
ATOM     19  O   UNL     1       8.924  -3.078   1.507  0.00  0.00    -0.449 OA
BRANCH  19  20
ATOM     20  C   UNL     1       9.771  -4.125   1.442  0.00  0.00    +0.343 C 
ATOM     21  O   UNL     1       9.464  -5.186   1.950  0.00  0.00    -0.245 OA
BRANCH  20  22
ATOM     22  C   UNL     1      11.066  -3.983   0.757  0.00  0.00    +0.097 A 
ATOM     23  C   UNL     1      12.105  -5.012   0.599  0.00  0.00    +0.056 A 
ATOM     24  C   UNL     1      13.097  -4.430  -0.092  0.00  0.00    +0.195 A 
ATOM     25  O   UNL     1      12.763  -3.157  -0.355  0.00  0.00    -0.470 OA
ATOM     26  C   UNL     1      11.556  -2.868   0.142  0.00  0.00    +0.209 A 
ENDBRANCH  20  22
ENDBRANCH  19  20
ENDBRANCH  18  19
ENDBRANCH   1  18
TORSDOF 6
