REMARK  Name = ZINC65872792
REMARK  9 active torsions:
REMARK  status: ('A' for Active; 'I' for Inactive)
REMARK    1  A    between atoms: C_1  and  C_2
REMARK    2  A    between atoms: C_2  and  S_3
REMARK    3  A    between atoms: S_3  and  N_6
REMARK    4  A    between atoms: N_6  and  C_7
REMARK    5  A    between atoms: C_12  and  C_13
REMARK    6  A    between atoms: N_15  and  C_16
REMARK    7  A    between atoms: C_16  and  C_17
REMARK    8  A    between atoms: C_16  and  C_18
REMARK    9  A    between atoms: C_22  and  N_24
REMARK                            x       y       z     vdW  Elec       q    Type
REMARK                         _______ _______ _______ _____ _____    ______ ____
ROOT
ATOM      1  C   UNL     1      -1.215  -5.106  -0.014  0.00  0.00    +0.246 C 
ATOM      2  O   UNL     1      -0.219  -4.409  -0.019  0.00  0.00    -0.270 OA
ATOM      3  N   UNL     1      -1.098  -6.448  -0.022  0.00  0.00    -0.305 N 
ATOM      4  H   UNL     1      -1.893  -7.004  -0.018  0.00  0.00    +0.150 HD
ENDROOT
BRANCH   1  10
ATOM      5  C   UNL     1      -2.678  -3.084   0.011  0.00  0.00    +0.086 A 
ATOM      6  C   UNL     1      -3.942  -2.509   0.020  0.00  0.00    +0.027 A 
ATOM      7  C   UNL     1      -5.066  -3.309   0.026  0.00  0.00    +0.002 A 
ATOM      8  C   UNL     1      -4.944  -4.690   0.023  0.00  0.00    +0.001 A 
ATOM      9  C   UNL     1      -3.699  -5.279   0.014  0.00  0.00    +0.015 A 
ATOM     10  C   UNL     1      -2.551  -4.482   0.002  0.00  0.00    +0.061 A 
BRANCH   5  11
ATOM     11  N   UNL     1      -1.545  -2.281   0.005  0.00  0.00    -0.102 NA
BRANCH  11  12
ATOM     12  S   UNL     1      -1.700  -0.632   0.015  0.00  0.00    +0.062 S 
ATOM     13  O   UNL     1      -2.322  -0.334   1.257  0.00  0.00    -0.154 OA
ATOM     14  O   UNL     1      -2.346  -0.321  -1.212  0.00  0.00    -0.154 OA
BRANCH  12  16
ATOM     15  C   UNL     1      -0.019   1.526   0.010  0.00  0.00    +0.030 C 
ATOM     16  C   UNL     1       0.002  -0.004   0.002  0.00  0.00    +0.187 C 
ENDBRANCH  12  16
ENDBRANCH  11  12
ENDBRANCH   5  11
ENDBRANCH   1  10
BRANCH   3  17
ATOM     17  C   UNL     1       0.229  -7.068  -0.038  0.00  0.00    +0.100 C 
ATOM     18  C   UNL     1       0.731  -7.162  -1.480  0.00  0.00    +0.033 C 
BRANCH  17  19
ATOM     19  C   UNL     1       0.145  -8.450   0.556  0.00  0.00    -0.025 A 
ATOM     20  C   UNL     1      -0.934  -9.264   0.264  0.00  0.00    +0.005 A 
ATOM     21  C   UNL     1      -1.011 -10.532   0.809  0.00  0.00    +0.003 A 
ATOM     22  C   UNL     1      -0.008 -10.987   1.645  0.00  0.00    +0.033 A 
ATOM     23  C   UNL     1       1.071 -10.174   1.936  0.00  0.00    +0.127 A 
ATOM     24  C   UNL     1       1.150  -8.908   1.387  0.00  0.00    +0.038 A 
BRANCH  23  25
ATOM     25  N   UNL     1       2.144 -10.662   2.831  0.00  0.00    +0.056 N 
ATOM     26  O   UNL     1       2.077 -11.770   3.308  0.00  0.00    -0.126 OA
ATOM     27  O   UNL     1       3.089  -9.951   3.085  0.00  0.00    -0.126 OA
ENDBRANCH  23  25
ENDBRANCH  17  19
ENDBRANCH   3  17
TORSDOF 7
