REMARK  Name = ZINC20212565
REMARK  6 active torsions:
REMARK  status: ('A' for Active; 'I' for Inactive)
REMARK    1  A    between atoms: C_1  and  C_2
REMARK    2  A    between atoms: C_2  and  N_3
REMARK    3  A    between atoms: N_3  and  C_4
REMARK    4  A    between atoms: C_6  and  O_11
REMARK    5  A    between atoms: C_9  and  C_10
REMARK    6  A    between atoms: C_12  and  C_14
REMARK                            x       y       z     vdW  Elec       q    Type
REMARK                         _______ _______ _______ _____ _____    ______ ____
ROOT
ATOM      1  N   UNL     1       3.432   2.417  -2.948  0.00  0.00    -0.267 N 
ATOM      2  C   UNL     1       4.659   1.860  -2.958  0.00  0.00    +0.254 C 
ATOM      3  O   UNL     1       5.590   2.449  -3.474  0.00  0.00    -0.270 OA
ENDROOT
BRANCH   1   4
ATOM      4  C   UNL     1       2.419   1.864  -2.158  0.00  0.00    +0.043 A 
ATOM      5  C   UNL     1       1.663   0.804  -2.640  0.00  0.00    +0.069 A 
ATOM      6  C   UNL     1       0.660   0.258  -1.854  0.00  0.00    +0.119 A 
ATOM      7  C   UNL     1       0.412   0.775  -0.590  0.00  0.00    +0.046 A 
ATOM      8  C   UNL     1       1.169   1.826  -0.110  0.00  0.00    +0.009 A 
ATOM      9  C   UNL     1       2.170   2.373  -0.890  0.00  0.00    -0.029 A 
ATOM     10  C   UNL     1       2.990   3.523  -0.366  0.00  0.00    +0.045 C 
BRANCH   6  11
ATOM     11  O   UNL     1      -0.082  -0.779  -2.322  0.00  0.00    -0.507 OA
ATOM     12  H   UNL     1      -0.878  -1.212  -1.698  0.00  0.00    +0.292 HD
ENDBRANCH   6  11
ENDBRANCH   1   4
BRANCH   2  13
ATOM     13  C   UNL     1       4.873   0.536  -2.344  0.00  0.00    +0.072 A 
ATOM     14  C   UNL     1       5.737  -0.406  -2.960  0.00  0.00    +0.023 A 
ATOM     15  C   UNL     1       5.918  -1.616  -2.366  0.00  0.00    +0.093 A 
ATOM     16  C   UNL     1       5.238  -1.905  -1.167  0.00  0.00    +0.337 A 
ATOM     17  O   UNL     1       5.391  -2.989  -0.631  0.00  0.00    -0.245 OA
ATOM     18  O   UNL     1       4.422  -0.995  -0.610  0.00  0.00    -0.430 OA
ATOM     19  C   UNL     1       4.233   0.203  -1.173  0.00  0.00    +0.212 A 
ENDBRANCH   2  13
BRANCH   1  21
ATOM     20  C   UNL     1       3.622   4.854  -3.018  0.00  0.00    +0.025 C 
ATOM     21  C   UNL     1       3.159   3.602  -3.765  0.00  0.00    +0.110 C 
ENDBRANCH   1  21
TORSDOF 4
