REMARK  Name = ZINC34773389
REMARK  4 active torsions:
REMARK  status: ('A' for Active; 'I' for Inactive)
REMARK    1  A    between atoms: C_1  and  C_2
REMARK    2  A    between atoms: C_16  and  S_17
REMARK    3  A    between atoms: S_17  and  C_18
REMARK    4  A    between atoms: C_18  and  C_19
REMARK                            x       y       z     vdW  Elec       q    Type
REMARK                         _______ _______ _______ _____ _____    ______ ____
ROOT
ATOM      1  C   UNL     1      -0.018   1.503   0.010  0.00  0.00    +0.090 C 
ATOM      2  C   UNL     1       0.002  -0.004   0.002  0.00  0.00    +0.149 A 
ATOM      3  N   UNL     1       0.007  -0.767  -1.089  0.00  0.00    -0.211 NA
ATOM      4  C   UNL     1       0.027  -2.038  -0.738  0.00  0.00    +0.170 A 
ATOM      5  C   UNL     1       0.041  -3.292  -1.533  0.00  0.00    +0.054 A 
ATOM      6  C   UNL     1       0.032  -3.438  -2.989  0.00  0.00    -0.024 A 
ATOM      7  C   UNL     1       0.048  -4.696  -3.479  0.00  0.00    -0.004 A 
ATOM      8  S   UNL     1       0.076  -5.739  -2.046  0.00  0.00    -0.075 S 
ATOM      9  C   UNL     1       0.063  -4.473  -0.801  0.00  0.00    +0.101 A 
ATOM     10  N   UNL     1       0.071  -4.485   0.572  0.00  0.00    -0.248 N 
ATOM     11  C   UNL     1       0.056  -3.310   1.283  0.00  0.00    +0.260 A 
ATOM     12  N   UNL     1       0.035  -2.096   0.619  0.00  0.00    -0.177 N 
ATOM     13  N   UNL     1       0.023  -0.766   1.067  0.00  0.00    -0.147 NA
ATOM     14  N   UNL     1       0.066  -3.629   2.554  0.00  0.00    -0.107 NA
ATOM     15  N   UNL     1       0.088  -4.907   2.687  0.00  0.00    -0.120 NA
ATOM     16  C   UNL     1       0.091  -5.483   1.508  0.00  0.00    +0.198 A 
ATOM     17  C   UNL     1       0.042  -5.111  -4.918  0.00  0.00    +0.043 C 
ATOM     18  C   UNL     1      -0.361  -3.897  -5.769  0.00  0.00    +0.005 C 
ATOM     19  C   UNL     1       0.461  -2.687  -5.317  0.00  0.00    +0.005 C 
ATOM     20  C   UNL     1       0.006  -2.236  -3.929  0.00  0.00    +0.037 C 
ENDROOT
BRANCH  16  21
ATOM     21  S   UNL     1       0.118  -7.216   1.190  0.00  0.00    -0.081 S 
BRANCH  21  22
ATOM     22  C   UNL     1       0.139  -7.965   2.842  0.00  0.00    +0.112 C 
BRANCH  22  23
ATOM     23  C   UNL     1       0.163  -9.467   2.712  0.00  0.00    -0.034 A 
ATOM     24  C   UNL     1      -1.017 -10.193   2.651  0.00  0.00    +0.024 A 
ATOM     25  C   UNL     1      -0.956 -11.568   2.532  0.00  0.00    +0.111 A 
ATOM     26  N   UNL     1       0.206 -12.190   2.478  0.00  0.00    -0.263 NA
ATOM     27  C   UNL     1       1.348 -11.531   2.533  0.00  0.00    +0.111 A 
ATOM     28  C   UNL     1       1.365 -10.154   2.646  0.00  0.00    +0.024 A 
ENDBRANCH  22  23
ENDBRANCH  21  22
ENDBRANCH  16  21
TORSDOF 3
