REMARK  Name = ZINC09794418
REMARK  10 active torsions:
REMARK  status: ('A' for Active; 'I' for Inactive)
REMARK    1  A    between atoms: C_1  and  C_2
REMARK    2  A    between atoms: C_6  and  C_7
REMARK    3  A    between atoms: C_7  and  N_58
REMARK    4  A    between atoms: C_8  and  N_58
REMARK    5  A    between atoms: C_9  and  N_10
REMARK    6  A    between atoms: C_9  and  N_58
REMARK    7  A    between atoms: C_13  and  C_17
REMARK    8  A    between atoms: C_13  and  C_24
REMARK    9  A    between atoms: C_17  and  C_18
REMARK   10  A    between atoms: C_24  and  C_25
REMARK                            x       y       z     vdW  Elec       q    Type
REMARK                         _______ _______ _______ _____ _____    ______ ____
ROOT
ATOM      1  N   UNL     1      -0.303   2.402   3.216  0.00  0.00    -0.241 N 
ATOM      2  C   UNL     1      -0.737   3.181   2.206  0.00  0.00    +0.245 C 
ATOM      3  O   UNL     1      -0.375   4.308   1.942  0.00  0.00    -0.273 OA
ATOM      4  C   UNL     1      -1.770   2.355   1.466  0.00  0.00    +0.120 C 
ATOM      5  N   UNL     1      -1.802   1.087   2.216  0.00  0.00    -0.284 N 
ATOM      6  C   UNL     1      -0.913   1.211   3.218  0.00  0.00    +0.308 C 
ATOM      7  O   UNL     1      -0.688   0.338   4.033  0.00  0.00    -0.252 OA
ATOM      8  H   UNL     1      -2.356   0.315   2.024  0.00  0.00    +0.151 HD
ENDROOT
BRANCH   1   9
ATOM      9  C   UNL     1       0.710   2.809   4.193  0.00  0.00    +0.043 C 
BRANCH   9  11
ATOM     10  C   UNL     1       2.323   1.018   3.963  0.00  0.00    -0.093 C 
ATOM     11  N   UNL     1       2.043   2.440   3.672  0.00  0.00    +0.392 N 
ATOM     12  H   UNL     1       2.055   2.581   2.655  0.00  0.00    -0.079 HD
BRANCH  11  13
ATOM     13  C   UNL     1       3.080   3.295   4.288  0.00  0.00    -0.034 C 
BRANCH  13  19
ATOM     14  C   UNL     1       4.123   4.760   1.798  0.00  0.00    +0.044 C 
ATOM     15  C   UNL     1       4.897   3.667   2.487  0.00  0.00    -0.042 A 
ATOM     16  C   UNL     1       6.136   3.278   2.014  0.00  0.00    +0.011 A 
ATOM     17  C   UNL     1       6.803   2.286   2.653  0.00  0.00    +0.045 A 
ATOM     18  S   UNL     1       5.675   1.875   3.974  0.00  0.00    -0.103 S 
ATOM     19  C   UNL     1       4.391   3.052   3.584  0.00  0.00    -0.024 A 
ENDBRANCH  13  19
ENDBRANCH  11  13
ENDBRANCH   9  11
ENDBRANCH   1   9
BRANCH   4  20
ATOM     20  C   UNL     1      -1.332   2.114   0.020  0.00  0.00    +0.070 C 
BRANCH  20  21
ATOM     21  C   UNL     1      -0.017   1.378   0.010  0.00  0.00    -0.045 A 
ATOM     22  C   UNL     1       1.171   2.086   0.002  0.00  0.00    +0.004 A 
ATOM     23  C   UNL     1       2.377   1.411  -0.014  0.00  0.00    +0.000 A 
ATOM     24  C   UNL     1       2.396   0.029  -0.022  0.00  0.00    +0.000 A 
ATOM     25  C   UNL     1       1.208  -0.679  -0.014  0.00  0.00    +0.000 A 
ATOM     26  C   UNL     1       0.002  -0.004   0.002  0.00  0.00    +0.004 A 
ENDBRANCH  20  21
ENDBRANCH   4  20
BRANCH   4  27
ATOM     27  C   UNL     1      -3.139   3.038   1.505  0.00  0.00    +0.070 C 
BRANCH  27  28
ATOM     28  C   UNL     1      -3.546   3.264   2.938  0.00  0.00    -0.045 A 
ATOM     29  C   UNL     1      -4.273   2.299   3.610  0.00  0.00    +0.004 A 
ATOM     30  C   UNL     1      -4.643   2.504   4.926  0.00  0.00    +0.000 A 
ATOM     31  C   UNL     1      -4.295   3.678   5.567  0.00  0.00    +0.000 A 
ATOM     32  C   UNL     1      -3.574   4.646   4.893  0.00  0.00    +0.000 A 
ATOM     33  C   UNL     1      -3.199   4.439   3.579  0.00  0.00    +0.004 A 
ENDBRANCH  27  28
ENDBRANCH   4  27
TORSDOF 8
