REMARK  Name = ZINC46728382
REMARK  6 active torsions:
REMARK  status: ('A' for Active; 'I' for Inactive)
REMARK    1  A    between atoms: C_9  and  C_12
REMARK    2  A    between atoms: C_12  and  N_13
REMARK    3  A    between atoms: N_16  and  C_17
REMARK    4  A    between atoms: C_17  and  C_18
REMARK    5  A    between atoms: C_18  and  C_20
REMARK    6  A    between atoms: C_18  and  N_25
REMARK                            x       y       z     vdW  Elec       q    Type
REMARK                         _______ _______ _______ _____ _____    ______ ____
ROOT
ATOM      1  N   UNL     1       6.019  -1.357  -0.620  0.00  0.00    -0.296 N 
ATOM      2  C   UNL     1       7.225  -1.944  -0.491  0.00  0.00    +0.300 C 
ATOM      3  O   UNL     1       7.358  -2.906   0.239  0.00  0.00    -0.253 OA
ATOM      4  N   UNL     1       8.284  -1.464  -1.173  0.00  0.00    -0.301 N 
ATOM      5  H   UNL     1       5.913  -0.589  -1.203  0.00  0.00    +0.150 HD
ATOM      6  H   UNL     1       8.179  -0.696  -1.756  0.00  0.00    +0.150 HD
ENDROOT
BRANCH   1   7
ATOM      7  C   UNL     1       4.868  -1.878   0.121  0.00  0.00    +0.153 C 
BRANCH   7  16
ATOM      8  C   UNL     1       0.546   2.794   0.377  0.00  0.00    +0.004 A 
ATOM      9  C   UNL     1       1.819   3.332   0.341  0.00  0.00    +0.004 A 
ATOM     10  C   UNL     1       2.921   2.501   0.281  0.00  0.00    +0.049 A 
ATOM     11  C   UNL     1       2.754   1.125   0.256  0.00  0.00    +0.163 A 
ATOM     12  C   UNL     1       1.474   0.584   0.290  0.00  0.00    +0.162 A 
ATOM     13  C   UNL     1       0.372   1.423   0.352  0.00  0.00    +0.049 A 
ATOM     14  O   UNL     1       1.286  -0.764   0.258  0.00  0.00    -0.485 OA
ATOM     15  C   UNL     1       2.421  -1.579   0.572  0.00  0.00    +0.275 C 
ATOM     16  C   UNL     1       3.631  -1.038  -0.202  0.00  0.00    +0.228 C 
ATOM     17  O   UNL     1       3.849   0.319   0.201  0.00  0.00    -0.480 OA
ENDBRANCH   7  16
ENDBRANCH   1   7
BRANCH   4  18
ATOM     18  C   UNL     1       9.596  -2.102  -1.033  0.00  0.00    +0.098 C 
BRANCH  18  19
ATOM     19  C   UNL     1      10.585  -1.453  -2.003  0.00  0.00    +0.016 C 
BRANCH  19  20
ATOM     20  N   UNL     1      10.038  -1.502  -3.366  0.00  0.00    +0.387 N 
ATOM     21  C   UNL     1       9.826  -2.901  -3.756  0.00  0.00    -0.078 C 
ATOM     22  C   UNL     1       9.181  -2.955  -5.143  0.00  0.00    -0.019 C 
ATOM     23  C   UNL     1      10.106  -2.276  -6.157  0.00  0.00    -0.004 C 
ATOM     24  C   UNL     1      10.380  -0.840  -5.700  0.00  0.00    -0.019 C 
ATOM     25  C   UNL     1      10.980  -0.864  -4.293  0.00  0.00    -0.078 C 
ATOM     26  H   UNL     1       9.157  -1.011  -3.392  0.00  0.00    -0.081 HD
ENDBRANCH  19  20
BRANCH  19  27
ATOM     27  C   UNL     1      10.812  -0.018  -1.604  0.00  0.00    +0.093 A 
ATOM     28  C   UNL     1      11.869   0.450  -0.916  0.00  0.00    +0.043 A 
ATOM     29  C   UNL     1      11.675   1.842  -0.764  0.00  0.00    +0.041 A 
ATOM     30  C   UNL     1      10.511   2.142  -1.368  0.00  0.00    +0.195 A 
ATOM     31  O   UNL     1       9.995   1.012  -1.880  0.00  0.00    -0.469 OA
ENDBRANCH  19  27
ENDBRANCH  18  19
ENDBRANCH   4  18
TORSDOF 6
