REMARK  Name = ZINC15894132
REMARK  7 active torsions:
REMARK  status: ('A' for Active; 'I' for Inactive)
REMARK    1  A    between atoms: C_1  and  C_2
REMARK    2  A    between atoms: C_3  and  C_7
REMARK    3  A    between atoms: N_9  and  N_10
REMARK    4  A    between atoms: C_11  and  C_13
REMARK    5  A    between atoms: C_16  and  N_19
REMARK    6  A    between atoms: N_19  and  S_20
REMARK    7  A    between atoms: S_20  and  C_23
REMARK                            x       y       z     vdW  Elec       q    Type
REMARK                         _______ _______ _______ _____ _____    ______ ____
ROOT
ATOM      1  C   UNL     1       1.251   2.082   0.071  0.00  0.00    +0.038 A 
ATOM      2  C   UNL     1       0.040   1.387   0.129  0.00  0.00    +0.015 A 
ATOM      3  C   UNL     1       0.036   0.011   0.098  0.00  0.00    +0.025 A 
ATOM      4  C   UNL     1       1.236  -0.689   0.010  0.00  0.00    +0.048 A 
ATOM      5  C   UNL     1       2.445   0.001  -0.048  0.00  0.00    +0.025 A 
ATOM      6  C   UNL     1       2.455   1.377  -0.018  0.00  0.00    +0.015 A 
ENDROOT
BRANCH   1   8
ATOM      7  N   UNL     1       2.428   4.226   0.048  0.00  0.00    -0.230 N 
ATOM      8  C   UNL     1       1.259   3.557   0.103  0.00  0.00    +0.260 C 
ATOM      9  O   UNL     1       0.211   4.169   0.180  0.00  0.00    -0.269 OA
ATOM     10  H   UNL     1       3.264   3.737  -0.014  0.00  0.00    +0.173 HD
BRANCH   7  13
ATOM     11  C   UNL     1       3.604   6.295   0.022  0.00  0.00    +0.263 C 
ATOM     12  O   UNL     1       4.652   5.683  -0.054  0.00  0.00    -0.269 OA
ATOM     13  N   UNL     1       2.435   5.626   0.078  0.00  0.00    -0.230 N 
ATOM     14  H   UNL     1       1.599   6.115   0.139  0.00  0.00    +0.173 HD
BRANCH  11  17
ATOM     15  C   UNL     1       6.137   8.142  -0.090  0.00  0.00    +0.087 C 
ATOM     16  C   UNL     1       4.701   8.589   0.007  0.00  0.00    +0.114 A 
ATOM     17  C   UNL     1       3.612   7.769   0.054  0.00  0.00    +0.079 A 
ATOM     18  C   UNL     1       2.447   8.662   0.138  0.00  0.00    +0.054 A 
ATOM     19  C   UNL     1       2.939   9.910   0.142  0.00  0.00    +0.196 A 
ATOM     20  O   UNL     1       4.278   9.856   0.060  0.00  0.00    -0.467 OA
ENDBRANCH  11  17
ENDBRANCH   7  13
ENDBRANCH   1   8
BRANCH   4  21
ATOM     21  N   UNL     1       1.229  -2.079  -0.021  0.00  0.00    -0.216 N 
ATOM     22  H   UNL     1       0.683  -2.575   0.609  0.00  0.00    +0.174 HD
BRANCH  21  23
ATOM     23  S   UNL     1       2.152  -2.887  -1.133  0.00  0.00    +0.072 S 
ATOM     24  O   UNL     1       3.473  -2.378  -1.011  0.00  0.00    -0.150 OA
ATOM     25  O   UNL     1       1.852  -4.268  -0.983  0.00  0.00    -0.150 OA
BRANCH  23  26
ATOM     26  C   UNL     1       1.575  -2.417  -2.730  0.00  0.00    +0.111 A 
ATOM     27  C   UNL     1       0.503  -3.077  -3.299  0.00  0.00    +0.032 A 
ATOM     28  C   UNL     1       0.045  -2.706  -4.549  0.00  0.00    +0.043 A 
ATOM     29  C   UNL     1       0.668  -1.679  -5.237  0.00  0.00    +0.159 A 
ATOM     30  C   UNL     1       1.747  -1.020  -4.669  0.00  0.00    +0.160 A 
ATOM     31  C   UNL     1       2.200  -1.391  -3.414  0.00  0.00    +0.070 A 
ATOM     32  F   UNL     1       2.356  -0.018  -5.339  0.00  0.00    -0.202 F 
ATOM     33  F   UNL     1       0.224  -1.319  -6.462  0.00  0.00    -0.202 F 
ENDBRANCH  23  26
ENDBRANCH  21  23
ENDBRANCH   4  21
TORSDOF 6
