REMARK  Name = ZINC63664182
REMARK  10 active torsions:
REMARK  status: ('A' for Active; 'I' for Inactive)
REMARK    1  A    between atoms: C_1  and  C_2
REMARK    2  A    between atoms: C_3  and  N_9
REMARK    3  A    between atoms: N_9  and  C_10
REMARK    4  A    between atoms: C_10  and  N_12
REMARK    5  A    between atoms: N_12  and  C_13
REMARK    6  A    between atoms: C_13  and  C_14
REMARK    7  A    between atoms: C_14  and  C_15
REMARK    8  A    between atoms: C_18  and  O_26
REMARK    9  A    between atoms: C_23  and  C_25
REMARK   10  A    between atoms: O_26  and  C_27
REMARK                            x       y       z     vdW  Elec       q    Type
REMARK                         _______ _______ _______ _____ _____    ______ ____
ROOT
ATOM      1  C   UNL     1       0.295  -0.692  -6.009  0.00  0.00    +0.107 C 
ENDROOT
BRANCH   1   2
ATOM      2  N   UNL     1       0.181   0.030  -4.739  0.00  0.00    -0.326 N 
ATOM      3  H   UNL     1       0.167   1.000  -4.733  0.00  0.00    +0.148 HD
BRANCH   2   4
ATOM      4  C   UNL     1       0.095  -0.653  -3.581  0.00  0.00    +0.135 C 
ATOM      5  S   UNL     1       0.120  -2.365  -3.593  0.00  0.00    -0.019 S 
BRANCH   4   6
ATOM      6  N   UNL     1      -0.010   0.011  -2.413  0.00  0.00    -0.297 N 
ATOM      7  H   UNL     1      -0.104   0.976  -2.411  0.00  0.00    +0.154 HD
BRANCH   6  10
ATOM      8  C   UNL     1      -1.912   0.706  -0.414  0.00  0.00    +0.047 C 
ATOM      9  C   UNL     1      -0.895  -0.385  -0.201  0.00  0.00    -0.011 A 
ATOM     10  C   UNL     1       0.016  -0.692  -1.204  0.00  0.00    +0.037 A 
ATOM     11  C   UNL     1       0.952  -1.698  -1.004  0.00  0.00    +0.023 A 
ATOM     12  C   UNL     1       0.975  -2.391   0.191  0.00  0.00    +0.003 A 
ATOM     13  C   UNL     1       0.068  -2.084   1.188  0.00  0.00    +0.020 A 
ATOM     14  C   UNL     1      -0.863  -1.078   0.994  0.00  0.00    +0.046 A 
ATOM     15 CL   UNL     1      -1.996  -0.691   2.252  0.00  0.00    -0.083 Cl
ENDBRANCH   6  10
ENDBRANCH   4   6
ENDBRANCH   2   4
ENDBRANCH   1   2
BRANCH   1  16
ATOM     16  C   UNL     1       0.377   0.311  -7.161  0.00  0.00    +0.052 C 
BRANCH  16  17
ATOM     17  C   UNL     1       0.494  -0.432  -8.467  0.00  0.00    -0.037 C 
ATOM     18  C   UNL     1       0.521  -1.772  -8.640  0.00  0.00    +0.003 A 
ATOM     19  C   UNL     1       0.452  -2.898  -7.702  0.00  0.00    +0.055 A 
ATOM     20  C   UNL     1       0.505  -4.166  -8.177  0.00  0.00    +0.121 A 
ATOM     21  C   UNL     1       0.624  -4.449  -9.549  0.00  0.00    +0.047 A 
ATOM     22  C   UNL     1       0.695  -3.482 -10.488  0.00  0.00    +0.029 A 
ATOM     23  C   UNL     1       0.647  -2.072 -10.085  0.00  0.00    +0.043 A 
ATOM     24  N   UNL     1       0.696  -0.961 -10.777  0.00  0.00    -0.378 N 
ATOM     25  C   UNL     1       0.600   0.172  -9.850  0.00  0.00    +0.103 C 
ATOM     26  C   UNL     1      -0.645   1.006 -10.158  0.00  0.00    +0.035 C 
ATOM     27  H   UNL     1       0.777  -0.898 -11.741  0.00  0.00    +0.160 HD
BRANCH  20  28
ATOM     28  O   UNL     1       0.440  -5.200  -7.297  0.00  0.00    -0.495 OA
ATOM     29  C   UNL     1       0.499  -6.520  -7.841  0.00  0.00    +0.277 C 
ENDBRANCH  20  28
ENDBRANCH  16  17
ENDBRANCH   1  16
TORSDOF 7
