REMARK  Name = ZINC30514112
REMARK  8 active torsions:
REMARK  status: ('A' for Active; 'I' for Inactive)
REMARK    1  A    between atoms: C_1  and  C_2
REMARK    2  A    between atoms: C_2  and  C_4
REMARK    3  A    between atoms: C_2  and  N_16
REMARK    4  A    between atoms: N_6  and  C_7
REMARK    5  A    between atoms: C_10  and  N_13
REMARK    6  A    between atoms: N_16  and  C_17
REMARK    7  A    between atoms: C_17  and  C_18
REMARK    8  A    between atoms: C_18  and  N_23
REMARK                            x       y       z     vdW  Elec       q    Type
REMARK                         _______ _______ _______ _____ _____    ______ ____
ROOT
ATOM      1  C   UNL     1      -1.465  -0.831   1.356  0.00  0.00    -0.004 C 
ATOM      2  C   UNL     1      -0.997  -1.186  -0.057  0.00  0.00    +0.013 C 
ENDROOT
BRANCH   2   3
ATOM      3  C   UNL     1       0.398  -0.657  -0.272  0.00  0.00    +0.203 C 
ATOM      4  O   UNL     1       1.302  -1.421  -0.535  0.00  0.00    -0.277 OA
ATOM      5  N   UNL     1       0.640   0.664  -0.171  0.00  0.00    -0.287 N 
ATOM      6  H   UNL     1      -0.192   1.366  -0.013  0.00  0.00    +0.155 HD
BRANCH   5   7
ATOM      7  C   UNL     1       1.951   1.145  -0.268  0.00  0.00    +0.033 A 
ATOM      8  C   UNL     1       3.008   0.386   0.217  0.00  0.00    +0.025 A 
ATOM      9  C   UNL     1       4.301   0.860   0.115  0.00  0.00    +0.034 A 
ATOM     10  C   UNL     1       4.543   2.094  -0.459  0.00  0.00    +0.126 A 
ATOM     11  C   UNL     1       3.492   2.855  -0.938  0.00  0.00    +0.034 A 
ATOM     12  C   UNL     1       2.197   2.384  -0.844  0.00  0.00    +0.025 A 
BRANCH  10  13
ATOM     13  N   UNL     1       5.929   2.602  -0.561  0.00  0.00    +0.056 N 
ATOM     14  O   UNL     1       6.144   3.689  -1.067  0.00  0.00    -0.126 OA
ATOM     15  O   UNL     1       6.856   1.933  -0.140  0.00  0.00    -0.126 OA
ENDBRANCH  10  13
ENDBRANCH   5   7
ENDBRANCH   2   3
BRANCH   2  16
ATOM     16  N   UNL     1      -0.998  -2.646  -0.221  0.00  0.00    +0.388 N 
ATOM     17  H   UNL     1      -0.278  -2.928  -1.003  0.00  0.00    -0.085 HD
ATOM     18  H   UNL     1      -0.711  -3.122   0.729  0.00  0.00    -0.085 HD
BRANCH  16  19
ATOM     19  C   UNL     1      -2.329  -3.132  -0.608  0.00  0.00    -0.059 C 
BRANCH  19  20
ATOM     20  C   UNL     1      -2.311  -4.659  -0.689  0.00  0.00    +0.007 C 
ATOM     21  C   UNL     1      -3.732  -5.191  -0.964  0.00  0.00    +0.020 C 
ATOM     22  C   UNL     1      -3.819  -6.494  -0.131  0.00  0.00    +0.002 C 
ATOM     23  C   UNL     1      -3.043  -6.126   1.159  0.00  0.00    +0.002 C 
ATOM     24  C   UNL     1      -1.872  -5.254   0.660  0.00  0.00    +0.020 C 
BRANCH  20  25
ATOM     25  N   UNL     1      -1.395  -5.095  -1.752  0.00  0.00    -0.297 NA
ATOM     26  C   UNL     1      -0.005  -4.788  -1.407  0.00  0.00    +0.095 C 
ATOM     27  C   UNL     1       0.943  -5.632  -2.266  0.00  0.00    +0.084 C 
ATOM     28  S   UNL     1       0.667  -5.202  -4.013  0.00  0.00    -0.158 S 
ATOM     29  C   UNL     1      -1.139  -5.339  -4.180  0.00  0.00    +0.084 C 
ATOM     30  C   UNL     1      -1.791  -4.537  -3.047  0.00  0.00    +0.095 C 
ENDBRANCH  20  25
ENDBRANCH  19  20
ENDBRANCH  16  19
ENDBRANCH   2  16
TORSDOF 7
