REMARK  Name = ZINC40450511
REMARK  6 active torsions:
REMARK  status: ('A' for Active; 'I' for Inactive)
REMARK    1  A    between atoms: C_1  and  C_2
REMARK    2  A    between atoms: C_5  and  N_8
REMARK    3  A    between atoms: N_11  and  S_16
REMARK    4  A    between atoms: C_13  and  C_15
REMARK    5  A    between atoms: S_16  and  C_19
REMARK    6  A    between atoms: C_29  and  C_31
REMARK                            x       y       z     vdW  Elec       q    Type
REMARK                         _______ _______ _______ _____ _____    ______ ____
ROOT
ATOM      1  S   UNL     1      -0.937  -8.421   0.225  0.00  0.00    +0.062 S 
ATOM      2  O   UNL     1      -1.416  -8.809   1.505  0.00  0.00    -0.153 OA
ATOM      3  O   UNL     1      -1.448  -8.975  -0.980  0.00  0.00    -0.153 OA
ENDROOT
BRANCH   1   4
ATOM      4  C   UNL     1       0.798  -8.725   0.223  0.00  0.00    +0.121 A 
ATOM      5  C   UNL     1       1.416  -9.188   1.365  0.00  0.00    +0.053 A 
ATOM      6  C   UNL     1       2.791  -9.432   1.372  0.00  0.00    +0.041 A 
ATOM      7  C   UNL     1       3.522  -9.201   0.217  0.00  0.00    -0.023 A 
ATOM      8  C   UNL     1       2.899  -8.737  -0.925  0.00  0.00    +0.022 A 
ATOM      9  C   UNL     1       1.536  -8.503  -0.927  0.00  0.00    +0.045 A 
ATOM     10 BR   UNL     1       0.683  -7.876  -2.494  0.00  0.00    -0.048 Br
ATOM     11  C   UNL     1       4.970  -9.541   0.489  0.00  0.00    +0.056 C 
ATOM     12  C   UNL     1       4.992 -10.000   1.956  0.00  0.00    +0.118 C 
ATOM     13  N   UNL     1       3.603  -9.897   2.412  0.00  0.00    -0.271 N 
ATOM     14  C   UNL     1       3.171 -10.207   3.650  0.00  0.00    +0.223 C 
ATOM     15  O   UNL     1       1.997 -10.088   3.931  0.00  0.00    -0.275 OA
BRANCH  14  16
ATOM     16  C   UNL     1       4.147 -10.700   4.687  0.00  0.00    +0.076 C 
ATOM     17  C   UNL     1       4.027 -12.159   5.132  0.00  0.00    +0.013 C 
ATOM     18  C   UNL     1       3.595 -11.035   6.074  0.00  0.00    +0.013 C 
ENDBRANCH  14  16
ENDBRANCH   1   4
BRANCH   1  22
ATOM     19  N   UNL     1      -0.288  -4.209  -0.223  0.00  0.00    -0.325 N 
ATOM     20  C   UNL     1      -0.376  -5.054  -1.422  0.00  0.00    +0.122 C 
ATOM     21  C   UNL     1      -1.425  -6.146  -1.177  0.00  0.00    +0.128 C 
ATOM     22  N   UNL     1      -1.147  -6.781   0.118  0.00  0.00    -0.173 NA
ATOM     23  C   UNL     1      -1.060  -5.937   1.317  0.00  0.00    +0.131 C 
ATOM     24  C   UNL     1      -0.005  -4.844   1.072  0.00  0.00    +0.086 C 
ATOM     25  C   UNL     1      -0.078  -3.797   2.184  0.00  0.00    +0.029 C 
BRANCH  19  30
ATOM     26  C   UNL     1      -1.008   1.404  -0.587  0.00  0.00    +0.044 C 
ATOM     27  C   UNL     1      -0.816  -0.087  -0.490  0.00  0.00    -0.050 A 
ATOM     28  C   UNL     1      -1.894  -0.934  -0.674  0.00  0.00    +0.005 A 
ATOM     29  C   UNL     1      -1.722  -2.302  -0.586  0.00  0.00    +0.023 A 
ATOM     30  C   UNL     1      -0.465  -2.826  -0.313  0.00  0.00    +0.030 A 
ATOM     31  C   UNL     1       0.615  -1.973  -0.129  0.00  0.00    +0.023 A 
ATOM     32  C   UNL     1       0.437  -0.607  -0.224  0.00  0.00    +0.005 A 
ENDBRANCH  19  30
ENDBRANCH   1  22
TORSDOF 4
