REMARK  Name = ZINC66250838
REMARK  5 active torsions:
REMARK  status: ('A' for Active; 'I' for Inactive)
REMARK    1  A    between atoms: C_1  and  C_2
REMARK    2  A    between atoms: C_5  and  S_9
REMARK    3  A    between atoms: S_9  and  N_12
REMARK    4  A    between atoms: C_15  and  C_18
REMARK    5  A    between atoms: C_18  and  N_19
REMARK                            x       y       z     vdW  Elec       q    Type
REMARK                         _______ _______ _______ _____ _____    ______ ____
ROOT
ATOM      1  N   UNL     1       1.651  -5.001  -0.037  0.00  0.00    -0.103 NA
ATOM      2  C   UNL     1       1.957  -6.275  -0.047  0.00  0.00    +0.191 A 
ATOM      3  N   UNL     1       3.198  -6.875  -0.052  0.00  0.00    -0.338 N 
ATOM      4  C   UNL     1       3.262  -8.237  -0.063  0.00  0.00    +0.008 A 
ATOM      5  C   UNL     1       2.143  -8.961  -0.069  0.00  0.00    +0.068 A 
ATOM      6  S   UNL     1       0.879  -7.699  -0.051  0.00  0.00    -0.057 S 
ATOM      7  H   UNL     1       4.007  -6.340  -0.048  0.00  0.00    +0.167 HD
ENDROOT
BRANCH   1   8
ATOM      8  S   UNL     1       0.062  -4.532  -0.026  0.00  0.00    +0.101 S 
ATOM      9  O   UNL     1      -0.477  -4.954   1.220  0.00  0.00    -0.146 OA
ATOM     10  O   UNL     1      -0.490  -4.937  -1.271  0.00  0.00    -0.146 OA
BRANCH   8  15
ATOM     11  C   UNL     1      -0.018   1.503   0.010  0.00  0.00    +0.047 C 
ATOM     12  C   UNL     1       0.002  -0.004   0.002  0.00  0.00    -0.015 A 
ATOM     13  C   UNL     1       0.006  -0.689  -1.199  0.00  0.00    +0.008 A 
ATOM     14  C   UNL     1       0.025  -2.071  -1.206  0.00  0.00    +0.029 A 
ATOM     15  C   UNL     1       0.040  -2.770  -0.014  0.00  0.00    +0.115 A 
ATOM     16  C   UNL     1       0.036  -2.088   1.188  0.00  0.00    +0.067 A 
ATOM     17  C   UNL     1       0.023  -0.703   1.197  0.00  0.00    +0.128 A 
ATOM     18  F   UNL     1       0.025  -0.035   2.371  0.00  0.00    -0.205 F 
ENDBRANCH   8  15
ENDBRANCH   1   8
BRANCH   4  19
ATOM     19  C   UNL     1       4.602  -8.926  -0.069  0.00  0.00    -0.024 C 
BRANCH  19  20
ATOM     20  N   UNL     1       5.305  -8.620  -1.321  0.00  0.00    +0.383 N 
ATOM     21  C   UNL     1       4.503  -9.127  -2.451  0.00  0.00    -0.078 C 
ATOM     22  C   UNL     1       4.859  -8.330  -3.681  0.00  0.00    -0.019 C 
ATOM     23  C   UNL     1       5.924  -9.050  -4.529  0.00  0.00    -0.002 C 
ATOM     24  C   UNL     1       7.014  -9.697  -3.651  0.00  0.00    -0.002 C 
ATOM     25  C   UNL     1       7.429  -8.811  -2.504  0.00  0.00    -0.019 C 
ATOM     26  C   UNL     1       6.587  -9.170  -1.262  0.00  0.00    -0.078 C 
ATOM     27  H   UNL     1       5.387  -7.618  -1.409  0.00  0.00    -0.081 HD
ENDBRANCH  19  20
ENDBRANCH   4  19
TORSDOF 4
