REMARK  Name = ZINC47962627
REMARK  7 active torsions:
REMARK  status: ('A' for Active; 'I' for Inactive)
REMARK    1  A    between atoms: C_1  and  C_2
REMARK    2  A    between atoms: C_2  and  CA_3
REMARK    3  A    between atoms: CA_3  and  C_5
REMARK    4  A    between atoms: CA_3  and  N_7
REMARK    5  A    between atoms: C_5  and  O_6
REMARK    6  A    between atoms: C_8  and  C_10
REMARK    7  A    between atoms: C_23  and  C_25
REMARK                            x       y       z     vdW  Elec       q    Type
REMARK                         _______ _______ _______ _____ _____    ______ ____
ROOT
ATOM      1  C   UNL     1      -0.685   1.495  -4.193  0.00  0.00    +0.306 C 
ATOM      2  O   UNL     1      -1.472   0.714  -4.688  0.00  0.00    -0.265 OA
ATOM      3  N   UNL     1      -0.522   2.719  -4.734  0.00  0.00    -0.254 N 
ATOM      4  C   UNL     1       0.386   3.628  -4.178  0.00  0.00    +0.059 A 
ATOM      5  C   UNL     1       0.115   4.246  -2.967  0.00  0.00    +0.025 A 
ATOM      6  C   UNL     1       1.012   5.158  -2.444  0.00  0.00    +0.002 A 
ATOM      7  C   UNL     1       2.179   5.457  -3.126  0.00  0.00    +0.002 A 
ATOM      8  C   UNL     1       2.461   4.839  -4.330  0.00  0.00    +0.025 A 
ATOM      9  C   UNL     1       1.572   3.916  -4.855  0.00  0.00    +0.055 A 
ATOM     10  N   UNL     1       1.862   3.236  -6.043  0.00  0.00    -0.284 N 
ATOM     11  C   UNL     1       0.937   3.146  -7.024  0.00  0.00    +0.219 C 
ATOM     12  O   UNL     1       1.171   2.485  -8.013  0.00  0.00    -0.275 OA
ATOM     13  C   UNL     1      -0.382   3.862  -6.896  0.00  0.00    +0.123 C 
ATOM     14  C   UNL     1      -1.285   3.119  -5.917  0.00  0.00    +0.121 C 
ATOM     15  H   UNL     1       2.733   2.827  -6.163  0.00  0.00    +0.155 HD
ENDROOT
BRANCH  14  16
ATOM     16  C   UNL     1      -2.416   4.025  -5.501  0.00  0.00    -0.026 A 
ATOM     17  C   UNL     1      -2.152   5.171  -4.775  0.00  0.00    +0.005 A 
ATOM     18  C   UNL     1      -3.189   6.002  -4.394  0.00  0.00    +0.000 A 
ATOM     19  C   UNL     1      -4.490   5.686  -4.738  0.00  0.00    +0.000 A 
ATOM     20  C   UNL     1      -4.753   4.540  -5.465  0.00  0.00    +0.000 A 
ATOM     21  C   UNL     1      -3.716   3.712  -5.850  0.00  0.00    +0.005 A 
ENDBRANCH  14  16
BRANCH   1  23
ATOM     22  N   UNL     1      -0.064  -0.123  -2.446  0.00  0.00    -0.303 N 
ATOM     23  C   UNL     1       0.100   1.101  -2.986  0.00  0.00    +0.300 C 
ATOM     24  O   UNL     1       0.886   1.882  -2.492  0.00  0.00    -0.265 OA
ATOM     25  H   UNL     1      -0.692  -0.747  -2.841  0.00  0.00    +0.150 HD
BRANCH  22  26
ATOM     26  CA  UNL     1       0.707  -0.510  -1.261  0.00  0.00    +0.098 C 
BRANCH  26  28
ATOM     27  C   UNL     1      -0.031   1.512   0.009  0.00  0.00    +0.006 C 
ATOM     28  C   UNL     1      -0.011  -0.018  -0.003  0.00  0.00    +0.021 C 
ENDBRANCH  26  28
BRANCH  26  29
ATOM     29  C   UNL     1       0.837  -2.033  -1.213  0.00  0.00    +0.178 C 
BRANCH  29  30
ATOM     30  O   UNL     1      -0.456  -2.616  -1.030  0.00  0.00    -0.393 OA
ATOM     31  H   UNL     1      -0.449  -3.582  -0.990  0.00  0.00    +0.209 HD
ENDBRANCH  29  30
ENDBRANCH  26  29
ENDBRANCH  22  26
ENDBRANCH   1  23
TORSDOF 6
