REMARK  Name = ZINC35702439
REMARK  10 active torsions:
REMARK  status: ('A' for Active; 'I' for Inactive)
REMARK    1  A    between atoms: C_1  and  C_2
REMARK    2  A    between atoms: C_5  and  C_8
REMARK    3  A    between atoms: C_8  and  C_9
REMARK    4  A    between atoms: C_10  and  C_40
REMARK    5  A    between atoms: C_12  and  S_17
REMARK    6  A    between atoms: N_13  and  C_16
REMARK    7  A    between atoms: S_17  and  C_18
REMARK    8  A    between atoms: C_18  and  C_20
REMARK    9  A    between atoms: C_18  and  C_21
REMARK   10  A    between atoms: C_26  and  N_29
REMARK                            x       y       z     vdW  Elec       q    Type
REMARK                         _______ _______ _______ _____ _____    ______ ____
ROOT
ATOM      1  C   UNL     1       5.996  -5.936   2.347  0.00  0.00    +0.137 C 
ATOM      2  C   UNL     1       5.694  -4.585   2.998  0.00  0.00    +0.029 C 
ENDROOT
BRANCH   1   3
ATOM      3  C   UNL     1       7.415  -6.338   2.657  0.00  0.00    +0.229 C 
ATOM      4  O   UNL     1       8.302  -6.086   1.870  0.00  0.00    -0.274 OA
ATOM      5  N   UNL     1       7.697  -6.976   3.810  0.00  0.00    -0.300 N 
ATOM      6  C   UNL     1       6.632  -7.292   4.771  0.00  0.00    +0.110 C 
ATOM      7  C   UNL     1       7.024  -6.735   6.144  0.00  0.00    +0.044 C 
ATOM      8  C   UNL     1       8.403  -7.273   6.533  0.00  0.00    +0.095 C 
ATOM      9  C   UNL     1       9.442  -6.810   5.509  0.00  0.00    +0.044 C 
ATOM     10  C   UNL     1       9.076  -7.373   4.127  0.00  0.00    +0.110 C 
BRANCH   8  11
ATOM     11  N   UNL     1       8.767  -6.768   7.859  0.00  0.00    -0.289 N 
ATOM     12  C   UNL     1       9.044  -7.547   8.980  0.00  0.00    +0.070 A 
ATOM     13  C   UNL     1       9.068  -8.915   9.206  0.00  0.00    +0.028 A 
ATOM     14  C   UNL     1       9.387  -9.399  10.459  0.00  0.00    +0.002 A 
ATOM     15  C   UNL     1       9.682  -8.525  11.491  0.00  0.00    +0.002 A 
ATOM     16  C   UNL     1       9.660  -7.161  11.276  0.00  0.00    +0.028 A 
ATOM     17  C   UNL     1       9.342  -6.665  10.021  0.00  0.00    +0.067 A 
ATOM     18  N   UNL     1       9.237  -5.378   9.500  0.00  0.00    -0.306 N 
ATOM     19  H   UNL     1       9.387  -4.553   9.989  0.00  0.00    +0.170 HD
ATOM     20  C   UNL     1       8.897  -5.472   8.201  0.00  0.00    +0.328 A 
ATOM     21  O   UNL     1       8.729  -4.529   7.450  0.00  0.00    -0.247 OA
ENDBRANCH   8  11
ENDBRANCH   1   3
BRANCH   1  22
ATOM     22  S   UNL     1       5.785  -5.803   0.550  0.00  0.00    -0.075 S 
BRANCH  22  26
ATOM     23  C   UNL     1       1.423  -4.982   0.068  0.00  0.00    +0.042 A 
ATOM     24  C   UNL     1       1.986  -5.150   1.300  0.00  0.00    +0.050 A 
ATOM     25  N   UNL     1       3.290  -5.393   1.410  0.00  0.00    -0.228 NA
ATOM     26  C   UNL     1       4.065  -5.478   0.346  0.00  0.00    +0.172 A 
ATOM     27  N   UNL     1       3.558  -5.319  -0.908  0.00  0.00    -0.291 N 
ATOM     28  C   UNL     1       2.240  -5.076  -1.072  0.00  0.00    +0.258 A 
ATOM     29  O   UNL     1       1.768  -4.936  -2.188  0.00  0.00    -0.267 OA
ATOM     30  C   UNL     1       4.438  -5.416  -2.075  0.00  0.00    +0.154 C 
ATOM     31  C   UNL     1       1.131  -5.059   2.538  0.00  0.00    +0.066 C 
BRANCH  23  32
ATOM     32  C   UNL     1      -0.053  -4.706  -0.067  0.00  0.00    +0.077 C 
BRANCH  32  37
ATOM     33  C   UNL     1      -2.872  -9.676  -0.930  0.00  0.00    +0.044 C 
ATOM     34  C   UNL     1      -2.137  -8.380  -0.705  0.00  0.00    -0.050 A 
ATOM     35  C   UNL     1      -2.003  -7.874   0.574  0.00  0.00    +0.003 A 
ATOM     36  C   UNL     1      -1.329  -6.686   0.781  0.00  0.00    +0.004 A 
ATOM     37  C   UNL     1      -0.787  -6.003  -0.292  0.00  0.00    -0.043 A 
ATOM     38  C   UNL     1      -0.920  -6.509  -1.572  0.00  0.00    +0.004 A 
ATOM     39  C   UNL     1      -1.591  -7.700  -1.778  0.00  0.00    +0.003 A 
ENDBRANCH  32  37
ENDBRANCH  23  32
ENDBRANCH  22  26
ENDBRANCH   1  22
TORSDOF 6
