REMARK  Name = ZINC60093502
REMARK  9 active torsions:
REMARK  status: ('A' for Active; 'I' for Inactive)
REMARK    1  A    between atoms: C_1  and  N_2
REMARK    2  A    between atoms: N_2  and  C_3
REMARK    3  A    between atoms: N_2  and  S_4
REMARK    4  A    between atoms: S_4  and  C_7
REMARK    5  A    between atoms: C_9  and  C_15
REMARK    6  A    between atoms: C_12  and  O_13
REMARK    7  A    between atoms: O_13  and  C_14
REMARK    8  A    between atoms: N_17  and  C_18
REMARK    9  A    between atoms: C_23  and  O_24
REMARK                            x       y       z     vdW  Elec       q    Type
REMARK                         _______ _______ _______ _____ _____    ______ ____
ROOT
ATOM      1  C   UNL     1       1.670  -1.063  -1.940  0.00  0.00    +0.148 A 
ATOM      2  C   UNL     1       2.197  -2.335  -2.000  0.00  0.00    +0.045 A 
ATOM      3  C   UNL     1       3.533  -2.519  -2.365  0.00  0.00    +0.039 A 
ATOM      4  C   UNL     1       4.330  -1.411  -2.667  0.00  0.00    +0.017 A 
ATOM      5  C   UNL     1       3.796  -0.144  -2.606  0.00  0.00    +0.048 A 
ATOM      6  C   UNL     1       2.465   0.035  -2.248  0.00  0.00    +0.146 A 
ENDROOT
BRANCH   3   7
ATOM      7  C   UNL     1       4.102  -3.879  -2.429  0.00  0.00    +0.248 C 
ATOM      8  O   UNL     1       3.407  -4.842  -2.165  0.00  0.00    -0.270 OA
ATOM      9  N   UNL     1       5.391  -4.055  -2.781  0.00  0.00    -0.279 N 
ATOM     10  H   UNL     1       5.927  -3.294  -3.054  0.00  0.00    +0.155 HD
BRANCH   9  11
ATOM     11  C   UNL     1       5.956  -5.336  -2.752  0.00  0.00    +0.077 A 
ATOM     12  C   UNL     1       5.186  -6.444  -3.076  0.00  0.00    +0.047 A 
ATOM     13  C   UNL     1       5.747  -7.707  -3.046  0.00  0.00    +0.043 A 
ATOM     14  C   UNL     1       7.076  -7.870  -2.695  0.00  0.00    +0.023 A 
ATOM     15  C   UNL     1       7.848  -6.770  -2.371  0.00  0.00    +0.049 A 
ATOM     16  C   UNL     1       7.295  -5.500  -2.403  0.00  0.00    +0.138 A 
ATOM     17 CL   UNL     1       4.783  -9.093  -3.451  0.00  0.00    -0.083 Cl
BRANCH  16  18
ATOM     18  O   UNL     1       8.056  -4.417  -2.090  0.00  0.00    -0.505 OA
ATOM     19  H   UNL     1       8.044  -4.187  -1.151  0.00  0.00    +0.292 HD
ENDBRANCH  16  18
ENDBRANCH   9  11
ENDBRANCH   3   7
BRANCH   1  20
ATOM     20  S   UNL     1      -0.015  -0.830  -1.481  0.00  0.00    +0.064 S 
ATOM     21  O   UNL     1      -0.543  -2.120  -1.206  0.00  0.00    -0.153 OA
ATOM     22  O   UNL     1      -0.584   0.036  -2.453  0.00  0.00    -0.153 OA
BRANCH  20  24
ATOM     23  C   UNL     1      -0.044   1.464  -0.049  0.00  0.00    +0.131 C 
ATOM     24  N   UNL     1      -0.020  -0.001  -0.047  0.00  0.00    -0.183 NA
ATOM     25  C   UNL     1      -0.002  -0.732   1.222  0.00  0.00    +0.131 C 
ENDBRANCH  20  24
ENDBRANCH   1  20
BRANCH   6  26
ATOM     26  O   UNL     1       1.940   1.285  -2.193  0.00  0.00    -0.493 OA
ATOM     27  C   UNL     1       2.812   2.369  -2.522  0.00  0.00    +0.277 C 
ENDBRANCH   6  26
TORSDOF 6
