REMARK  Name = ZINC03875160
REMARK  10 active torsions:
REMARK  status: ('A' for Active; 'I' for Inactive)
REMARK    1  A    between atoms: C_1  and  C_2
REMARK    2  A    between atoms: C_2  and  C_28
REMARK    3  A    between atoms: C_3  and  C_4
REMARK    4  A    between atoms: C_4  and  N_5
REMARK    5  A    between atoms: N_12  and  C1*_15
REMARK    6  A    between atoms: C2*_17  and  O2*_27
REMARK    7  A    between atoms: C3*_19  and  O3*_26
REMARK    8  A    between atoms: C4*_21  and  C5*_24
REMARK    9  A    between atoms: C5*_24  and  O5*_25
REMARK   10  A    between atoms: C_28  and  O_29
REMARK                            x       y       z     vdW  Elec       q    Type
REMARK                         _______ _______ _______ _____ _____    ______ ____
ROOT
ATOM      1  N   UNL     1      -0.837  -0.544   3.354  0.00  0.00    -0.324 N 
ATOM      2  C   UNL     1      -1.010  -0.032   4.628  0.00  0.00    +0.150 A 
ATOM      3  C   UNL     1      -1.922  -0.620   5.522  0.00  0.00    +0.147 A 
ATOM      4  C   UNL     1      -2.055  -0.056   6.801  0.00  0.00    +0.167 A 
ATOM      5  N   UNL     1      -1.319   1.005   7.119  0.00  0.00    -0.216 NA
ATOM      6  C   UNL     1      -0.477   1.522   6.250  0.00  0.00    +0.225 A 
ATOM      7  N   UNL     1      -0.314   1.023   5.037  0.00  0.00    -0.219 NA
ATOM      8  N   UNL     1      -2.995  -0.813   7.453  0.00  0.00    -0.286 N 
ATOM      9  C   UNL     1      -3.402  -1.788   6.592  0.00  0.00    +0.203 A 
ATOM     10  N   UNL     1      -2.772  -1.673   5.460  0.00  0.00    -0.231 NA
ATOM     11  H   UNL     1      -1.350  -1.315   3.067  0.00  0.00    +0.148 HD
ENDROOT
BRANCH   8  12
ATOM     12  C1* UNL     1      -3.472  -0.612   8.823  0.00  0.00    +0.253 C 
ATOM     13  C2* UNL     1      -4.638   0.409   8.842  0.00  0.00    +0.195 C 
ATOM     14  C3* UNL     1      -5.372  -0.006  10.146  0.00  0.00    +0.178 C 
ATOM     15  C4* UNL     1      -5.163  -1.536  10.168  0.00  0.00    +0.177 C 
ATOM     16  O4* UNL     1      -4.029  -1.830   9.342  0.00  0.00    -0.346 OA
BRANCH  14  17
ATOM     17  O3* UNL     1      -4.770   0.610  11.286  0.00  0.00    -0.386 OA
ATOM     18  H3* UNL     1      -5.192   0.382  12.126  0.00  0.00    +0.210 HD
ENDBRANCH  14  17
BRANCH  13  19
ATOM     19  O2* UNL     1      -4.149   1.748   8.929  0.00  0.00    -0.385 OA
ATOM     20  H2* UNL     1      -4.844   2.421   8.943  0.00  0.00    +0.210 HD
ENDBRANCH  13  19
BRANCH  15  21
ATOM     21  C5* UNL     1      -4.898  -2.003  11.600  0.00  0.00    +0.190 C 
BRANCH  21  22
ATOM     22  O5* UNL     1      -4.822  -3.430  11.629  0.00  0.00    -0.392 OA
ATOM     23  H5* UNL     1      -4.655  -3.797  12.508  0.00  0.00    +0.210 HD
ENDBRANCH  21  22
ENDBRANCH  15  21
ENDBRANCH   8  12
BRANCH   1  24
ATOM     24  C   UNL     1       0.123   0.078   2.439  0.00  0.00    +0.130 C 
BRANCH  24  27
ATOM     25  C   UNL     1      -0.201   1.487   0.018  0.00  0.00    +0.041 C 
ATOM     26  C   UNL     1      -0.088  -0.015   0.009  0.00  0.00    -0.050 C 
ATOM     27  C   UNL     1       0.121  -0.664   1.128  0.00  0.00    -0.007 C 
BRANCH  26  28
ATOM     28  C   UNL     1      -0.214  -0.772  -1.288  0.00  0.00    +0.186 C 
BRANCH  28  29
ATOM     29  O   UNL     1      -0.072  -2.172  -1.039  0.00  0.00    -0.391 OA
ATOM     30  H   UNL     1      -0.143  -2.722  -1.831  0.00  0.00    +0.210 HD
ENDBRANCH  28  29
ENDBRANCH  26  28
ENDBRANCH  24  27
ENDBRANCH   1  24
TORSDOF 9
