REMARK  Name = ZINC67005715
REMARK  7 active torsions:
REMARK  status: ('A' for Active; 'I' for Inactive)
REMARK    1  A    between atoms: C_1  and  C_2
REMARK    2  A    between atoms: C_2  and  C_3
REMARK    3  A    between atoms: C_6  and  N_13
REMARK    4  A    between atoms: C_8  and  S_9
REMARK    5  A    between atoms: S_9  and  N_12
REMARK    6  A    between atoms: C_14  and  C_15
REMARK    7  A    between atoms: C_20  and  O_21
REMARK                            x       y       z     vdW  Elec       q    Type
REMARK                         _______ _______ _______ _____ _____    ______ ____
ROOT
ATOM      1  C   UNL     1      -1.310  -0.725  -0.005  0.00  0.00    -0.021 A 
ATOM      2  C   UNL     1      -1.910  -1.054   1.198  0.00  0.00    +0.007 A 
ATOM      3  C   UNL     1      -3.195  -1.554   1.217  0.00  0.00    +0.028 A 
ATOM      4  C   UNL     1      -3.891  -1.728   0.018  0.00  0.00    +0.066 A 
ATOM      5  C   UNL     1      -3.279  -1.394  -1.192  0.00  0.00    +0.056 A 
ATOM      6  C   UNL     1      -1.995  -0.890  -1.196  0.00  0.00    +0.110 A 
ENDROOT
BRANCH   6   7
ATOM      7  S   UNL     1      -1.223  -0.462  -2.720  0.00  0.00    +0.056 S 
ATOM      8  O   UNL     1       0.055  -1.081  -2.717  0.00  0.00    -0.153 OA
ATOM      9  O   UNL     1      -2.182  -0.699  -3.742  0.00  0.00    -0.153 OA
BRANCH   7  10
ATOM     10  N   UNL     1      -0.957   1.173  -2.692  0.00  0.00    -0.204 NA
ATOM     11  H   UNL     1      -1.292   1.706  -1.955  0.00  0.00    +0.144 HD
ATOM     12  H   UNL     1      -0.466   1.597  -3.414  0.00  0.00    +0.144 HD
ENDBRANCH   7  10
ENDBRANCH   6   7
BRANCH   1  14
ATOM     13  C   UNL     1       0.646  -0.157   1.409  0.00  0.00    +0.009 C 
ATOM     14  C   UNL     1       0.095  -0.179  -0.018  0.00  0.00    +0.034 C 
ENDBRANCH   1  14
BRANCH   4  15
ATOM     15  N   UNL     1      -5.166  -2.225   0.030  0.00  0.00    -0.255 NA
ATOM     16  C   UNL     1      -5.457  -3.257   0.772  0.00  0.00    +0.123 C 
BRANCH  16  17
ATOM     17  C   UNL     1      -6.827  -3.790   0.784  0.00  0.00    +0.037 A 
ATOM     18  C   UNL     1      -7.146  -4.894   1.583  0.00  0.00    +0.033 A 
ATOM     19  C   UNL     1      -8.432  -5.389   1.590  0.00  0.00    +0.043 A 
ATOM     20  C   UNL     1      -9.413  -4.798   0.807  0.00  0.00    +0.043 A 
ATOM     21  C   UNL     1      -9.112  -3.708   0.013  0.00  0.00    +0.084 A 
ATOM     22  C   UNL     1      -7.824  -3.192  -0.001  0.00  0.00    +0.144 A 
ATOM     23 CL   UNL     1     -10.349  -2.978  -0.962  0.00  0.00    -0.080 Cl
ATOM     24 CL   UNL     1      -8.826  -6.758   2.581  0.00  0.00    -0.083 Cl
BRANCH  22  25
ATOM     25  O   UNL     1      -7.529  -2.117  -0.776  0.00  0.00    -0.505 OA
ATOM     26  H   UNL     1      -7.239  -2.345  -1.670  0.00  0.00    +0.292 HD
ENDBRANCH  22  25
ENDBRANCH  16  17
ENDBRANCH   4  15
TORSDOF 6
