REMARK  Name = ZINC05093312
REMARK  4 active torsions:
REMARK  status: ('A' for Active; 'I' for Inactive)
REMARK    1  A    between atoms: C_1  and  O_2
REMARK    2  A    between atoms: O_2  and  C_3
REMARK    3  A    between atoms: C_3  and  C_5
REMARK    4  A    between atoms: C_5  and  C_6
REMARK                            x       y       z     vdW  Elec       q    Type
REMARK                         _______ _______ _______ _____ _____    ______ ____
ROOT
ATOM      1  C   UNL     1      -2.683  -2.582   0.014  0.00  0.00    +0.122 A 
ATOM      2  N   UNL     1      -2.969  -3.910   0.015  0.00  0.00    -0.310 N 
ATOM      3  H   UNL     1      -2.243  -4.552   0.009  0.00  0.00    +0.170 HD
ATOM      4  C   UNL     1      -4.240  -4.352   0.025  0.00  0.00    +0.260 A 
ATOM      5  O   UNL     1      -4.481  -5.547   0.027  0.00  0.00    -0.267 OA
ATOM      6  C   UNL     1      -5.307  -3.395   0.035  0.00  0.00    +0.075 A 
ATOM      7  C   UNL     1      -6.749  -3.640   0.045  0.00  0.00    -0.023 A 
ATOM      8  C   UNL     1      -7.554  -2.557   0.053  0.00  0.00    -0.004 A 
ATOM      9  S   UNL     1      -6.455  -1.167   0.047  0.00  0.00    -0.073 S 
ATOM     10  C   UNL     1      -4.913  -2.047   0.033  0.00  0.00    +0.116 A 
ATOM     11  N   UNL     1      -3.633  -1.686   0.028  0.00  0.00    -0.226 NA
ATOM     12  C   UNL     1      -9.052  -2.540   0.064  0.00  0.00    +0.043 C 
ATOM     13  C   UNL     1      -9.555  -3.942  -0.312  0.00  0.00    +0.005 C 
ATOM     14  C   UNL     1      -8.789  -4.976   0.519  0.00  0.00    +0.005 C 
ATOM     15  C   UNL     1      -7.336  -5.049   0.047  0.00  0.00    +0.037 C 
ENDROOT
BRANCH   1  16
ATOM     16  C   UNL     1      -1.244  -2.135   0.003  0.00  0.00    +0.194 C 
BRANCH  16  17
ATOM     17  C   UNL     1      -1.185  -0.630   0.010  0.00  0.00    +0.314 C 
ATOM     18  O   UNL     1      -2.208   0.015   0.023  0.00  0.00    -0.250 OA
BRANCH  17  20
ATOM     19  C   UNL     1      -0.017   1.425   0.010  0.00  0.00    +0.280 C 
ATOM     20  O   UNL     1       0.002  -0.004   0.002  0.00  0.00    -0.468 OA
ENDBRANCH  17  20
ENDBRANCH  16  17
ENDBRANCH   1  16
TORSDOF 3
