REMARK  Name = ZINC59384914
REMARK  8 active torsions:
REMARK  status: ('A' for Active; 'I' for Inactive)
REMARK    1  A    between atoms: C_1  and  C_2
REMARK    2  A    between atoms: C_3  and  C_17
REMARK    3  A    between atoms: C_4  and  C_10
REMARK    4  A    between atoms: N_19  and  N_20
REMARK    5  A    between atoms: C_21  and  C_22
REMARK    6  A    between atoms: C_25  and  O_30
REMARK    7  A    between atoms: C_26  and  O_28
REMARK    8  A    between atoms: O_28  and  C_29
REMARK                            x       y       z     vdW  Elec       q    Type
REMARK                         _______ _______ _______ _____ _____    ______ ____
ROOT
ATOM      1  C   UNL     1       0.633   1.225  -0.132  0.00  0.00    +0.061 C 
ATOM      2  C   UNL     1       0.379  -0.259  -0.064  0.00  0.00    +0.017 C 
ATOM      3  C   UNL     1      -0.885  -0.721  -0.165  0.00  0.00    +0.057 C 
ATOM      4  C   UNL     1      -1.097  -2.220  -0.092  0.00  0.00    +0.141 C 
ATOM      5  N   UNL     1       0.103  -3.055   0.083  0.00  0.00    -0.315 N 
ATOM      6  C   UNL     1       1.302  -2.446   0.168  0.00  0.00    +0.135 C 
ATOM      7  S   UNL     1       2.706  -3.404   0.371  0.00  0.00    -0.019 S 
ATOM      8  N   UNL     1       1.432  -1.115   0.092  0.00  0.00    -0.300 N 
ATOM      9  H   UNL     1       0.033  -4.021   0.137  0.00  0.00    +0.149 HD
ATOM     10  H   UNL     1       2.323  -0.737   0.156  0.00  0.00    +0.154 HD
ENDROOT
BRANCH   4  11
ATOM     11  C   UNL     1      -1.783  -2.654  -1.362  0.00  0.00    -0.004 A 
ATOM     12  C   UNL     1      -1.032  -3.071  -2.445  0.00  0.00    +0.007 A 
ATOM     13  C   UNL     1      -1.661  -3.470  -3.610  0.00  0.00    +0.000 A 
ATOM     14  C   UNL     1      -3.041  -3.451  -3.692  0.00  0.00    +0.001 A 
ATOM     15  C   UNL     1      -3.792  -3.035  -2.609  0.00  0.00    +0.020 A 
ATOM     16  C   UNL     1      -3.163  -2.641  -1.441  0.00  0.00    +0.046 A 
ATOM     17 CL   UNL     1      -4.107  -2.124  -0.079  0.00  0.00    -0.083 Cl
ENDBRANCH   4  11
BRANCH   3  18
ATOM     18  C   UNL     1      -1.978   0.165  -0.332  0.00  0.00    +0.263 C 
ATOM     19  O   UNL     1      -2.678   0.454   0.622  0.00  0.00    -0.269 OA
ATOM     20  N   UNL     1      -2.242   0.688  -1.545  0.00  0.00    -0.203 N 
ATOM     21  H   UNL     1      -1.727   0.405  -2.317  0.00  0.00    +0.178 HD
BRANCH  20  22
ATOM     22  N   UNL     1      -3.260   1.639  -1.692  0.00  0.00    -0.187 NA
ATOM     23  C   UNL     1      -3.450   2.214  -2.840  0.00  0.00    +0.138 C 
BRANCH  23  24
ATOM     24  C   UNL     1      -4.447   3.293  -2.967  0.00  0.00    -0.002 A 
ATOM     25  C   UNL     1      -5.183   3.702  -1.852  0.00  0.00    +0.013 A 
ATOM     26  C   UNL     1      -6.115   4.711  -1.974  0.00  0.00    +0.050 A 
ATOM     27  C   UNL     1      -6.323   5.323  -3.201  0.00  0.00    +0.158 A 
ATOM     28  C   UNL     1      -5.593   4.921  -4.317  0.00  0.00    +0.162 A 
ATOM     29  C   UNL     1      -4.653   3.913  -4.202  0.00  0.00    +0.058 A 
BRANCH  28  30
ATOM     30  O   UNL     1      -5.801   5.523  -5.519  0.00  0.00    -0.491 OA
ATOM     31  C   UNL     1      -5.016   5.060  -6.620  0.00  0.00    +0.277 C 
ENDBRANCH  28  30
BRANCH  27  32
ATOM     32  O   UNL     1      -7.243   6.317  -3.315  0.00  0.00    -0.503 OA
ATOM     33  H   UNL     1      -6.888   7.202  -3.156  0.00  0.00    +0.292 HD
ENDBRANCH  27  32
ENDBRANCH  23  24
ENDBRANCH  20  22
ENDBRANCH   3  18
TORSDOF 6
