REMARK  Name = ZINC28676972
REMARK  8 active torsions:
REMARK  status: ('A' for Active; 'I' for Inactive)
REMARK    1  A    between atoms: C_1  and  C_2
REMARK    2  A    between atoms: C_4  and  C_30
REMARK    3  A    between atoms: C_5  and  N_9
REMARK    4  A    between atoms: C_10  and  C_12
REMARK    5  A    between atoms: C_12  and  C_14
REMARK    6  A    between atoms: C_12  and  S_15
REMARK    7  A    between atoms: S_15  and  C_16
REMARK    8  A    between atoms: C_27  and  C_29
REMARK                            x       y       z     vdW  Elec       q    Type
REMARK                         _______ _______ _______ _____ _____    ______ ____
ROOT
ATOM      1  C   UNL     1       0.436   0.197  -4.835  0.00  0.00    +0.137 C 
ATOM      2  C   UNL     1       1.791   0.904  -4.917  0.00  0.00    +0.029 C 
ENDROOT
BRANCH   1   4
ATOM      3  N   UNL     1      -0.033   0.012  -2.413  0.00  0.00    -0.283 N 
ATOM      4  C   UNL     1       0.358  -0.592  -3.553  0.00  0.00    +0.230 C 
ATOM      5  O   UNL     1       0.647  -1.770  -3.548  0.00  0.00    -0.274 OA
ATOM      6  H   UNL     1      -0.374   1.057  -2.433  0.00  0.00    +0.155 HD
BRANCH   3  11
ATOM      7  C   UNL     1       0.082  -2.853   2.483  0.00  0.00    +0.044 C 
ATOM      8  C   UNL     1       0.051  -2.090   1.185  0.00  0.00    -0.049 A 
ATOM      9  C   UNL     1      -1.108  -2.057   0.431  0.00  0.00    +0.008 A 
ATOM     10  C   UNL     1      -1.140  -1.358  -0.760  0.00  0.00    -0.028 A 
ATOM     11  C   UNL     1      -0.005  -0.692  -1.204  0.00  0.00    +0.055 A 
ATOM     12  C   UNL     1       1.156  -0.721  -0.441  0.00  0.00    +0.063 A 
ATOM     13  C   UNL     1       1.181  -1.423   0.749  0.00  0.00    +0.025 A 
ATOM     14 CL   UNL     1       2.575   0.117  -0.987  0.00  0.00    -0.082 Cl
ATOM     15  C   UNL     1      -2.404  -1.324  -1.580  0.00  0.00    +0.046 C 
ENDBRANCH   3  11
ENDBRANCH   1   4
BRANCH   1  16
ATOM     16  S   UNL     1       0.254  -0.923  -6.245  0.00  0.00    -0.073 S 
BRANCH  16  17
ATOM     17  C   UNL     1       0.230   0.246  -7.563  0.00  0.00    +0.193 A 
ATOM     18  N   UNL     1       0.336   1.518  -7.275  0.00  0.00    -0.222 NA
ATOM     19  C   UNL     1       0.326   2.475  -8.234  0.00  0.00    +0.077 A 
ATOM     20  C   UNL     1       0.440   3.830  -7.913  0.00  0.00    +0.028 A 
ATOM     21  C   UNL     1       0.424   4.768  -8.907  0.00  0.00    +0.002 A 
ATOM     22  C   UNL     1       0.297   4.396 -10.239  0.00  0.00    +0.001 A 
ATOM     23  C   UNL     1       0.183   3.067 -10.586  0.00  0.00    +0.014 A 
ATOM     24  C   UNL     1       0.197   2.094  -9.589  0.00  0.00    +0.045 A 
ATOM     25  C   UNL     1       0.079   0.664  -9.895  0.00  0.00    +0.168 A 
ATOM     26  N   UNL     1       0.107  -0.215  -8.846  0.00  0.00    -0.188 N 
ATOM     27  N   UNL     1      -0.025  -1.491  -9.409  0.00  0.00    -0.148 NA
ATOM     28  C   UNL     1      -0.115  -1.332 -10.707  0.00  0.00    +0.149 A 
ATOM     29  N   UNL     1      -0.052  -0.036 -11.001  0.00  0.00    -0.211 NA
ATOM     30  C   UNL     1      -0.265  -2.445 -11.711  0.00  0.00    +0.090 C 
ENDBRANCH  16  17
ENDBRANCH   1  16
TORSDOF 4
