REMARK  Name = ZINC16958119
REMARK  10 active torsions:
REMARK  status: ('A' for Active; 'I' for Inactive)
REMARK    1  A    between atoms: C_1  and  C_2
REMARK    2  A    between atoms: C_2  and  C_8
REMARK    3  A    between atoms: N_3  and  N_4
REMARK    4  A    between atoms: N_4  and  C_5
REMARK    5  A    between atoms: C_5  and  N_7
REMARK    6  A    between atoms: C_8  and  C_10
REMARK    7  A    between atoms: C_8  and  C_16
REMARK    8  A    between atoms: C_10  and  N_65
REMARK    9  A    between atoms: C_16  and  C_18
REMARK   10  A    between atoms: C_16  and  C_24
REMARK                            x       y       z     vdW  Elec       q    Type
REMARK                         _______ _______ _______ _____ _____    ______ ____
ROOT
ATOM      1  C   UNL     1       2.065  -2.489  -1.149  0.00  0.00    +0.026 C 
ENDROOT
BRANCH   1   3
ATOM      2  C   UNL     1      -0.049  -1.560  -2.367  0.00  0.00    +0.062 C 
ATOM      3  C   UNL     1       1.428  -1.486  -2.076  0.00  0.00    +0.036 C 
ATOM      4  N   UNL     1       2.142  -0.571  -2.617  0.00  0.00    -0.190 NA
BRANCH   4   5
ATOM      5  N   UNL     1       3.535  -0.591  -2.470  0.00  0.00    -0.219 N 
ATOM      6  H   UNL     1       3.965  -1.339  -2.026  0.00  0.00    +0.176 HD
BRANCH   5   7
ATOM      7  C   UNL     1       4.277   0.428  -2.946  0.00  0.00    +0.147 C 
ATOM      8  S   UNL     1       5.979   0.404  -2.767  0.00  0.00    -0.017 S 
BRANCH   7   9
ATOM      9  N   UNL     1       3.679   1.467  -3.563  0.00  0.00    -0.339 N 
ATOM     10  H   UNL     1       2.715   1.480  -3.664  0.00  0.00    +0.144 HD
ATOM     11  H   UNL     1       4.213   2.200  -3.905  0.00  0.00    +0.144 HD
ENDBRANCH   7   9
ENDBRANCH   5   7
ENDBRANCH   4   5
ENDBRANCH   1   3
BRANCH   1  12
ATOM     12  C   UNL     1       1.862  -3.900  -1.706  0.00  0.00    -0.069 C 
BRANCH  12  18
ATOM     13  C   UNL     1       2.261  -3.393  -4.040  0.00  0.00    -0.079 C 
ATOM     14  C   UNL     1       3.285  -3.508  -5.170  0.00  0.00    -0.019 C 
ATOM     15  C   UNL     1       3.512  -4.987  -5.498  0.00  0.00    -0.004 C 
ATOM     16  C   UNL     1       3.981  -5.715  -4.235  0.00  0.00    -0.019 C 
ATOM     17  C   UNL     1       2.936  -5.535  -3.131  0.00  0.00    -0.079 C 
ATOM     18  N   UNL     1       2.782  -4.093  -2.846  0.00  0.00    +0.380 N 
ATOM     19  H   UNL     1       3.700  -3.701  -2.605  0.00  0.00    -0.082 HD
ENDBRANCH  12  18
ENDBRANCH   1  12
BRANCH   1  20
ATOM     20  C   UNL     1       1.416  -2.389   0.234  0.00  0.00    +0.040 C 
BRANCH  20  21
ATOM     21  C   UNL     1       2.071  -3.373   1.168  0.00  0.00    +0.106 C 
ATOM     22  C   UNL     1       1.346  -4.344   1.730  0.00  0.00    +0.174 C 
ATOM     23  C   UNL     1       2.021  -5.270   2.667  0.00  0.00    +0.059 A 
ATOM     24  C   UNL     1       1.419  -6.451   3.084  0.00  0.00    +0.015 A 
ATOM     25  C   UNL     1       2.089  -7.289   3.953  0.00  0.00    +0.001 A 
ATOM     26  C   UNL     1       3.350  -6.952   4.415  0.00  0.00    +0.004 A 
ATOM     27  C   UNL     1       3.949  -5.770   4.021  0.00  0.00    +0.046 A 
ATOM     28  C   UNL     1       3.286  -4.918   3.156  0.00  0.00    +0.131 A 
ATOM     29  O   UNL     1       3.828  -3.730   2.785  0.00  0.00    -0.491 OA
ATOM     30  C   UNL     1       3.544  -3.264   1.463  0.00  0.00    +0.241 C 
ATOM     31  O   UNL     1       0.024  -4.478   1.448  0.00  0.00    -0.291 OA
ENDBRANCH  20  21
BRANCH  20  32
ATOM     32  C   UNL     1       1.592  -0.992   0.771  0.00  0.00    -0.043 A 
ATOM     33  C   UNL     1       2.833  -0.386   0.728  0.00  0.00    +0.004 A 
ATOM     34  C   UNL     1       2.995   0.895   1.221  0.00  0.00    +0.000 A 
ATOM     35  C   UNL     1       1.914   1.571   1.757  0.00  0.00    +0.000 A 
ATOM     36  C   UNL     1       0.672   0.965   1.800  0.00  0.00    +0.000 A 
ATOM     37  C   UNL     1       0.511  -0.317   1.307  0.00  0.00    +0.004 A 
ENDBRANCH  20  32
ENDBRANCH   1  20
TORSDOF 9
