REMARK  Name = ZINC08132634
REMARK  7 active torsions:
REMARK  status: ('A' for Active; 'I' for Inactive)
REMARK    1  A    between atoms: C_1  and  C_2
REMARK    2  A    between atoms: C_4  and  C_29
REMARK    3  A    between atoms: C_6  and  S_11
REMARK    4  A    between atoms: C_7  and  C_8
REMARK    5  A    between atoms: S_11  and  C_12
REMARK    6  A    between atoms: C_12  and  C_13
REMARK    7  A    between atoms: N_15  and  C_16
REMARK                            x       y       z     vdW  Elec       q    Type
REMARK                         _______ _______ _______ _____ _____    ______ ____
ROOT
ATOM      1  C   UNL     1      -3.601   1.693   0.129  0.00  0.00    +0.227 C 
ATOM      2  O   UNL     1      -3.621   2.905   0.137  0.00  0.00    -0.275 OA
ATOM      3  N   UNL     1      -2.428   1.038   0.018  0.00  0.00    -0.285 N 
ATOM      4  H   UNL     1      -2.418   0.072  -0.065  0.00  0.00    +0.155 HD
ENDROOT
BRANCH   3   5
ATOM      5  C   UNL     1      -1.224   1.754   0.023  0.00  0.00    +0.037 A 
ATOM      6  C   UNL     1      -0.148   1.309  -0.734  0.00  0.00    +0.027 A 
ATOM      7  C   UNL     1       1.043   2.009  -0.725  0.00  0.00    +0.051 A 
ATOM      8  C   UNL     1       1.165   3.160   0.034  0.00  0.00    +0.167 A 
ATOM      9  C   UNL     1       0.084   3.614   0.790  0.00  0.00    +0.169 A 
ATOM     10  C   UNL     1      -1.108   2.912   0.781  0.00  0.00    +0.072 A 
ATOM     11  O   UNL     1       0.465   4.759   1.440  0.00  0.00    -0.447 OA
ATOM     12  C   UNL     1       1.581   5.232   0.672  0.00  0.00    +0.254 C 
ATOM     13  O   UNL     1       2.212   4.027   0.216  0.00  0.00    -0.448 OA
ATOM     14  C   UNL     1       2.533   6.069   1.533  0.00  0.00    +0.093 C 
ATOM     15  C   UNL     1       3.061   7.155   0.559  0.00  0.00    +0.008 C 
ATOM     16  C   UNL     1       1.818   7.473  -0.310  0.00  0.00    +0.008 C 
ATOM     17  C   UNL     1       1.126   6.104  -0.498  0.00  0.00    +0.093 C 
ENDBRANCH   3   5
BRANCH   1  18
ATOM     18  C   UNL     1      -4.888   0.917   0.243  0.00  0.00    +0.171 C 
BRANCH  18  19
ATOM     19  S   UNL     1      -6.277   2.070   0.376  0.00  0.00    -0.096 S 
BRANCH  19  25
ATOM     20  C   UNL     1     -11.405   0.933   0.840  0.00  0.00    +0.044 C 
ATOM     21  C   UNL     1      -9.976   0.475   0.707  0.00  0.00    -0.034 A 
ATOM     22  C   UNL     1      -9.664  -0.872   0.671  0.00  0.00    +0.027 A 
ATOM     23  C   UNL     1      -8.342  -1.263   0.548  0.00  0.00    +0.040 A 
ATOM     24  N   UNL     1      -7.372  -0.374   0.459  0.00  0.00    -0.245 NA
ATOM     25  C   UNL     1      -7.613   0.928   0.493  0.00  0.00    +0.110 A 
ATOM     26  C   UNL     1      -8.931   1.403   0.616  0.00  0.00    +0.071 A 
ATOM     27  C   UNL     1      -8.006  -2.732   0.509  0.00  0.00    +0.065 C 
BRANCH  26  28
ATOM     28  C   UNL     1      -9.208   2.850   0.650  0.00  0.00    +0.244 C 
ATOM     29  O   UNL     1      -9.418   3.453  -0.385  0.00  0.00    -0.270 OA
ATOM     30  N   UNL     1      -9.228   3.505   1.827  0.00  0.00    -0.325 N 
ATOM     31  H   UNL     1      -9.060   3.024   2.653  0.00  0.00    +0.145 HD
ATOM     32  H   UNL     1      -9.410   4.457   1.849  0.00  0.00    +0.145 HD
ENDBRANCH  26  28
ENDBRANCH  19  25
ENDBRANCH  18  19
ENDBRANCH   1  18
TORSDOF 5
