REMARK  Name = ZINC09598247
REMARK  11 active torsions:
REMARK  status: ('A' for Active; 'I' for Inactive)
REMARK    1  A    between atoms: C_1  and  C_2
REMARK    2  A    between atoms: C_5  and  C_8
REMARK    3  A    between atoms: C_13  and  C_18
REMARK    4  A    between atoms: C_21  and  O_26
REMARK    5  A    between atoms: C_22  and  O_24
REMARK    6  A    between atoms: O_24  and  C_25
REMARK    7  A    between atoms: O_26  and  C_27
REMARK    8  A    between atoms: C_29  and  C_41
REMARK    9  A    between atoms: C_30  and  C_31
REMARK   10  A    between atoms: N_33  and  C_34
REMARK   11  A    between atoms: C_37  and  C_40
REMARK                            x       y       z     vdW  Elec       q    Type
REMARK                         _______ _______ _______ _____ _____    ______ ____
ROOT
ATOM      1  C   UNL     1       4.366  -3.610  -7.884  0.00  0.00    +0.090 C 
ATOM      2  C   UNL     1       3.656  -2.995  -6.705  0.00  0.00    +0.024 C 
ATOM      3  C   UNL     1       2.334  -2.725  -6.760  0.00  0.00    +0.016 C 
ATOM      4  C   UNL     1       1.617  -2.109  -5.585  0.00  0.00    +0.059 C 
ATOM      5  C   UNL     1       2.288  -2.554  -4.283  0.00  0.00    +0.032 C 
ATOM      6  C   UNL     1       3.760  -2.131  -4.322  0.00  0.00    +0.088 C 
ATOM      7  C   UNL     1       4.405  -2.716  -5.549  0.00  0.00    +0.162 C 
ATOM      8  O   UNL     1       5.596  -2.956  -5.538  0.00  0.00    -0.292 OA
ATOM      9  N   UNL     1       1.616  -3.002  -7.892  0.00  0.00    -0.321 N 
ATOM     10  C   UNL     1       2.247  -3.172  -9.094  0.00  0.00    +0.014 C 
ATOM     11  C   UNL     1       3.558  -3.459  -9.139  0.00  0.00    +0.043 C 
ATOM     12  C   UNL     1       1.465  -3.036 -10.375  0.00  0.00    +0.061 C 
ATOM     13  H   UNL     1       0.520  -3.090  -7.840  0.00  0.00    +0.152 HD
ENDROOT
BRANCH   1  18
ATOM     14  C   UNL     1       5.236  -9.229  -6.853  0.00  0.00    +0.044 C 
ATOM     15  C   UNL     1       5.009  -7.764  -7.122  0.00  0.00    -0.050 A 
ATOM     16  C   UNL     1       6.087  -6.927  -7.343  0.00  0.00    +0.003 A 
ATOM     17  C   UNL     1       5.879  -5.583  -7.590  0.00  0.00    +0.005 A 
ATOM     18  C   UNL     1       4.593  -5.076  -7.616  0.00  0.00    -0.035 A 
ATOM     19  C   UNL     1       3.516  -5.912  -7.390  0.00  0.00    +0.005 A 
ATOM     20  C   UNL     1       3.724  -7.257  -7.148  0.00  0.00    +0.003 A 
ENDBRANCH   1  18
BRANCH   5  21
ATOM     21  C   UNL     1       1.603  -1.899  -3.111  0.00  0.00    -0.040 A 
ATOM     22  C   UNL     1       1.563  -0.520  -3.018  0.00  0.00    +0.008 A 
ATOM     23  C   UNL     1       0.931   0.085  -1.948  0.00  0.00    +0.049 A 
ATOM     24  C   UNL     1       0.347  -0.691  -0.959  0.00  0.00    +0.161 A 
ATOM     25  C   UNL     1       0.387  -2.079  -1.053  0.00  0.00    +0.162 A 
ATOM     26  C   UNL     1       1.017  -2.679  -2.131  0.00  0.00    +0.053 A 
BRANCH  25  27
ATOM     27  O   UNL     1      -0.190  -2.844  -0.088  0.00  0.00    -0.491 OA
ATOM     28  C   UNL     1      -0.110  -4.261  -0.250  0.00  0.00    +0.277 C 
ENDBRANCH  25  27
BRANCH  24  29
ATOM     29  O   UNL     1      -0.270  -0.097   0.097  0.00  0.00    -0.491 OA
ATOM     30  C   UNL     1      -0.273   1.332   0.128  0.00  0.00    +0.277 C 
ENDBRANCH  24  29
ENDBRANCH   5  21
BRANCH  11  31
ATOM     31  C   UNL     1       4.190  -3.622 -10.396  0.00  0.00    +0.247 C 
ATOM     32  O   UNL     1       3.528  -3.603 -11.418  0.00  0.00    -0.270 OA
ATOM     33  N   UNL     1       5.525  -3.798 -10.462  0.00  0.00    -0.282 N 
ATOM     34  H   UNL     1       6.114  -3.887  -9.537  0.00  0.00    +0.155 HD
BRANCH  33  35
ATOM     35  C   UNL     1       6.161  -3.866 -11.705  0.00  0.00    +0.034 A 
ATOM     36  C   UNL     1       5.523  -4.471 -12.781  0.00  0.00    +0.023 A 
ATOM     37  C   UNL     1       6.152  -4.533 -14.009  0.00  0.00    +0.005 A 
ATOM     38  C   UNL     1       7.420  -4.004 -14.165  0.00  0.00    -0.050 A 
ATOM     39  C   UNL     1       8.060  -3.406 -13.095  0.00  0.00    +0.005 A 
ATOM     40  C   UNL     1       7.434  -3.336 -11.866  0.00  0.00    +0.023 A 
ATOM     41  C   UNL     1       8.105  -4.079 -15.505  0.00  0.00    +0.044 C 
ENDBRANCH  33  35
ENDBRANCH  11  31
TORSDOF 6
