REMARK  Name = ZINC06651359
REMARK  9 active torsions:
REMARK  status: ('A' for Active; 'I' for Inactive)
REMARK    1  A    between atoms: C_1  and  C_2
REMARK    2  A    between atoms: C_3  and  C_30
REMARK    3  A    between atoms: C_11  and  C_13
REMARK    4  A    between atoms: C_13  and  C_15
REMARK    5  A    between atoms: C_13  and  S_16
REMARK    6  A    between atoms: S_16  and  C_17
REMARK    7  A    between atoms: N_21  and  C_22
REMARK    8  A    between atoms: C_25  and  O_28
REMARK    9  A    between atoms: O_28  and  C_29
REMARK                            x       y       z     vdW  Elec       q    Type
REMARK                         _______ _______ _______ _____ _____    ______ ____
ROOT
ATOM      1  C   UNL     1      -0.013   1.086   0.008  0.00  0.00    +0.117 C 
ATOM      2  C   UNL     1      -0.753   1.593  -1.232  0.00  0.00    +0.027 C 
ENDROOT
BRANCH   1  13
ATOM      3  C   UNL     1      -2.523   3.973   5.514  0.00  0.00    +0.045 C 
ATOM      4  C   UNL     1      -2.811   2.752   4.678  0.00  0.00    -0.026 A 
ATOM      5  C   UNL     1      -3.816   1.925   5.008  0.00  0.00    -0.008 A 
ATOM      6  S   UNL     1      -3.748   0.668   3.745  0.00  0.00    -0.073 S 
ATOM      7  C   UNL     1      -2.373   1.290   2.812  0.00  0.00    +0.116 A 
ATOM      8  C   UNL     1      -2.005   2.456   3.508  0.00  0.00    +0.075 A 
ATOM      9  C   UNL     1      -0.895   3.179   2.963  0.00  0.00    +0.260 A 
ATOM     10  O   UNL     1      -0.501   4.203   3.495  0.00  0.00    -0.267 OA
ATOM     11  N   UNL     1      -0.290   2.707   1.857  0.00  0.00    -0.309 N 
ATOM     12  H   UNL     1       0.491   3.203   1.477  0.00  0.00    +0.170 HD
ATOM     13  C   UNL     1      -0.718   1.572   1.248  0.00  0.00    +0.124 A 
ATOM     14  N   UNL     1      -1.727   0.891   1.720  0.00  0.00    -0.225 NA
ATOM     15  C   UNL     1      -4.771   2.032   6.168  0.00  0.00    +0.052 C 
ENDBRANCH   1  13
BRANCH   1  16
ATOM     16  S   UNL     1       1.685   1.712  -0.005  0.00  0.00    -0.073 S 
BRANCH  16  17
ATOM     17  C   UNL     1       2.303   0.892  -1.437  0.00  0.00    +0.215 A 
ATOM     18  N   UNL     1       1.637   0.065  -2.213  0.00  0.00    -0.101 NA
ATOM     19  N   UNL     1       2.383  -0.353  -3.171  0.00  0.00    -0.022 NA
ATOM     20  N   UNL     1       3.563   0.158  -3.077  0.00  0.00    -0.038 NA
ATOM     21  N   UNL     1       3.558   0.990  -1.944  0.00  0.00    -0.187 N 
BRANCH  21  22
ATOM     22  C   UNL     1       4.622   1.756  -1.444  0.00  0.00    +0.070 A 
ATOM     23  C   UNL     1       4.375   2.991  -0.861  0.00  0.00    +0.031 A 
ATOM     24  C   UNL     1       5.421   3.742  -0.365  0.00  0.00    +0.048 A 
ATOM     25  C   UNL     1       6.722   3.267  -0.458  0.00  0.00    +0.120 A 
ATOM     26  C   UNL     1       6.970   2.035  -1.046  0.00  0.00    +0.048 A 
ATOM     27  C   UNL     1       5.923   1.281  -1.537  0.00  0.00    +0.031 A 
BRANCH  25  28
ATOM     28  O   UNL     1       7.753   4.009   0.026  0.00  0.00    -0.495 OA
ATOM     29  C   UNL     1       7.424   5.268   0.618  0.00  0.00    +0.277 C 
ENDBRANCH  25  28
ENDBRANCH  21  22
ENDBRANCH  16  17
ENDBRANCH   1  16
TORSDOF 5
