REMARK  Name = ZINC44453027
REMARK  9 active torsions:
REMARK  status: ('A' for Active; 'I' for Inactive)
REMARK    1  A    between atoms: C_1  and  C_2
REMARK    2  A    between atoms: C_2  and  C_29
REMARK    3  A    between atoms: N_3  and  N_4
REMARK    4  A    between atoms: C_5  and  C_7
REMARK    5  A    between atoms: C_11  and  N_12
REMARK    6  A    between atoms: C_13  and  C_15
REMARK    7  A    between atoms: C_18  and  N_21
REMARK    8  A    between atoms: N_21  and  C_22
REMARK    9  A    between atoms: N_21  and  C_23
REMARK                            x       y       z     vdW  Elec       q    Type
REMARK                         _______ _______ _______ _____ _____    ______ ____
ROOT
ATOM      1  C   UNL     1       0.045   0.120   4.743  0.00  0.00    +0.070 A 
ATOM      2  C   UNL     1      -1.198   0.472   5.416  0.00  0.00    -0.023 A 
ATOM      3  C   UNL     1      -1.022   1.128   6.582  0.00  0.00    -0.004 A 
ATOM      4  S   UNL     1       0.735   1.255   6.769  0.00  0.00    -0.077 S 
ATOM      5  C   UNL     1       1.230   0.480   5.364  0.00  0.00    +0.085 A 
ATOM      6  C   UNL     1      -2.078   1.646   7.508  0.00  0.00    +0.043 C 
ATOM      7  C   UNL     1      -3.107   0.538   7.767  0.00  0.00    +0.005 C 
ATOM      8  C   UNL     1      -4.198   0.629   6.704  0.00  0.00    +0.001 C 
ATOM      9  C   UNL     1      -3.606   1.113   5.381  0.00  0.00    +0.005 C 
ATOM     10  C   UNL     1      -2.571   0.119   4.864  0.00  0.00    +0.037 C 
ENDROOT
BRANCH   1  12
ATOM     11  N   UNL     1       0.029   0.103   2.306  0.00  0.00    -0.203 N 
ATOM     12  C   UNL     1       0.043  -0.591   3.461  0.00  0.00    +0.266 C 
ATOM     13  O   UNL     1       0.054  -1.808   3.441  0.00  0.00    -0.268 OA
ATOM     14  H   UNL     1       0.020   1.073   2.322  0.00  0.00    +0.178 HD
BRANCH  11  17
ATOM     15  C   UNL     1      -0.000   1.588   0.009  0.00  0.00    +0.062 C 
ATOM     16  C   UNL     1       0.013   0.082  -0.017  0.00  0.00    +0.031 C 
ATOM     17  N   UNL     1       0.027  -0.577   1.081  0.00  0.00    -0.190 NA
ATOM     18  C   UNL     1       0.011  -0.650  -1.335  0.00  0.00    +0.062 C 
ENDBRANCH  11  17
ENDBRANCH   1  12
BRANCH   5  19
ATOM     19  N   UNL     1       2.524   0.254   4.926  0.00  0.00    -0.275 N 
ATOM     20  C   UNL     1       3.569   0.677   5.666  0.00  0.00    +0.249 C 
ATOM     21  O   UNL     1       3.375   1.257   6.717  0.00  0.00    -0.270 OA
ATOM     22  H   UNL     1       2.679  -0.208   4.088  0.00  0.00    +0.156 HD
BRANCH  20  23
ATOM     23  C   UNL     1       4.947   0.437   5.200  0.00  0.00    +0.037 A 
ATOM     24  C   UNL     1       5.172  -0.225   3.989  0.00  0.00    +0.015 A 
ATOM     25  C   UNL     1       6.460  -0.447   3.556  0.00  0.00    +0.024 A 
ATOM     26  C   UNL     1       7.538  -0.015   4.324  0.00  0.00    +0.029 A 
ATOM     27  C   UNL     1       7.317   0.644   5.530  0.00  0.00    +0.024 A 
ATOM     28  C   UNL     1       6.032   0.875   5.965  0.00  0.00    +0.015 A 
BRANCH  26  29
ATOM     29  N   UNL     1       8.837  -0.242   3.885  0.00  0.00    -0.336 N 
ATOM     30  C   UNL     1       9.074  -1.044   2.682  0.00  0.00    +0.129 C 
ATOM     31  C   UNL     1       9.969   0.321   4.625  0.00  0.00    +0.129 C 
ENDBRANCH  26  29
ENDBRANCH  20  23
ENDBRANCH   5  19
TORSDOF 5
