REMARK  Name = ZINC40963241
REMARK  7 active torsions:
REMARK  status: ('A' for Active; 'I' for Inactive)
REMARK    1  A    between atoms: C_1  and  C_2
REMARK    2  A    between atoms: C_13  and  S_16
REMARK    3  A    between atoms: S_16  and  C_17
REMARK    4  A    between atoms: C_17  and  C_19
REMARK    5  A    between atoms: C_17  and  C_20
REMARK    6  A    between atoms: C_20  and  O_22
REMARK    7  A    between atoms: O_22  and  C_23
REMARK                            x       y       z     vdW  Elec       q    Type
REMARK                         _______ _______ _______ _____ _____    ______ ____
ROOT
ATOM      1  C   UNL     1      -0.018   1.503   0.010  0.00  0.00    +0.044 C 
ATOM      2  C   UNL     1       0.002  -0.004   0.002  0.00  0.00    -0.050 A 
ATOM      3  C   UNL     1       0.006  -0.688  -1.204  0.00  0.00    +0.005 A 
ATOM      4  C   UNL     1       0.024  -2.066  -1.228  0.00  0.00    +0.026 A 
ATOM      5  C   UNL     1       0.039  -2.784  -0.036  0.00  0.00    +0.050 A 
ATOM      6  C   UNL     1       0.035  -2.090   1.184  0.00  0.00    +0.029 A 
ATOM      7  C   UNL     1       0.023  -0.697   1.193  0.00  0.00    +0.015 A 
ATOM      8  C   UNL     1       0.054  -3.113   2.244  0.00  0.00    +0.137 A 
ATOM      9  C   UNL     1       0.067  -4.362   1.589  0.00  0.00    +0.162 A 
ATOM     10  N   UNL     1       0.058  -4.143   0.233  0.00  0.00    -0.338 N 
ATOM     11  H   UNL     1       0.063  -4.841  -0.441  0.00  0.00    +0.167 HD
ATOM     12  N   UNL     1       0.085  -5.464   2.332  0.00  0.00    -0.201 NA
ATOM     13  C   UNL     1       0.090  -5.355   3.654  0.00  0.00    +0.212 A 
ATOM     14  N   UNL     1       0.077  -4.167   4.248  0.00  0.00    -0.122 NA
ATOM     15  N   UNL     1       0.059  -3.072   3.568  0.00  0.00    -0.143 NA
ENDROOT
BRANCH  13  16
ATOM     16  S   UNL     1       0.113  -6.815   4.641  0.00  0.00    -0.070 S 
BRANCH  16  17
ATOM     17  C   UNL     1       0.114  -6.192   6.345  0.00  0.00    +0.160 C 
ATOM     18  C   UNL     1      -1.201  -5.461   6.621  0.00  0.00    +0.031 C 
BRANCH  17  19
ATOM     19  C   UNL     1       0.257  -7.348   7.301  0.00  0.00    +0.320 C 
ATOM     20  O   UNL     1      -0.009  -8.469   6.939  0.00  0.00    -0.250 OA
BRANCH  19  21
ATOM     21  O   UNL     1       0.680  -7.131   8.557  0.00  0.00    -0.467 OA
ATOM     22  C   UNL     1       0.793  -8.272   9.409  0.00  0.00    +0.280 C 
ENDBRANCH  19  21
ENDBRANCH  17  19
ENDBRANCH  16  17
ENDBRANCH  13  16
TORSDOF 4
