REMARK  Name = ZINC50082573
REMARK  8 active torsions:
REMARK  status: ('A' for Active; 'I' for Inactive)
REMARK    1  A    between atoms: C_1  and  C_2
REMARK    2  A    between atoms: N_5  and  C_11
REMARK    3  A    between atoms: C_7  and  C_10
REMARK    4  A    between atoms: C_14  and  N_17
REMARK    5  A    between atoms: N_20  and  C_21
REMARK    6  A    between atoms: C_21  and  C_22
REMARK    7  A    between atoms: N_28  and  C_29
REMARK    8  A    between atoms: N_28  and  C_30
REMARK                            x       y       z     vdW  Elec       q    Type
REMARK                         _______ _______ _______ _____ _____    ______ ____
ROOT
ATOM      1  N   UNL     1      -4.200  -5.362  -3.218  0.00  0.00    -0.269 N 
ATOM      2  C   UNL     1      -4.416  -5.016  -4.502  0.00  0.00    +0.304 C 
ATOM      3  O   UNL     1      -3.920  -4.000  -4.950  0.00  0.00    -0.252 OA
ATOM      4  N   UNL     1      -5.182  -5.796  -5.291  0.00  0.00    -0.295 N 
ATOM      5  H   UNL     1      -4.527  -6.212  -2.883  0.00  0.00    +0.156 HD
ATOM      6  H   UNL     1      -5.577  -6.607  -4.934  0.00  0.00    +0.151 HD
ENDROOT
BRANCH   1  10
ATOM      7  C   UNL     1      -2.124  -2.781  -0.683  0.00  0.00    +0.030 A 
ATOM      8  C   UNL     1      -2.957  -2.266  -1.667  0.00  0.00    +0.025 A 
ATOM      9  C   UNL     1      -3.644  -3.121  -2.507  0.00  0.00    +0.025 A 
ATOM     10  C   UNL     1      -3.502  -4.495  -2.366  0.00  0.00    +0.035 A 
ATOM     11  C   UNL     1      -2.669  -5.009  -1.381  0.00  0.00    +0.025 A 
ATOM     12  C   UNL     1      -1.978  -4.155  -0.546  0.00  0.00    +0.025 A 
BRANCH   7  16
ATOM     13  C   UNL     1      -0.084  -2.057   3.701  0.00  0.00    +0.039 C 
ATOM     14  C   UNL     1      -1.030  -1.677   2.560  0.00  0.00    +0.133 C 
ATOM     15  C   UNL     1      -0.629  -2.434   1.289  0.00  0.00    +0.136 C 
ATOM     16  N   UNL     1      -1.428  -1.915   0.168  0.00  0.00    -0.325 N 
ATOM     17  C   UNL     1      -1.473  -0.458  -0.033  0.00  0.00    +0.136 C 
ATOM     18  C   UNL     1      -1.832   0.203   1.303  0.00  0.00    +0.133 C 
ATOM     19  O   UNL     1      -0.944  -0.271   2.318  0.00  0.00    -0.371 OA
ATOM     20  C   UNL     1      -3.273  -0.152   1.677  0.00  0.00    +0.039 C 
ENDBRANCH   7  16
ENDBRANCH   1  10
BRANCH   4  21
ATOM     21  C   UNL     1      -5.417  -5.420  -6.687  0.00  0.00    +0.141 C 
BRANCH  21  22
ATOM     22  C   UNL     1      -6.298  -6.451  -7.343  0.00  0.00    -0.026 A 
ATOM     23  C   UNL     1      -5.746  -7.557  -7.977  0.00  0.00    +0.023 A 
ATOM     24  C   UNL     1      -6.580  -8.484  -8.568  0.00  0.00    +0.084 A 
ATOM     25  N   UNL     1      -7.891  -8.331  -8.539  0.00  0.00    -0.350 N 
ATOM     26  C   UNL     1      -8.455  -7.290  -7.945  0.00  0.00    +0.098 A 
ATOM     27  C   UNL     1      -7.675  -6.320  -7.324  0.00  0.00    +0.047 A 
ATOM     28  N   UNL     1      -9.840  -7.168  -7.938  0.00  0.00    -0.323 N 
ATOM     29  C   UNL     1     -10.663  -8.122  -8.686  0.00  0.00    +0.130 C 
ATOM     30  C   UNL     1     -10.476  -6.087  -7.183  0.00  0.00    +0.130 C 
ATOM     31  H   UNL     1      -8.455  -8.997  -8.962  0.00  0.00    +0.166 HD
ENDBRANCH  21  22
ENDBRANCH   4  21
TORSDOF 4
