REMARK  Name = ZINC61801878
REMARK  4 active torsions:
REMARK  status: ('A' for Active; 'I' for Inactive)
REMARK    1  A    between atoms: C_1  and  C_2
REMARK    2  A    between atoms: C_2  and  C_3
REMARK    3  A    between atoms: C_10  and  C_12
REMARK    4  A    between atoms: C_12  and  O_13
REMARK                            x       y       z     vdW  Elec       q    Type
REMARK                         _______ _______ _______ _____ _____    ______ ____
ROOT
ATOM      1  C   UNL     1      -1.433  -0.534   0.013  0.00  0.00    -0.006 C 
ATOM      2  C   UNL     1      -1.416  -2.061   0.124  0.00  0.00    +0.010 C 
ATOM      3  C   UNL     1      -2.829  -2.586   0.383  0.00  0.00    +0.056 C 
ATOM      4  C   UNL     1      -3.764  -2.015  -0.674  0.00  0.00    +0.052 A 
ATOM      5  C   UNL     1      -3.403  -0.921  -1.396  0.00  0.00    +0.013 A 
ATOM      6  S   UNL     1      -4.803  -0.682  -2.454  0.00  0.00    -0.075 S 
ATOM      7  C   UNL     1      -5.721  -1.980  -1.896  0.00  0.00    +0.104 A 
ATOM      8  N   UNL     1      -4.958  -2.511  -0.974  0.00  0.00    -0.246 NA
ATOM      9  C   UNL     1      -2.139  -0.136  -1.294  0.00  0.00    +0.047 C 
ENDROOT
BRANCH   1  11
ATOM     10  C   UNL     1      -0.019   1.526   0.010  0.00  0.00    +0.004 C 
ATOM     11  C   UNL     1       0.002  -0.004   0.002  0.00  0.00    +0.000 C 
ENDBRANCH   1  11
BRANCH   7  12
ATOM     12  C   UNL     1      -7.089  -2.423  -2.348  0.00  0.00    +0.218 C 
BRANCH  12  13
ATOM     13  O   UNL     1      -8.086  -1.764  -1.563  0.00  0.00    -0.388 OA
ATOM     14  H   UNL     1      -8.993  -2.002  -1.800  0.00  0.00    +0.210 HD
ENDBRANCH  12  13
ENDBRANCH   7  12
TORSDOF 3
