REMARK  Name = ZINC38183962
REMARK  7 active torsions:
REMARK  status: ('A' for Active; 'I' for Inactive)
REMARK    1  A    between atoms: C_4  and  C_7
REMARK    2  A    between atoms: C_7  and  C_8
REMARK    3  A    between atoms: N_16  and  C_17
REMARK    4  A    between atoms: C_17  and  C_18
REMARK    5  A    between atoms: N_20  and  N_21
REMARK    6  A    between atoms: C_22  and  C_23
REMARK    7  A    between atoms: C_27  and  N_30
REMARK                            x       y       z     vdW  Elec       q    Type
REMARK                         _______ _______ _______ _____ _____    ______ ____
ROOT
ATOM      1  C   UNL     1       3.035  -3.195   1.670  0.00  0.00    +0.221 C 
ENDROOT
BRANCH   1  10
ATOM      2  C   UNL     1       4.164  -0.959   1.377  0.00  0.00    +0.116 A 
ATOM      3  N   UNL     1       4.905  -0.151   2.078  0.00  0.00    -0.232 NA
ATOM      4  C   UNL     1       5.125  -0.684   3.308  0.00  0.00    +0.089 A 
ATOM      5  C   UNL     1       5.835  -0.253   4.432  0.00  0.00    +0.030 A 
ATOM      6  C   UNL     1       5.873  -1.033   5.552  0.00  0.00    +0.002 A 
ATOM      7  C   UNL     1       5.215  -2.254   5.588  0.00  0.00    +0.002 A 
ATOM      8  C   UNL     1       4.509  -2.699   4.491  0.00  0.00    +0.028 A 
ATOM      9  C   UNL     1       4.458  -1.920   3.343  0.00  0.00    +0.069 A 
ATOM     10  N   UNL     1       3.854  -2.063   2.110  0.00  0.00    -0.318 N 
BRANCH   2  11
ATOM     11  C   UNL     1       3.711  -0.707  -0.038  0.00  0.00    +0.109 C 
BRANCH  11  15
ATOM     12  C   UNL     1      -0.017   1.378   0.010  0.00  0.00    +0.000 A 
ATOM     13  C   UNL     1       1.171   2.086   0.002  0.00  0.00    +0.000 A 
ATOM     14  C   UNL     1       2.377   1.411  -0.013  0.00  0.00    +0.004 A 
ATOM     15  C   UNL     1       2.396   0.029  -0.020  0.00  0.00    -0.040 A 
ATOM     16  C   UNL     1       1.208  -0.679  -0.012  0.00  0.00    +0.004 A 
ATOM     17  C   UNL     1       0.002  -0.004   0.002  0.00  0.00    +0.000 A 
ENDBRANCH  11  15
ENDBRANCH   2  11
ENDBRANCH   1  10
BRANCH   1  18
ATOM     18  C   UNL     1       3.918  -4.235   1.030  0.00  0.00    +0.252 C 
ATOM     19  O   UNL     1       5.114  -4.049   0.949  0.00  0.00    -0.272 OA
ATOM     20  N   UNL     1       3.379  -5.372   0.547  0.00  0.00    -0.206 N 
ATOM     21  H   UNL     1       2.423  -5.521   0.612  0.00  0.00    +0.177 HD
BRANCH  20  22
ATOM     22  N   UNL     1       4.200  -6.339  -0.048  0.00  0.00    -0.188 NA
ATOM     23  C   UNL     1       3.681  -7.434  -0.513  0.00  0.00    +0.142 C 
BRANCH  23  24
ATOM     24  C   UNL     1       4.544  -8.451  -1.139  0.00  0.00    +0.043 A 
ATOM     25  C   UNL     1       3.989  -9.628  -1.646  0.00  0.00    +0.013 A 
ATOM     26  C   UNL     1       4.802 -10.576  -2.231  0.00  0.00    +0.003 A 
ATOM     27  C   UNL     1       6.168 -10.365  -2.318  0.00  0.00    +0.037 A 
ATOM     28  C   UNL     1       6.730  -9.205  -1.821  0.00  0.00    +0.173 A 
ATOM     29  C   UNL     1       5.926  -8.240  -1.235  0.00  0.00    +0.218 A 
ATOM     30  O   UNL     1       6.477  -7.097  -0.751  0.00  0.00    -0.285 OA
BRANCH  28  31
ATOM     31  N   UNL     1       8.191  -8.990  -1.918  0.00  0.00    +0.060 N 
ATOM     32  O   UNL     1       8.892  -9.829  -2.433  0.00  0.00    -0.126 OA
ATOM     33  O   UNL     1       8.683  -7.975  -1.484  0.00  0.00    -0.126 OA
ENDBRANCH  28  31
ENDBRANCH  23  24
ENDBRANCH  20  22
ENDBRANCH   1  18
TORSDOF 7
