REMARK  Name = ZINC09614036
REMARK  5 active torsions:
REMARK  status: ('A' for Active; 'I' for Inactive)
REMARK    1  A    between atoms: C_1  and  C_2
REMARK    2  A    between atoms: C_2  and  C_25
REMARK    3  A    between atoms: N_5  and  C_9
REMARK    4  A    between atoms: C_9  and  C_10
REMARK    5  A    between atoms: N_15  and  C_18
REMARK                            x       y       z     vdW  Elec       q    Type
REMARK                         _______ _______ _______ _____ _____    ______ ____
ROOT
ATOM      1  C   UNL     1       2.897   4.226  -1.437  0.00  0.00    +0.047 C 
ATOM      2  C   UNL     1       2.458   3.931  -0.001  0.00  0.00    +0.135 C 
ATOM      3  C   UNL     1       3.535   3.164   0.739  0.00  0.00    +0.251 C 
ATOM      4  O   UNL     1       3.978   2.070   0.461  0.00  0.00    -0.272 OA
ATOM      5  N   UNL     1       3.900   3.951   1.770  0.00  0.00    -0.215 N 
ATOM      6  C   UNL     1       3.210   5.097   1.784  0.00  0.00    +0.310 C 
ATOM      7  O   UNL     1       3.363   5.967   2.619  0.00  0.00    -0.252 OA
ATOM      8  N   UNL     1       2.328   5.181   0.768  0.00  0.00    -0.281 N 
ATOM      9  H   UNL     1       1.725   5.917   0.579  0.00  0.00    +0.152 HD
ENDROOT
BRANCH   2  10
ATOM     10  C   UNL     1       1.160   3.165   0.007  0.00  0.00    -0.012 A 
ATOM     11  C   UNL     1       1.175   1.783   0.000  0.00  0.00    +0.010 A 
ATOM     12  C   UNL     1      -0.013   1.076   0.008  0.00  0.00    +0.050 A 
ATOM     13  C   UNL     1      -1.222   1.752   0.017  0.00  0.00    +0.166 A 
ATOM     14  C   UNL     1      -1.237   3.144   0.031  0.00  0.00    +0.167 A 
ATOM     15  C   UNL     1      -0.043   3.846   0.022  0.00  0.00    +0.055 A 
ATOM     16  O   UNL     1      -2.535   3.567   0.046  0.00  0.00    -0.453 OA
ATOM     17  C   UNL     1      -3.306   2.424   0.460  0.00  0.00    +0.466 C 
ATOM     18  O   UNL     1      -2.510   1.302   0.035  0.00  0.00    -0.453 OA
ENDBRANCH   2  10
BRANCH   5  19
ATOM     19  C   UNL     1       4.925   3.595   2.755  0.00  0.00    +0.213 C 
BRANCH  19  20
ATOM     20  C   UNL     1       6.270   4.080   2.278  0.00  0.00    +0.234 C 
ATOM     21  O   UNL     1       6.363   4.665   1.220  0.00  0.00    -0.274 OA
ATOM     22  N   UNL     1       7.369   3.863   3.027  0.00  0.00    -0.297 N 
ATOM     23  C   UNL     1       7.277   3.161   4.316  0.00  0.00    +0.126 C 
ATOM     24  C   UNL     1       8.315   2.027   4.322  0.00  0.00    +0.124 C 
ATOM     25  N   UNL     1       9.639   2.580   4.010  0.00  0.00    -0.327 N 
ATOM     26  C   UNL     1       9.671   3.153   2.657  0.00  0.00    +0.124 C 
ATOM     27  C   UNL     1       8.691   4.328   2.580  0.00  0.00    +0.126 C 
BRANCH  25  28
ATOM     28  C   UNL     1      10.635   1.614   4.168  0.00  0.00    +0.031 A 
ATOM     29  C   UNL     1      10.774   0.949   5.380  0.00  0.00    +0.023 A 
ATOM     30  C   UNL     1      11.759  -0.006   5.534  0.00  0.00    +0.003 A 
ATOM     31  C   UNL     1      12.607  -0.302   4.483  0.00  0.00    +0.020 A 
ATOM     32  C   UNL     1      12.473   0.358   3.274  0.00  0.00    +0.043 A 
ATOM     33  C   UNL     1      11.485   1.312   3.112  0.00  0.00    +0.043 A 
ATOM     34 CL   UNL     1      13.540  -0.018   1.957  0.00  0.00    -0.083 Cl
ENDBRANCH  25  28
ENDBRANCH  19  20
ENDBRANCH   5  19
TORSDOF 4
