REMARK  Name = ZINC63709318
REMARK  6 active torsions:
REMARK  status: ('A' for Active; 'I' for Inactive)
REMARK    1  A    between atoms: C_1  and  C_2
REMARK    2  A    between atoms: C_4  and  N_8
REMARK    3  A    between atoms: C_9  and  C_11
REMARK    4  A    between atoms: C_11  and  S_12
REMARK    5  A    between atoms: S_12  and  C_13
REMARK    6  A    between atoms: N_24  and  C_25
REMARK                            x       y       z     vdW  Elec       q    Type
REMARK                         _______ _______ _______ _____ _____    ______ ____
ROOT
ATOM      1  C   UNL     1      -2.965  -7.579  -4.226  0.00  0.00    +0.227 C 
ATOM      2  N   UNL     1      -1.931  -7.172  -5.185  0.00  0.00    -0.317 N 
ATOM      3  C   UNL     1      -1.438  -5.873  -5.126  0.00  0.00    +0.041 A 
ATOM      4  C   UNL     1      -0.149  -5.564  -5.527  0.00  0.00    +0.024 A 
ATOM      5  C   UNL     1       0.293  -4.257  -5.461  0.00  0.00    +0.002 A 
ATOM      6  C   UNL     1      -0.542  -3.253  -4.997  0.00  0.00    +0.001 A 
ATOM      7  C   UNL     1      -1.828  -3.544  -4.589  0.00  0.00    +0.015 A 
ATOM      8  C   UNL     1      -2.285  -4.859  -4.647  0.00  0.00    +0.058 A 
ATOM      9  C   UNL     1      -3.641  -5.225  -4.200  0.00  0.00    +0.255 C 
ATOM     10  O   UNL     1      -4.454  -4.360  -3.936  0.00  0.00    -0.269 OA
ATOM     11  N   UNL     1      -3.969  -6.524  -4.088  0.00  0.00    -0.239 N 
ATOM     12  H   UNL     1      -1.599  -7.797  -5.847  0.00  0.00    +0.149 HD
ENDROOT
BRANCH  11  13
ATOM     13  C   UNL     1      -5.301  -6.872  -3.833  0.00  0.00    +0.039 A 
ATOM     14  C   UNL     1      -5.755  -6.974  -2.525  0.00  0.00    +0.026 A 
ATOM     15  C   UNL     1      -7.069  -7.317  -2.276  0.00  0.00    +0.040 A 
ATOM     16  C   UNL     1      -7.934  -7.559  -3.330  0.00  0.00    +0.124 A 
ATOM     17  C   UNL     1      -7.484  -7.457  -4.635  0.00  0.00    +0.040 A 
ATOM     18  C   UNL     1      -6.172  -7.109  -4.889  0.00  0.00    +0.026 A 
ATOM     19  F   UNL     1      -9.220  -7.894  -3.084  0.00  0.00    -0.205 F 
ENDBRANCH  11  13
BRANCH   1  20
ATOM     20  S   UNL     1      -2.197  -7.891  -2.612  0.00  0.00    -0.110 S 
BRANCH  20  21
ATOM     21  C   UNL     1      -1.450  -6.299  -2.167  0.00  0.00    +0.168 C 
BRANCH  21  23
ATOM     22  N   UNL     1      -0.141  -5.355  -0.292  0.00  0.00    -0.288 N 
ATOM     23  C   UNL     1      -0.769  -6.420  -0.828  0.00  0.00    +0.225 C 
ATOM     24  O   UNL     1      -0.786  -7.477  -0.233  0.00  0.00    -0.275 OA
ATOM     25  H   UNL     1      -0.127  -4.510  -0.768  0.00  0.00    +0.151 HD
BRANCH  22  29
ATOM     26  C   UNL     1       1.584  -2.476   2.955  0.00  0.00    +0.067 C 
ATOM     27  C   UNL     1       1.376  -3.713   2.120  0.00  0.00    +0.060 C 
ATOM     28  C   UNL     1       0.190  -4.282   1.891  0.00  0.00    +0.045 C 
ATOM     29  C   UNL     1       0.521  -5.474   1.010  0.00  0.00    +0.239 C 
ATOM     30  N   UNL     1       1.984  -5.382   0.865  0.00  0.00    -0.160 NA
ATOM     31  N   UNL     1       2.363  -4.393   1.496  0.00  0.00    -0.157 NA
ENDBRANCH  22  29
ENDBRANCH  21  23
ENDBRANCH  20  21
ENDBRANCH   1  20
TORSDOF 5
