REMARK  Name = ZINC48361839
REMARK  7 active torsions:
REMARK  status: ('A' for Active; 'I' for Inactive)
REMARK    1  A    between atoms: C_1  and  C_2
REMARK    2  A    between atoms: C_5  and  N_12
REMARK    3  A    between atoms: C_7  and  N_8
REMARK    4  A    between atoms: C_9  and  C_11
REMARK    5  A    between atoms: N_15  and  C_16
REMARK    6  A    between atoms: C_16  and  C_18
REMARK    7  A    between atoms: C_16  and  C_19
REMARK                            x       y       z     vdW  Elec       q    Type
REMARK                         _______ _______ _______ _____ _____    ______ ____
ROOT
ATOM      1  N   UNL     1       0.132  -4.260  -0.529  0.00  0.00    -0.269 N 
ATOM      2  C   UNL     1       0.064  -4.729  -1.790  0.00  0.00    +0.304 C 
ATOM      3  O   UNL     1      -0.149  -3.966  -2.712  0.00  0.00    -0.252 OA
ATOM      4  N   UNL     1       0.233  -6.045  -2.030  0.00  0.00    -0.293 N 
ATOM      5  H   UNL     1       0.237  -4.876   0.213  0.00  0.00    +0.156 HD
ATOM      6  H   UNL     1       0.404  -6.654  -1.295  0.00  0.00    +0.151 HD
ENDROOT
BRANCH   1  11
ATOM      7  C   UNL     1      -0.207   1.325   0.435  0.00  0.00    +0.045 C 
ATOM      8  C   UNL     1      -0.115  -0.157   0.180  0.00  0.00    -0.029 A 
ATOM      9  C   UNL     1      -0.859  -0.731  -0.833  0.00  0.00    +0.007 A 
ATOM     10  C   UNL     1      -0.779  -2.089  -1.070  0.00  0.00    +0.024 A 
ATOM     11  C   UNL     1       0.052  -2.884  -0.289  0.00  0.00    +0.037 A 
ATOM     12  C   UNL     1       0.801  -2.311   0.729  0.00  0.00    +0.047 A 
ATOM     13  C   UNL     1       0.722  -0.945   0.960  0.00  0.00    +0.038 A 
BRANCH  13  14
ATOM     14  N   UNL     1       1.480  -0.363   1.982  0.00  0.00    -0.285 N 
ATOM     15  C   UNL     1       1.827  -1.091   3.062  0.00  0.00    +0.214 C 
ATOM     16  O   UNL     1       1.549  -2.271   3.113  0.00  0.00    -0.276 OA
ATOM     17  C   UNL     1       2.559  -0.439   4.207  0.00  0.00    +0.109 C 
ATOM     18  H   UNL     1       1.756   0.564   1.913  0.00  0.00    +0.155 HD
ENDBRANCH  13  14
ENDBRANCH   1  11
BRANCH   4  19
ATOM     19  C   UNL     1       0.159  -6.555  -3.401  0.00  0.00    +0.102 C 
ATOM     20  C   UNL     1       1.524  -6.407  -4.075  0.00  0.00    +0.033 C 
BRANCH  19  21
ATOM     21  C   UNL     1      -0.233  -8.010  -3.376  0.00  0.00    -0.026 A 
ATOM     22  C   UNL     1       0.290  -8.850  -2.410  0.00  0.00    +0.007 A 
ATOM     23  C   UNL     1      -0.068 -10.184  -2.385  0.00  0.00    +0.022 A 
ATOM     24  C   UNL     1      -0.952 -10.680  -3.327  0.00  0.00    +0.059 A 
ATOM     25  C   UNL     1      -1.476  -9.839  -4.294  0.00  0.00    +0.060 A 
ATOM     26  C   UNL     1      -1.120  -8.503  -4.314  0.00  0.00    +0.027 A 
ATOM     27 CL   UNL     1      -2.584 -10.461  -5.477  0.00  0.00    -0.082 Cl
ATOM     28 CL   UNL     1      -1.402 -12.357  -3.297  0.00  0.00    -0.082 Cl
ENDBRANCH  19  21
ENDBRANCH   4  19
TORSDOF 4
