REMARK  Name = ZINC13366396
REMARK  11 active torsions:
REMARK  status: ('A' for Active; 'I' for Inactive)
REMARK    1  A    between atoms: C_1  and  C_2
REMARK    2  A    between atoms: C_4  and  C_10
REMARK    3  A    between atoms: C_6  and  C_9
REMARK    4  A    between atoms: C_7  and  O_8
REMARK    5  A    between atoms: C_11  and  C_12
REMARK    6  A    between atoms: C_12  and  C_14
REMARK    7  A    between atoms: C_17  and  S_20
REMARK    8  A    between atoms: S_20  and  N_23
REMARK    9  A    between atoms: N_23  and  C_24
REMARK   10  A    between atoms: C_24  and  C_25
REMARK   11  A    between atoms: C_25  and  C_26
REMARK                            x       y       z     vdW  Elec       q    Type
REMARK                         _______ _______ _______ _____ _____    ______ ____
ROOT
ATOM      1  C   UNL     1      -1.751   4.046  -3.891  0.00  0.00    +0.022 A 
ATOM      2  C   UNL     1      -2.242   2.743  -3.799  0.00  0.00    +0.013 A 
ATOM      3  C   UNL     1      -2.149   2.057  -2.606  0.00  0.00    +0.029 A 
ATOM      4  C   UNL     1      -1.571   2.658  -1.502  0.00  0.00    +0.105 A 
ATOM      5  C   UNL     1      -1.087   3.952  -1.585  0.00  0.00    +0.029 A 
ATOM      6  C   UNL     1      -1.170   4.647  -2.773  0.00  0.00    +0.013 A 
ENDROOT
BRANCH   4   7
ATOM      7  S   UNL     1      -1.456   1.774   0.019  0.00  0.00    +0.058 S 
ATOM      8  O   UNL     1      -2.475   0.784  -0.009  0.00  0.00    -0.153 OA
ATOM      9  O   UNL     1      -1.369   2.749   1.049  0.00  0.00    -0.153 OA
BRANCH   7  10
ATOM     10  N   UNL     1      -0.011   0.966   0.007  0.00  0.00    -0.189 NA
ATOM     11  H   UNL     1       0.002  -0.004   0.002  0.00  0.00    +0.148 HD
BRANCH  10  12
ATOM     12  C   UNL     1       1.248   1.716  -0.001  0.00  0.00    +0.117 C 
BRANCH  12  13
ATOM     13  C   UNL     1       2.402   0.777   0.357  0.00  0.00    +0.142 C 
BRANCH  13  14
ATOM     14  C   UNL     1       3.697   1.549   0.348  0.00  0.00    +0.357 C 
ATOM     15  O   UNL     1       3.696   2.728   0.084  0.00  0.00    -0.246 OA
ATOM     16  O   UNL     1       4.851   0.926   0.635  0.00  0.00    -0.246 OA
ENDBRANCH  13  14
ENDBRANCH  12  13
ENDBRANCH  10  12
ENDBRANCH   7  10
ENDBRANCH   4   7
BRANCH   1  17
ATOM     17  C   UNL     1      -1.848   4.788  -5.167  0.00  0.00    +0.186 C 
ATOM     18  O   UNL     1      -2.356   4.262  -6.140  0.00  0.00    -0.287 OA
BRANCH  17  20
ATOM     19  C   UNL     1      -1.437   6.790  -6.424  0.00  0.00    +0.012 C 
ATOM     20  C   UNL     1      -1.349   6.112  -5.257  0.00  0.00    +0.052 C 
BRANCH  19  24
ATOM     21  C   UNL     1      -0.621  10.911  -9.104  0.00  0.00    +0.047 C 
ATOM     22  C   UNL     1      -0.524  10.151  -7.806  0.00  0.00    -0.008 A 
ATOM     23  C   UNL     1      -1.010   8.866  -7.724  0.00  0.00    +0.015 A 
ATOM     24  C   UNL     1      -0.920   8.162  -6.517  0.00  0.00    -0.024 A 
ATOM     25  C   UNL     1      -0.340   8.772  -5.397  0.00  0.00    +0.015 A 
ATOM     26  C   UNL     1       0.147  10.055  -5.492  0.00  0.00    -0.008 A 
ATOM     27  C   UNL     1       0.056  10.750  -6.693  0.00  0.00    +0.123 A 
ATOM     28  C   UNL     1       0.776  10.711  -4.289  0.00  0.00    +0.047 C 
BRANCH  27  29
ATOM     29  O   UNL     1       0.534  12.017  -6.779  0.00  0.00    -0.506 OA
ATOM     30  H   UNL     1      -0.117  12.699  -6.561  0.00  0.00    +0.292 HD
ENDBRANCH  27  29
ENDBRANCH  19  24
ENDBRANCH  17  20
ENDBRANCH   1  17
TORSDOF 9
