REMARK  Name = ZINC39106134
REMARK  11 active torsions:
REMARK  status: ('A' for Active; 'I' for Inactive)
REMARK    1  A    between atoms: C_1  and  C_2
REMARK    2  A    between atoms: C_2  and  C_3
REMARK    3  A    between atoms: C_2  and  O_4
REMARK    4  A    between atoms: O_4  and  C_5
REMARK    5  A    between atoms: C_6  and  O_30
REMARK    6  A    between atoms: C_10  and  O_11
REMARK    7  A    between atoms: O_11  and  C_12
REMARK    8  A    between atoms: C_12  and  C_13
REMARK    9  A    between atoms: C_12  and  C_14
REMARK   10  A    between atoms: C_21  and  C_23
REMARK   11  A    between atoms: C_28  and  N_29
REMARK                            x       y       z     vdW  Elec       q    Type
REMARK                         _______ _______ _______ _____ _____    ______ ____
ROOT
ATOM      1  C   UNL     1      -2.369  -0.636  -0.523  0.00  0.00    +0.208 A 
ATOM      2  C   UNL     1      -2.848   0.321  -1.424  0.00  0.00    +0.169 A 
ATOM      3  C   UNL     1      -3.440  -0.113  -2.591  0.00  0.00    +0.037 A 
ATOM      4  C   UNL     1      -3.535  -1.464  -2.818  0.00  0.00    +0.106 A 
ATOM      5  C   UNL     1      -3.076  -2.434  -1.953  0.00  0.00    +0.203 A 
ATOM      6  C   UNL     1      -2.473  -2.000  -0.778  0.00  0.00    +0.211 A 
ATOM      7  O   UNL     1      -3.366  -3.612  -2.554  0.00  0.00    -0.403 OA
ATOM      8  C   UNL     1      -3.977  -3.379  -3.737  0.00  0.00    +0.425 A 
ATOM      9  O   UNL     1      -4.359  -4.239  -4.508  0.00  0.00    -0.222 OA
ATOM     10  N   UNL     1      -4.099  -2.050  -3.935  0.00  0.00    -0.249 N 
ATOM     11  C   UNL     1      -4.625  -1.243  -4.938  0.00  0.00    +0.094 C 
ATOM     12  C   UNL     1      -4.609   0.075  -4.867  0.00  0.00    +0.004 C 
ATOM     13  C   UNL     1      -4.006   0.784  -3.666  0.00  0.00    +0.081 C 
ENDROOT
BRANCH  13  14
ATOM     14  C   UNL     1      -5.072   1.650  -3.045  0.00  0.00    -0.015 A 
ATOM     15  C   UNL     1      -6.129   1.070  -2.372  0.00  0.00    +0.006 A 
ATOM     16  C   UNL     1      -7.107   1.864  -1.803  0.00  0.00    +0.000 A 
ATOM     17  C   UNL     1      -7.030   3.241  -1.904  0.00  0.00    +0.002 A 
ATOM     18  C   UNL     1      -5.976   3.828  -2.575  0.00  0.00    +0.023 A 
ATOM     19  C   UNL     1      -4.988   3.033  -3.144  0.00  0.00    +0.029 A 
BRANCH  19  20
ATOM     20  N   UNL     1      -3.917   3.623  -3.819  0.00  0.00    -0.358 N 
ATOM     21  H   UNL     1      -3.297   3.071  -4.320  0.00  0.00    +0.142 HD
ATOM     22  H   UNL     1      -3.794   4.585  -3.786  0.00  0.00    +0.142 HD
ENDBRANCH  19  20
ENDBRANCH  13  14
BRANCH   2  23
ATOM     23  O   UNL     1      -2.732   1.649  -1.156  0.00  0.00    -0.503 OA
ATOM     24  H   UNL     1      -1.926   2.053  -1.507  0.00  0.00    +0.292 HD
ENDBRANCH   2  23
BRANCH   1  25
ATOM     25  O   UNL     1      -1.781  -0.221   0.633  0.00  0.00    -0.482 OA
BRANCH  25  27
ATOM     26  C   UNL     1       0.070   1.298   0.308  0.00  0.00    +0.051 C 
ATOM     27  C   UNL     1      -0.355  -0.133   0.640  0.00  0.00    +0.168 C 
ATOM     28  C   UNL     1       0.172  -0.513   2.025  0.00  0.00    +0.051 C 
ENDBRANCH  25  27
ENDBRANCH   1  25
BRANCH   6  29
ATOM     29  O   UNL     1      -1.992  -2.903   0.119  0.00  0.00    -0.482 OA
BRANCH  29  30
ATOM     30  C   UNL     1      -2.894  -3.357   1.130  0.00  0.00    +0.168 C 
ATOM     31  C   UNL     1      -3.638  -4.597   0.631  0.00  0.00    +0.051 C 
ATOM     32  C   UNL     1      -2.108  -3.708   2.395  0.00  0.00    +0.051 C 
ENDBRANCH  29  30
ENDBRANCH   6  29
TORSDOF 7
