REMARK  Name = ZINC35591891
REMARK  12 active torsions:
REMARK  status: ('A' for Active; 'I' for Inactive)
REMARK    1  A    between atoms: C_1  and  C_2
REMARK    2  A    between atoms: C_2  and  C_3
REMARK    3  A    between atoms: C_2  and  N_4
REMARK    4  A    between atoms: C_5  and  C_7
REMARK    5  A    between atoms: C_7  and  O_27
REMARK    6  A    between atoms: C_9  and  O_26
REMARK    7  A    between atoms: C_11  and  O_25
REMARK    8  A    between atoms: C_13  and  O_16
REMARK    9  A    between atoms: O_16  and  C_17
REMARK   10  A    between atoms: C_17  and  C_18
REMARK   11  A    between atoms: O_27  and  C_28
REMARK   12  A    between atoms: C_28  and  C_29
REMARK                            x       y       z     vdW  Elec       q    Type
REMARK                         _______ _______ _______ _____ _____    ______ ____
ROOT
ATOM      1  C   UNL     1      -3.080  -2.182  -0.390  0.00  0.00    +0.150 C 
ATOM      2  C   UNL     1      -3.297  -2.678   1.040  0.00  0.00    +0.078 C 
ATOM      3  C   UNL     1      -2.376  -3.869   1.312  0.00  0.00    +0.149 C 
ATOM      4  C   UNL     1      -2.694  -4.996   0.328  0.00  0.00    +0.172 C 
ATOM      5  C   UNL     1      -2.477  -4.499  -1.103  0.00  0.00    +0.153 C 
ATOM      6  C   UNL     1      -3.399  -3.308  -1.375  0.00  0.00    +0.079 C 
ENDROOT
BRANCH   1   8
ATOM      7  N   UNL     1      -1.299  -0.950  -1.586  0.00  0.00    -0.311 N 
ATOM      8  C   UNL     1      -1.645  -1.755  -0.562  0.00  0.00    +0.245 C 
ATOM      9  O   UNL     1      -0.802  -2.136   0.222  0.00  0.00    -0.273 OA
ATOM     10  H   UNL     1      -1.958  -0.704  -2.253  0.00  0.00    +0.149 HD
BRANCH   7  12
ATOM     11  C   UNL     1       0.385  -0.118  -3.152  0.00  0.00    +0.027 C 
ATOM     12  C   UNL     1       0.073  -0.447  -1.691  0.00  0.00    +0.067 C 
ATOM     13  C   UNL     1       0.220   0.816  -0.841  0.00  0.00    +0.027 C 
ENDBRANCH   7  12
ENDBRANCH   1   8
BRANCH   4  14
ATOM     14  O   UNL     1      -4.055  -5.400   0.490  0.00  0.00    -0.387 OA
ATOM     15  H   UNL     1      -4.265  -5.727   1.375  0.00  0.00    +0.210 HD
ENDBRANCH   4  14
BRANCH   3  16
ATOM     16  O   UNL     1      -2.578  -4.333   2.649  0.00  0.00    -0.389 OA
ATOM     17  H   UNL     1      -2.025  -5.088   2.891  0.00  0.00    +0.210 HD
ENDBRANCH   3  16
BRANCH   5  18
ATOM     18  O   UNL     1      -2.774  -5.551  -2.023  0.00  0.00    -0.369 OA
BRANCH  18  19
ATOM     19  C   UNL     1      -1.652  -6.375  -2.346  0.00  0.00    +0.195 C 
BRANCH  19  20
ATOM     20  C   UNL     1      -2.078  -7.445  -3.318  0.00  0.00    -0.021 A 
ATOM     21  C   UNL     1      -2.547  -8.658  -2.848  0.00  0.00    +0.006 A 
ATOM     22  C   UNL     1      -2.938  -9.641  -3.739  0.00  0.00    +0.002 A 
ATOM     23  C   UNL     1      -2.860  -9.411  -5.100  0.00  0.00    +0.020 A 
ATOM     24  C   UNL     1      -2.390  -8.197  -5.570  0.00  0.00    +0.041 A 
ATOM     25  C   UNL     1      -2.005  -7.212  -4.678  0.00  0.00    +0.026 A 
ATOM     26 CL   UNL     1      -2.292  -7.908  -7.279  0.00  0.00    -0.084 Cl
ENDBRANCH  19  20
ENDBRANCH  18  19
ENDBRANCH   5  18
BRANCH   1  27
ATOM     27  O   UNL     1      -3.941  -1.070  -0.644  0.00  0.00    -0.359 OA
BRANCH  27  28
ATOM     28  C   UNL     1      -3.700   0.058   0.200  0.00  0.00    +0.196 C 
BRANCH  28  29
ATOM     29  C   UNL     1      -4.574   1.206  -0.232  0.00  0.00    -0.021 A 
ATOM     30  C   UNL     1      -4.119   2.103  -1.179  0.00  0.00    +0.006 A 
ATOM     31  C   UNL     1      -4.921   3.157  -1.576  0.00  0.00    +0.002 A 
ATOM     32  C   UNL     1      -6.179   3.314  -1.025  0.00  0.00    +0.020 A 
ATOM     33  C   UNL     1      -6.635   2.416  -0.077  0.00  0.00    +0.041 A 
ATOM     34  C   UNL     1      -5.834   1.358   0.315  0.00  0.00    +0.026 A 
ATOM     35 CL   UNL     1      -8.215   2.613   0.615  0.00  0.00    -0.084 Cl
ENDBRANCH  28  29
ENDBRANCH  27  28
ENDBRANCH   1  27
TORSDOF 10
