REMARK  Name = ZINC38793209
REMARK  6 active torsions:
REMARK  status: ('A' for Active; 'I' for Inactive)
REMARK    1  A    between atoms: C_1  and  C_2
REMARK    2  A    between atoms: C_2  and  C_3
REMARK    3  A    between atoms: C_3  and  C_4
REMARK    4  A    between atoms: C_4  and  C_5
REMARK    5  A    between atoms: C_5  and  C_6
REMARK    6  A    between atoms: C_11  and  C_14
REMARK                            x       y       z     vdW  Elec       q    Type
REMARK                         _______ _______ _______ _____ _____    ______ ____
ROOT
ATOM      1  C   UNL     1       1.473  -4.238   2.383  0.00  0.00    +0.216 C 
ATOM      2  O   UNL     1       0.856  -4.961   1.629  0.00  0.00    -0.276 OA
ATOM      3  N   UNL     1       2.117  -4.764   3.443  0.00  0.00    -0.297 N 
ATOM      4  C   UNL     1       2.095  -6.212   3.711  0.00  0.00    +0.113 C 
ATOM      5  C   UNL     1       3.532  -6.732   3.617  0.00  0.00    +0.054 C 
ATOM      6  C   UNL     1       4.466  -5.827   4.363  0.00  0.00    -0.043 C 
ATOM      7  C   UNL     1       4.181  -4.573   4.697  0.00  0.00    -0.004 C 
ATOM      8  C   UNL     1       2.873  -3.915   4.375  0.00  0.00    +0.135 C 
ENDROOT
BRANCH   6   9
ATOM      9  C   UNL     1       5.726  -6.338   4.733  0.00  0.00    -0.015 C 
ATOM     10  C   UNL     1       6.268  -7.570   4.387  0.00  0.00    +0.022 A 
ATOM     11  C   UNL     1       5.782  -8.647   3.610  0.00  0.00    +0.013 A 
ATOM     12  C   UNL     1       6.577  -9.743   3.458  0.00  0.00    +0.020 A 
ATOM     13  C   UNL     1       7.836  -9.795   4.056  0.00  0.00    +0.113 A 
ATOM     14  N   UNL     1       8.314  -8.816   4.780  0.00  0.00    -0.238 NA
ATOM     15  C   UNL     1       7.607  -7.686   4.993  0.00  0.00    +0.135 A 
ATOM     16  N   UNL     1       7.895  -6.601   5.676  0.00  0.00    -0.365 N 
ATOM     17  C   UNL     1       6.776  -5.658   5.584  0.00  0.00    +0.150 C 
ATOM     18  H   UNL     1       8.720  -6.446   6.163  0.00  0.00    +0.161 HD
ENDBRANCH   6   9
BRANCH   1  19
ATOM     19  C   UNL     1       1.519  -2.753   2.133  0.00  0.00    +0.096 C 
BRANCH  19  20
ATOM     20  C   UNL     1       0.713  -2.421   0.875  0.00  0.00    +0.009 C 
BRANCH  20  21
ATOM     21  C   UNL     1       0.760  -0.913   0.622  0.00  0.00    +0.000 C 
BRANCH  21  23
ATOM     22  C   UNL     1       0.002   0.926  -0.889  0.00  0.00    +0.004 C 
ATOM     23  C   UNL     1      -0.045  -0.582  -0.636  0.00  0.00    -0.003 C 
ENDBRANCH  21  23
ENDBRANCH  20  21
ENDBRANCH  19  20
ENDBRANCH   1  19
TORSDOF 5
