REMARK  Name = ZINC06785166
REMARK  13 active torsions:
REMARK  status: ('A' for Active; 'I' for Inactive)
REMARK    1  A    between atoms: C_1  and  C_2
REMARK    2  A    between atoms: C_2  and  N_60
REMARK    3  A    between atoms: C_3  and  C_4
REMARK    4  A    between atoms: C_3  and  N_60
REMARK    5  A    between atoms: C_5  and  C_6
REMARK    6  A    between atoms: C_5  and  N_60
REMARK    7  A    between atoms: C_6  and  N_7
REMARK    8  A    between atoms: C_8  and  C_22
REMARK    9  A    between atoms: C_11  and  C_12
REMARK   10  A    between atoms: C_11  and  O_17
REMARK   11  A    between atoms: C_25  and  C_28
REMARK   12  A    between atoms: C_28  and  C_29
REMARK   13  A    between atoms: C_28  and  C_30
REMARK                            x       y       z     vdW  Elec       q    Type
REMARK                         _______ _______ _______ _____ _____    ______ ____
ROOT
ATOM      1  N   UNL     1      -4.303   1.060   3.760  0.00  0.00    -0.285 N 
ATOM      2  C   UNL     1      -5.536   1.851   3.824  0.00  0.00    +0.144 C 
ATOM      3  C   UNL     1      -6.071   1.703   5.230  0.00  0.00    +0.072 C 
ATOM      4  C   UNL     1      -7.223   2.279   5.748  0.00  0.00    +0.140 C 
ATOM      5  C   UNL     1      -5.172   0.871   5.904  0.00  0.00    +0.249 C 
ATOM      6  O   UNL     1      -5.262   0.516   7.067  0.00  0.00    -0.282 OA
ATOM      7  C   UNL     1      -4.092   0.487   4.958  0.00  0.00    +0.288 C 
ATOM      8  O   UNL     1      -3.154  -0.235   5.228  0.00  0.00    -0.266 OA
ENDROOT
BRANCH   2   9
ATOM      9  C   UNL     1      -5.236   3.299   3.535  0.00  0.00    -0.022 A 
ATOM     10  C   UNL     1      -4.095   3.885   4.050  0.00  0.00    +0.006 A 
ATOM     11  C   UNL     1      -3.817   5.212   3.781  0.00  0.00    +0.004 A 
ATOM     12  C   UNL     1      -4.686   5.956   3.005  0.00  0.00    -0.045 A 
ATOM     13  C   UNL     1      -5.830   5.372   2.494  0.00  0.00    +0.004 A 
ATOM     14  C   UNL     1      -6.105   4.043   2.759  0.00  0.00    +0.006 A 
BRANCH  12  15
ATOM     15  C   UNL     1      -4.386   7.404   2.715  0.00  0.00    +0.013 C 
ATOM     16  C   UNL     1      -4.307   8.182   4.030  0.00  0.00    +0.012 C 
ATOM     17  C   UNL     1      -3.048   7.510   1.979  0.00  0.00    +0.012 C 
ENDBRANCH  12  15
ENDBRANCH   2   9
BRANCH   4  18
ATOM     18  C   UNL     1      -7.652   1.949   7.056  0.00  0.00    +0.054 A 
ATOM     19  C   UNL     1      -8.041   2.795   8.091  0.00  0.00    +0.019 A 
ATOM     20  C   UNL     1      -8.415   2.204   9.270  0.00  0.00    +0.008 A 
ATOM     21  C   UNL     1      -8.389   0.847   9.372  0.00  0.00    +0.046 A 
ATOM     22  S   UNL     1      -7.843   0.341   7.806  0.00  0.00    -0.094 S 
ENDBRANCH   4  18
BRANCH   4  23
ATOM     23  O   UNL     1      -7.935   3.154   5.004  0.00  0.00    -0.505 OA
ATOM     24  H   UNL     1      -8.727   3.468   5.526  0.00  0.00    +0.292 HD
ENDBRANCH   4  23
BRANCH   1  25
ATOM     25  C   UNL     1      -3.445   0.913   2.582  0.00  0.00    +0.090 C 
BRANCH  25  26
ATOM     26  C   UNL     1      -2.385   2.016   2.583  0.00  0.00    -0.060 C 
BRANCH  26  27
ATOM     27  N   UNL     1      -1.515   1.841   1.400  0.00  0.00    +0.380 N 
ATOM     28  H   UNL     1      -1.175   0.873   1.377  0.00  0.00    -0.082 HD
BRANCH  27  30
ATOM     29  C   UNL     1       0.653   2.176   2.479  0.00  0.00    -0.017 C 
ATOM     30  C   UNL     1      -0.357   2.755   1.486  0.00  0.00    -0.082 C 
ENDBRANCH  27  30
BRANCH  27  31
ATOM     31  C   UNL     1      -2.281   2.111   0.165  0.00  0.00    -0.082 C 
ATOM     32  C   UNL     1      -1.536   1.491  -1.019  0.00  0.00    -0.017 C 
ENDBRANCH  27  31
ENDBRANCH  26  27
ENDBRANCH  25  26
ENDBRANCH   1  25
TORSDOF 9
