REMARK  Name = ZINC33503296
REMARK  5 active torsions:
REMARK  status: ('A' for Active; 'I' for Inactive)
REMARK    1  A    between atoms: C_1  and  C_2
REMARK    2  A    between atoms: C_3  and  C_13
REMARK    3  A    between atoms: C_5  and  C_10
REMARK    4  A    between atoms: C_10  and  C_11
REMARK    5  A    between atoms: C_11  and  N_12
REMARK                            x       y       z     vdW  Elec       q    Type
REMARK                         _______ _______ _______ _____ _____    ______ ____
ROOT
ATOM      1  C   UNL     1       1.467   5.011  -5.997  0.00  0.00    +0.068 C 
ATOM      2  C   UNL     1       0.298   4.707  -5.095  0.00  0.00    +0.072 A 
ATOM      3  C   UNL     1       0.371   4.178  -3.822  0.00  0.00    +0.159 A 
ATOM      4  N   UNL     1      -0.950   4.062  -3.352  0.00  0.00    -0.285 N 
ATOM      5  C   UNL     1      -1.595   3.631  -2.218  0.00  0.00    +0.031 A 
ATOM      6  C   UNL     1      -2.926   3.669  -2.134  0.00  0.00    +0.070 A 
ATOM      7  S   UNL     1      -3.370   4.357  -3.722  0.00  0.00    -0.057 S 
ATOM      8  C   UNL     1      -1.722   4.527  -4.370  0.00  0.00    +0.178 A 
ATOM      9  N   UNL     1      -0.983   4.902  -5.384  0.00  0.00    -0.226 NA
ENDROOT
BRANCH   3  10
ATOM     10  C   UNL     1       1.548   3.821  -3.124  0.00  0.00    +0.405 C 
ATOM     11  O   UNL     1       2.639   4.073  -3.602  0.00  0.00    -0.239 OA
ATOM     12  O   UNL     1       1.461   3.200  -1.929  0.00  0.00    -0.239 OA
ENDBRANCH   3  10
BRANCH   5  13
ATOM     13  C   UNL     1      -0.790   3.106  -1.057  0.00  0.00    +0.035 C 
BRANCH  13  14
ATOM     14  C   UNL     1      -1.726   2.796   0.113  0.00  0.00    -0.080 C 
BRANCH  14  15
ATOM     15  N   UNL     1      -0.942   2.283   1.245  0.00  0.00    +0.378 N 
ATOM     16  H   UNL     1      -1.614   2.060   2.086  0.00  0.00    -0.090 HD
ATOM     17  H   UNL     1      -0.206   3.040   1.554  0.00  0.00    -0.090 HD
ATOM     18  H   UNL     1      -0.417   1.365   0.941  0.00  0.00    -0.090 HD
ENDBRANCH  14  15
ENDBRANCH  13  14
ENDBRANCH   5  13
TORSDOF 4
