REMARK  Name = ZINC60353889
REMARK  10 active torsions:
REMARK  status: ('A' for Active; 'I' for Inactive)
REMARK    1  A    between atoms: C_1  and  C_2
REMARK    2  A    between atoms: C_2  and  O_3
REMARK    3  A    between atoms: O_3  and  C_4
REMARK    4  A    between atoms: C_7  and  N_12
REMARK    5  A    between atoms: C_9  and  C_10
REMARK    6  A    between atoms: C_10  and  O_11
REMARK    7  A    between atoms: N_12  and  S_13
REMARK    8  A    between atoms: S_13  and  C_16
REMARK    9  A    between atoms: C_19  and  C_26
REMARK   10  A    between atoms: N_21  and  C_25
REMARK                            x       y       z     vdW  Elec       q    Type
REMARK                         _______ _______ _______ _____ _____    ______ ____
ROOT
ATOM      1  S   UNL     1      -0.662  -6.979  -0.025  0.00  0.00    +0.093 S 
ATOM      2  O   UNL     1      -0.013  -6.774  -1.272  0.00  0.00    -0.148 OA
ATOM      3  O   UNL     1      -0.000  -6.788   1.218  0.00  0.00    -0.148 OA
ENDROOT
BRANCH   1   4
ATOM      4  C   UNL     1      -1.251  -8.640  -0.031  0.00  0.00    +0.129 A 
ATOM      5  C   UNL     1      -1.481  -9.294   1.151  0.00  0.00    +0.043 A 
ATOM      6  C   UNL     1      -1.949 -10.611   1.097  0.00  0.00    +0.043 A 
ATOM      7  C   UNL     1      -2.301 -11.609   2.102  0.00  0.00    +0.069 A 
ATOM      8  N   UNL     1      -2.684 -12.684   1.474  0.00  0.00    -0.174 NA
ATOM      9  N   UNL     1      -2.616 -12.483   0.091  0.00  0.00    -0.249 N 
ATOM     10  C   UNL     1      -2.166 -11.215  -0.158  0.00  0.00    +0.158 A 
ATOM     11  N   UNL     1      -1.925 -10.531  -1.270  0.00  0.00    -0.234 NA
ATOM     12  C   UNL     1      -1.491  -9.290  -1.233  0.00  0.00    +0.142 A 
ATOM     13  C   UNL     1      -2.969 -13.474  -0.928  0.00  0.00    +0.174 C 
ATOM     14  C   UNL     1      -2.234 -11.428   3.596  0.00  0.00    +0.068 C 
ENDBRANCH   1   4
BRANCH   1  15
ATOM     15  N   UNL     1      -1.988  -5.989  -0.013  0.00  0.00    -0.098 NA
BRANCH  15  19
ATOM     16  C   UNL     1      -1.498  -1.849   0.006  0.00  0.00    +0.126 A 
ATOM     17  C   UNL     1      -0.387  -2.679  -0.003  0.00  0.00    +0.048 A 
ATOM     18  C   UNL     1      -0.548  -4.050  -0.009  0.00  0.00    +0.030 A 
ATOM     19  C   UNL     1      -1.824  -4.599  -0.006  0.00  0.00    +0.075 A 
ATOM     20  C   UNL     1      -2.936  -3.768   0.004  0.00  0.00    +0.036 A 
ATOM     21  C   UNL     1      -2.773  -2.396   0.016  0.00  0.00    +0.021 A 
BRANCH  16  22
ATOM     22  O   UNL     1      -1.339  -0.499   0.012  0.00  0.00    -0.492 OA
BRANCH  22  24
ATOM     23  C   UNL     1      -0.019   1.526   0.010  0.00  0.00    +0.048 C 
ATOM     24  C   UNL     1       0.002  -0.004   0.002  0.00  0.00    +0.225 C 
ENDBRANCH  22  24
ENDBRANCH  16  22
BRANCH  21  25
ATOM     25  C   UNL     1      -3.980  -1.494   0.032  0.00  0.00    +0.194 C 
BRANCH  25  26
ATOM     26  O   UNL     1      -5.168  -2.288   0.039  0.00  0.00    -0.390 OA
ATOM     27  H   UNL     1      -5.986  -1.772   0.050  0.00  0.00    +0.210 HD
ENDBRANCH  25  26
ENDBRANCH  21  25
ENDBRANCH  15  19
ENDBRANCH   1  15
TORSDOF 7
