REMARK  Name = ZINC40122930
REMARK  7 active torsions:
REMARK  status: ('A' for Active; 'I' for Inactive)
REMARK    1  A    between atoms: C_3  and  C_6
REMARK    2  A    between atoms: C_9  and  S_12
REMARK    3  A    between atoms: N_10  and  N_11
REMARK    4  A    between atoms: S_12  and  C_13
REMARK    5  A    between atoms: C_13  and  C_14
REMARK    6  A    between atoms: C_14  and  C_15
REMARK    7  A    between atoms: N_17  and  C_18
REMARK                            x       y       z     vdW  Elec       q    Type
REMARK                         _______ _______ _______ _____ _____    ______ ____
ROOT
ATOM      1  S   UNL     1       7.113  -0.989   0.341  0.00  0.00    -0.084 S 
ENDROOT
BRANCH   1   5
ATOM      2  C   UNL     1       3.568   0.618  -0.024  0.00  0.00    +0.217 A 
ATOM      3  N   UNL     1       4.372   1.621  -0.302  0.00  0.00    -0.123 NA
ATOM      4  N   UNL     1       5.596   1.238  -0.222  0.00  0.00    -0.120 NA
ATOM      5  C   UNL     1       5.651  -0.032   0.113  0.00  0.00    +0.209 A 
ATOM      6  N   UNL     1       4.364  -0.470   0.256  0.00  0.00    -0.221 N 
BRANCH   2   9
ATOM      7  C   UNL     1      -0.016   1.344   0.013  0.00  0.00    +0.042 A 
ATOM      8  C   UNL     1       1.324   1.776  -0.002  0.00  0.00    +0.053 A 
ATOM      9  C   UNL     1       2.098   0.654  -0.008  0.00  0.00    +0.173 A 
ATOM     10  O   UNL     1       1.280  -0.417   0.002  0.00  0.00    -0.460 OA
ATOM     11  C   UNL     1       0.002  -0.003   0.015  0.00  0.00    +0.196 A 
ENDBRANCH   2   9
BRANCH   6  12
ATOM     12  N   UNL     1       3.954  -1.726   0.603  0.00  0.00    -0.294 N 
ATOM     13  H   UNL     1       3.830  -2.304  -0.215  0.00  0.00    +0.163 HD
ATOM     14  H   UNL     1       4.599  -2.151   1.252  0.00  0.00    +0.163 HD
ENDBRANCH   6  12
ENDBRANCH   1   5
BRANCH   1  15
ATOM     15  C   UNL     1       8.459   0.180   0.010  0.00  0.00    +0.086 C 
BRANCH  15  16
ATOM     16  C   UNL     1       9.804  -0.531   0.175  0.00  0.00    +0.107 C 
BRANCH  16  17
ATOM     17  C   UNL     1      10.923   0.440  -0.100  0.00  0.00    +0.218 C 
ATOM     18  O   UNL     1      10.670   1.588  -0.399  0.00  0.00    -0.275 OA
ATOM     19  N   UNL     1      12.205   0.033  -0.014  0.00  0.00    -0.285 N 
ATOM     20  H   UNL     1      12.409  -0.865   0.289  0.00  0.00    +0.155 HD
BRANCH  19  21
ATOM     21  C   UNL     1      13.241   0.907  -0.363  0.00  0.00    +0.033 A 
ATOM     22  C   UNL     1      14.385   0.418  -0.980  0.00  0.00    +0.024 A 
ATOM     23  C   UNL     1      15.406   1.282  -1.323  0.00  0.00    +0.017 A 
ATOM     24  C   UNL     1      15.290   2.634  -1.054  0.00  0.00    +0.018 A 
ATOM     25  C   UNL     1      14.151   3.124  -0.440  0.00  0.00    +0.017 A 
ATOM     26  C   UNL     1      13.125   2.265  -0.099  0.00  0.00    +0.024 A 
ATOM     27 BR   UNL     1      16.690   3.815  -1.525  0.00  0.00    -0.050 Br
ENDBRANCH  19  21
ENDBRANCH  16  17
ENDBRANCH  15  16
ENDBRANCH   1  15
TORSDOF 7
