REMARK  Name = ZINC60240872
REMARK  6 active torsions:
REMARK  status: ('A' for Active; 'I' for Inactive)
REMARK    1  A    between atoms: C_1  and  C_2
REMARK    2  A    between atoms: N_11  and  C_15
REMARK    3  A    between atoms: C_15  and  C_16
REMARK    4  A    between atoms: N_18  and  C_19
REMARK    5  A    between atoms: N_22  and  C_25
REMARK    6  A    between atoms: C_25  and  C_26
REMARK                            x       y       z     vdW  Elec       q    Type
REMARK                         _______ _______ _______ _____ _____    ______ ____
ROOT
ATOM      1  C   UNL     1       0.638   1.565   4.458  0.00  0.00    +0.213 C 
ENDROOT
BRANCH   1  11
ATOM      2  C   UNL     1      -0.318   1.755   0.109  0.00  0.00    +0.010 C 
ATOM      3  C   UNL     1      -0.367   0.226   0.079  0.00  0.00    +0.018 C 
ATOM      4  C   UNL     1       0.278  -0.279  -1.214  0.00  0.00    +0.006 C 
ATOM      5  C   UNL     1       0.247  -1.809  -1.233  0.00  0.00    +0.000 C 
ATOM      6  C   UNL     1       1.030  -2.353  -0.037  0.00  0.00    +0.003 C 
ATOM      7  C   UNL     1       0.388  -1.854   1.261  0.00  0.00    +0.035 C 
ATOM      8  C   UNL     1       0.393  -0.330   1.279  0.00  0.00    +0.115 C 
ATOM      9  C   UNL     1      -0.205   0.185   2.567  0.00  0.00    +0.247 C 
ATOM     10  O   UNL     1      -1.333   0.007   2.976  0.00  0.00    -0.273 OA
ATOM     11  N   UNL     1       0.780   0.884   3.168  0.00  0.00    -0.215 N 
ATOM     12  C   UNL     1       1.903   0.878   2.440  0.00  0.00    +0.310 C 
ATOM     13  O   UNL     1       2.928   1.440   2.774  0.00  0.00    -0.252 OA
ATOM     14  N   UNL     1       1.770   0.180   1.296  0.00  0.00    -0.285 N 
ATOM     15  H   UNL     1       2.450   0.041   0.618  0.00  0.00    +0.151 HD
ENDBRANCH   1  11
BRANCH   1  16
ATOM     16  C   UNL     1       1.016   0.620   5.569  0.00  0.00    +0.231 C 
ATOM     17  O   UNL     1       1.370  -0.511   5.310  0.00  0.00    -0.274 OA
ATOM     18  N   UNL     1       0.962   1.032   6.851  0.00  0.00    -0.311 N 
ATOM     19  H   UNL     1       0.679   1.936   7.059  0.00  0.00    +0.149 HD
BRANCH  18  20
ATOM     20  C   UNL     1       1.330   0.114   7.932  0.00  0.00    +0.069 C 
ATOM     21  C   UNL     1       0.116  -0.737   8.317  0.00  0.00    +0.003 C 
ATOM     22  C   UNL     1       0.485  -1.637   9.498  0.00  0.00    -0.077 C 
ATOM     23  N   UNL     1       0.887  -0.809  10.642  0.00  0.00    +0.383 N 
ATOM     24  C   UNL     1       2.094  -0.044  10.303  0.00  0.00    -0.077 C 
ATOM     25  C   UNL     1       1.787   0.917   9.153  0.00  0.00    +0.003 C 
ATOM     26  H   UNL     1       0.140  -0.172  10.874  0.00  0.00    -0.082 HD
BRANCH  23  27
ATOM     27  C   UNL     1       1.165  -1.674  11.796  0.00  0.00    -0.006 C 
BRANCH  27  28
ATOM     28  C   UNL     1      -0.135  -2.325  12.271  0.00  0.00    +0.325 C 
ATOM     29  F   UNL     1      -1.097  -1.334  12.499  0.00  0.00    -0.211 F 
ATOM     30  F   UNL     1      -0.600  -3.208  11.290  0.00  0.00    -0.211 F 
ENDBRANCH  27  28
ENDBRANCH  23  27
ENDBRANCH  18  20
ENDBRANCH   1  16
TORSDOF 5
