REMARK  Name = ZINC36588384
REMARK  15 active torsions:
REMARK  status: ('A' for Active; 'I' for Inactive)
REMARK    1  A    between atoms: C_1  and  C_2
REMARK    2  A    between atoms: C_5  and  C_9
REMARK    3  A    between atoms: C_6  and  C_8
REMARK    4  A    between atoms: C_9  and  C_11
REMARK    5  A    between atoms: C_9  and  N_18
REMARK    6  A    between atoms: N_13  and  C_14
REMARK    7  A    between atoms: C_14  and  C_15
REMARK    8  A    between atoms: C_14  and  C_16
REMARK    9  A    between atoms: C_14  and  C_17
REMARK   10  A    between atoms: N_18  and  C_31
REMARK   11  A    between atoms: C_19  and  C_21
REMARK   12  A    between atoms: C_21  and  C_22
REMARK   13  A    between atoms: C_31  and  C_32
REMARK   14  A    between atoms: C_31  and  C_33
REMARK   15  A    between atoms: C_31  and  C_34
REMARK                            x       y       z     vdW  Elec       q    Type
REMARK                         _______ _______ _______ _____ _____    ______ ____
ROOT
ATOM      1  C   UNL     1      -0.777  -4.128   0.904  0.00  0.00    +0.193 C 
ENDROOT
BRANCH   1   6
ATOM      2  C   UNL     1      -1.550   1.570   1.480  0.00  0.00    +0.044 C 
ATOM      3  C   UNL     1      -1.349   0.084   1.330  0.00  0.00    -0.050 A 
ATOM      4  C   UNL     1      -0.070  -0.443   1.318  0.00  0.00    +0.004 A 
ATOM      5  C   UNL     1       0.114  -1.806   1.181  0.00  0.00    +0.006 A 
ATOM      6  C   UNL     1      -0.979  -2.642   1.055  0.00  0.00    -0.015 A 
ATOM      7  C   UNL     1      -2.257  -2.116   1.067  0.00  0.00    -0.045 A 
ATOM      8  C   UNL     1      -2.442  -0.753   1.209  0.00  0.00    +0.007 A 
ATOM      9  C   UNL     1      -3.449  -3.028   0.930  0.00  0.00    +0.044 C 
ENDBRANCH   1   6
BRANCH   1  10
ATOM     10  C   UNL     1       0.652  -4.477   1.232  0.00  0.00    +0.239 C 
ATOM     11  O   UNL     1       1.406  -4.833   0.352  0.00  0.00    -0.273 OA
ATOM     12  N   UNL     1       1.091  -4.393   2.503  0.00  0.00    -0.309 N 
ATOM     13  H   UNL     1       0.471  -4.178   3.217  0.00  0.00    +0.149 HD
BRANCH  12  14
ATOM     14  C   UNL     1       2.505  -4.627   2.806  0.00  0.00    +0.026 C 
ATOM     15  C   UNL     1       3.363  -3.610   2.050  0.00  0.00    +0.031 C 
ATOM     16  C   UNL     1       2.737  -4.471   4.311  0.00  0.00    +0.031 C 
ATOM     17  C   UNL     1       2.893  -6.042   2.374  0.00  0.00    +0.031 C 
ENDBRANCH  12  14
ENDBRANCH   1  10
BRANCH   1  18
ATOM     18  N   UNL     1      -1.072  -4.523  -0.475  0.00  0.00    -0.281 N 
ATOM     19  C   UNL     1      -0.489  -3.873  -1.502  0.00  0.00    +0.221 C 
ATOM     20  O   UNL     1       0.359  -3.034  -1.285  0.00  0.00    -0.275 OA
BRANCH  18  21
ATOM     21  C   UNL     1      -2.002  -5.625  -0.739  0.00  0.00    +0.030 C 
ATOM     22  C   UNL     1      -2.669  -6.053   0.569  0.00  0.00    +0.031 C 
ATOM     23  C   UNL     1      -3.072  -5.163  -1.730  0.00  0.00    +0.031 C 
ATOM     24  C   UNL     1      -1.234  -6.809  -1.332  0.00  0.00    +0.031 C 
ENDBRANCH  18  21
BRANCH  19  25
ATOM     25  C   UNL     1      -0.890  -4.190  -2.920  0.00  0.00    +0.131 C 
BRANCH  25  26
ATOM     26  C   UNL     1      -0.009  -3.426  -3.874  0.00  0.00    -0.035 A 
ATOM     27  C   UNL     1      -0.377  -2.161  -4.291  0.00  0.00    +0.008 A 
ATOM     28  C   UNL     1       0.429  -1.456  -5.166  0.00  0.00    +0.050 A 
ATOM     29  C   UNL     1       1.609  -2.018  -5.627  0.00  0.00    +0.166 A 
ATOM     30  C   UNL     1       1.979  -3.293  -5.207  0.00  0.00    +0.166 A 
ATOM     31  C   UNL     1       1.170  -3.991  -4.326  0.00  0.00    +0.053 A 
ATOM     32  O   UNL     1       3.167  -3.618  -5.796  0.00  0.00    -0.453 OA
ATOM     33  C   UNL     1       3.315  -2.699  -6.895  0.00  0.00    +0.466 C 
ATOM     34  O   UNL     1       2.564  -1.544  -6.479  0.00  0.00    -0.453 OA
ENDBRANCH  25  26
ENDBRANCH  19  25
ENDBRANCH   1  18
TORSDOF 7
