REMARK  Name = ZINC43374790
REMARK  8 active torsions:
REMARK  status: ('A' for Active; 'I' for Inactive)
REMARK    1  A    between atoms: C_1  and  C_2
REMARK    2  A    between atoms: C_2  and  C_3
REMARK    3  A    between atoms: C_2  and  C_4
REMARK    4  A    between atoms: C_4  and  C_5
REMARK    5  A    between atoms: N_13  and  C_14
REMARK    6  A    between atoms: C_14  and  C_15
REMARK    7  A    between atoms: C_15  and  C_17
REMARK    8  A    between atoms: C_15  and  N_22
REMARK                            x       y       z     vdW  Elec       q    Type
REMARK                         _______ _______ _______ _____ _____    ______ ____
ROOT
ATOM      1  C   UNL     1       2.155  -0.029  -1.437  0.00  0.00    +0.104 A 
ATOM      2  N   UNL     1       3.204  -0.722  -1.042  0.00  0.00    -0.145 NA
ATOM      3  N   UNL     1       4.343  -0.175  -1.055  0.00  0.00    -0.126 NA
ATOM      4  C   UNL     1       4.513   1.071  -1.453  0.00  0.00    +0.189 A 
ATOM      5  S   UNL     1       2.939   1.522  -1.853  0.00  0.00    -0.035 S 
ATOM      6  N   UNL     1       5.685   1.815  -1.528  0.00  0.00    -0.247 N 
ATOM      7  C   UNL     1       6.859   1.263  -1.161  0.00  0.00    +0.305 C 
ATOM      8  O   UNL     1       6.893   0.114  -0.766  0.00  0.00    -0.252 OA
ATOM      9  N   UNL     1       7.995   1.985  -1.234  0.00  0.00    -0.300 N 
ATOM     10  H   UNL     1       5.658   2.732  -1.843  0.00  0.00    +0.158 HD
ATOM     11  H   UNL     1       7.968   2.902  -1.550  0.00  0.00    +0.150 HD
ENDROOT
BRANCH   1  12
ATOM     12  C   UNL     1       0.706  -0.433  -1.521  0.00  0.00    +0.068 C 
BRANCH  12  14
ATOM     13  C   UNL     1      -0.006   1.413   0.005  0.00  0.00    +0.007 C 
ATOM     14  C   UNL     1       0.008  -0.103  -0.200  0.00  0.00    -0.011 C 
ATOM     15  C   UNL     1      -1.430  -0.625  -0.239  0.00  0.00    +0.007 C 
ENDBRANCH  12  14
ENDBRANCH   1  12
BRANCH   9  16
ATOM     16  C   UNL     1       9.271   1.385  -0.836  0.00  0.00    +0.098 C 
BRANCH  16  17
ATOM     17  C   UNL     1      10.407   2.373  -1.110  0.00  0.00    +0.016 C 
BRANCH  17  18
ATOM     18  N   UNL     1      11.696   1.724  -0.837  0.00  0.00    +0.387 N 
ATOM     19  C   UNL     1      11.899   0.579  -1.760  0.00  0.00    -0.078 C 
ATOM     20  C   UNL     1      13.436   0.383  -1.749  0.00  0.00    -0.020 C 
ATOM     21  C   UNL     1      13.969   1.833  -1.684  0.00  0.00    -0.020 C 
ATOM     22  C   UNL     1      12.806   2.663  -1.108  0.00  0.00    -0.078 C 
ATOM     23  H   UNL     1      11.732   1.411   0.122  0.00  0.00    -0.081 HD
ENDBRANCH  17  18
BRANCH  17  24
ATOM     24  C   UNL     1      10.251   3.577  -0.218  0.00  0.00    +0.093 A 
ATOM     25  C   UNL     1       9.722   4.760  -0.579  0.00  0.00    +0.043 A 
ATOM     26  C   UNL     1       9.772   5.596   0.560  0.00  0.00    +0.041 A 
ATOM     27  C   UNL     1      10.329   4.874   1.549  0.00  0.00    +0.195 A 
ATOM     28  O   UNL     1      10.611   3.650   1.074  0.00  0.00    -0.469 OA
ENDBRANCH  17  24
ENDBRANCH  16  17
ENDBRANCH   9  16
TORSDOF 6
