REMARK  Name = ZINC41383185
REMARK  6 active torsions:
REMARK  status: ('A' for Active; 'I' for Inactive)
REMARK    1  A    between atoms: CB_1  and  CA_2
REMARK    2  A    between atoms: CA_2  and  C_4
REMARK    3  A    between atoms: CA_2  and  N_6
REMARK    4  A    between atoms: C_4  and  O_5
REMARK    5  A    between atoms: C_7  and  C_9
REMARK    6  A    between atoms: N_11  and  C_12
REMARK                            x       y       z     vdW  Elec       q    Type
REMARK                         _______ _______ _______ _____ _____    ______ ____
ROOT
ATOM      1  C   UNK A   0       0.703  -1.760  -5.840  0.00  0.00    +0.038 A 
ATOM      2  C   UNK A   0       2.029  -2.153  -5.712  0.00  0.00    +0.027 A 
ATOM      3  C   UNK A   0       2.701  -2.686  -6.795  0.00  0.00    +0.051 A 
ATOM      4  C   UNK A   0       2.054  -2.831  -8.011  0.00  0.00    +0.167 A 
ATOM      5  C   UNK A   0       0.724  -2.437  -8.144  0.00  0.00    +0.169 A 
ATOM      6  C   UNK A   0       0.050  -1.908  -7.056  0.00  0.00    +0.073 A 
ATOM      7  O   UNK A   0       0.321  -2.681  -9.426  0.00  0.00    -0.447 OA
ATOM      8  C   UNK A   0       1.531  -2.861 -10.178  0.00  0.00    +0.254 C 
ATOM      9  O   UNK A   0       2.486  -3.322  -9.212  0.00  0.00    -0.448 OA
ATOM     10  C   UNK A   0       1.982  -1.535 -10.781  0.00  0.00    +0.093 C 
ATOM     11  C   UNK A   0       0.929  -1.044 -11.779  0.00  0.00    +0.008 C 
ATOM     12  C   UNK A   0       0.746  -2.089 -12.881  0.00  0.00    +0.000 C 
ATOM     13  C   UNK A   0       0.277  -3.409 -12.264  0.00  0.00    +0.008 C 
ATOM     14  C   UNK A   0       1.327  -3.907 -11.268  0.00  0.00    +0.093 C 
ENDROOT
BRANCH   1  17
ATOM     15  C   UNK A   0      -1.287  -1.482  -4.566  0.00  0.00    +0.303 C 
ATOM     16  O   UNK A   0      -1.898  -2.115  -5.403  0.00  0.00    -0.265 OA
ATOM     17  N   UNK A   0       0.024  -1.221  -4.742  0.00  0.00    -0.278 N 
ATOM     18  H   UNK A   0       0.496  -0.660  -4.108  0.00  0.00    +0.155 HD
BRANCH  15  20
ATOM     19  N   ALA A   1      -3.298  -1.254  -3.166  0.00  0.00    -0.303 N 
ATOM     20  C   UNK A   0      -1.988  -0.993  -3.342  0.00  0.00    +0.300 C 
ATOM     21  O   UNK A   0      -1.377  -0.361  -2.505  0.00  0.00    -0.265 OA
ATOM     22  H   ALA A   1      -3.786  -1.760  -3.835  0.00  0.00    +0.150 HD
BRANCH  19  24
ATOM     23  CB  ALA A   1      -3.784  -1.777  -0.827  0.00  0.00    +0.030 C 
ATOM     24  CA  ALA A   1      -3.986  -0.774  -1.964  0.00  0.00    +0.096 C 
BRANCH  24  25
ATOM     25  C   ALA A   1      -5.481  -0.629  -2.256  0.00  0.00    +0.177 C 
BRANCH  25  26
ATOM     26  O   ALA A   1      -6.041  -1.915  -2.524  0.00  0.00    -0.393 OA
ATOM     27  H   ALA A   1      -6.989  -1.899  -2.718  0.00  0.00    +0.209 HD
ENDBRANCH  25  26
ENDBRANCH  24  25
ENDBRANCH  19  24
ENDBRANCH  15  20
ENDBRANCH   1  17
TORSDOF 5
