REMARK  Name = ZINC43585742
REMARK  4 active torsions:
REMARK  status: ('A' for Active; 'I' for Inactive)
REMARK    1  A    between atoms: C_1  and  C_2
REMARK    2  A    between atoms: C_5  and  C_8
REMARK    3  A    between atoms: C_10  and  C_13
REMARK    4  A    between atoms: C_13  and  N_14
REMARK                            x       y       z     vdW  Elec       q    Type
REMARK                         _______ _______ _______ _____ _____    ______ ____
ROOT
ATOM      1  C   UNL     1       0.059  -4.256  -0.021  0.00  0.00    +0.202 A 
ATOM      2  N   UNL     1       0.070  -5.047   1.067  0.00  0.00    -0.190 NA
ATOM      3  C   UNL     1       0.086  -6.299   0.708  0.00  0.00    +0.247 A 
ATOM      4  O   UNL     1       0.086  -6.357  -0.630  0.00  0.00    -0.336 OA
ATOM      5  N   UNL     1       0.064  -5.015  -1.090  0.00  0.00    -0.056 NA
ENDROOT
BRANCH   1  10
ATOM      6  C   UNL     1      -0.018   1.503   0.010  0.00  0.00    +0.044 C 
ATOM      7  C   UNL     1       0.002  -0.004   0.002  0.00  0.00    -0.050 A 
ATOM      8  C   UNL     1       0.006  -0.686  -1.201  0.00  0.00    +0.004 A 
ATOM      9  C   UNL     1       0.024  -2.067  -1.214  0.00  0.00    +0.012 A 
ATOM     10  C   UNL     1       0.040  -2.772  -0.013  0.00  0.00    +0.022 A 
ATOM     11  C   UNL     1       0.036  -2.080   1.196  0.00  0.00    +0.012 A 
ATOM     12  C   UNL     1       0.023  -0.700   1.198  0.00  0.00    +0.004 A 
ENDBRANCH   1  10
BRANCH   3  13
ATOM     13  C   UNL     1       0.102  -7.482   1.642  0.00  0.00    +0.222 C 
BRANCH  13  14
ATOM     14  N   UNL     1      -1.274  -7.883   1.946  0.00  0.00    -0.321 N 
ATOM     15  C   UNL     1      -2.009  -7.493   3.022  0.00  0.00    +0.200 A 
ATOM     16  N   UNL     1      -3.189  -8.038   2.979  0.00  0.00    -0.236 NA
ATOM     17  C   UNL     1      -3.293  -8.816   1.870  0.00  0.00    +0.092 A 
ATOM     18  C   UNL     1      -2.069  -8.723   1.188  0.00  0.00    +0.072 A 
ATOM     19  C   UNL     1      -1.881  -9.415   0.001  0.00  0.00    +0.069 A 
ATOM     20  C   UNL     1      -2.902 -10.192  -0.510  0.00  0.00    +0.160 A 
ATOM     21  C   UNL     1      -4.118 -10.285   0.160  0.00  0.00    +0.161 A 
ATOM     22  C   UNL     1      -4.316  -9.610   1.345  0.00  0.00    +0.071 A 
ATOM     23  F   UNL     1      -5.108 -11.049  -0.350  0.00  0.00    -0.202 F 
ATOM     24  F   UNL     1      -2.719 -10.866  -1.666  0.00  0.00    -0.202 F 
ENDBRANCH  13  14
ENDBRANCH   3  13
TORSDOF 3
