REMARK  Name = ZINC42841561
REMARK  4 active torsions:
REMARK  status: ('A' for Active; 'I' for Inactive)
REMARK    1  A    between atoms: C_14  and  C_17
REMARK    2  A    between atoms: C_17  and  N_18
REMARK    3  A    between atoms: N_21  and  C_22
REMARK    4  A    between atoms: C_22  and  C_23
REMARK                            x       y       z     vdW  Elec       q    Type
REMARK                         _______ _______ _______ _____ _____    ______ ____
ROOT
ATOM      1  C   UNL     1      -0.062   1.328   0.017  0.00  0.00    +0.000 A 
ATOM      2  C   UNL     1       1.118   2.048   0.032  0.00  0.00    +0.000 A 
ATOM      3  C   UNL     1       2.326   1.382   0.015  0.00  0.00    +0.005 A 
ATOM      4  C   UNL     1       2.365  -0.006  -0.013  0.00  0.00    -0.027 A 
ATOM      5  C   UNL     1       1.191  -0.724  -0.018  0.00  0.00    -0.041 A 
ATOM      6  C   UNL     1      -0.024  -0.050  -0.008  0.00  0.00    +0.004 A 
ATOM      7  C   UNL     1       1.155  -2.230  -0.017  0.00  0.00    +0.054 C 
ATOM      8  C   UNL     1       2.482  -2.807  -0.506  0.00  0.00    +0.111 C 
ATOM      9  N   UNL     1       3.568  -2.109   0.202  0.00  0.00    -0.312 N 
ATOM     10  C   UNL     1       3.719  -0.671  -0.045  0.00  0.00    +0.141 C 
ATOM     11  C   UNL     1       4.417  -2.785   1.071  0.00  0.00    +0.099 A 
ATOM     12  C   UNL     1       4.168  -4.120   1.377  0.00  0.00    +0.042 A 
ATOM     13  C   UNL     1       5.021  -4.781   2.243  0.00  0.00    +0.010 A 
ATOM     14  C   UNL     1       6.097  -4.083   2.775  0.00  0.00    -0.014 A 
ATOM     15  C   UNL     1       6.284  -2.760   2.427  0.00  0.00    +0.089 A 
ATOM     16  N   UNL     1       5.457  -2.156   1.595  0.00  0.00    -0.349 N 
ATOM     17  H   UNL     1       5.613  -1.227   1.364  0.00  0.00    +0.167 HD
ENDROOT
BRANCH  14  18
ATOM     18  C   UNL     1       7.051  -4.763   3.723  0.00  0.00    +0.142 C 
BRANCH  18  19
ATOM     19  N   UNL     1       8.143  -5.375   2.961  0.00  0.00    -0.295 N 
ATOM     20  C   UNL     1       9.121  -6.042   3.603  0.00  0.00    +0.300 C 
ATOM     21  O   UNL     1       9.098  -6.137   4.815  0.00  0.00    -0.253 OA
ATOM     22  N   UNL     1      10.126  -6.605   2.903  0.00  0.00    -0.295 N 
ATOM     23  H   UNL     1       8.161  -5.299   1.994  0.00  0.00    +0.151 HD
ATOM     24  H   UNL     1      10.144  -6.530   1.936  0.00  0.00    +0.151 HD
BRANCH  22  25
ATOM     25  C   UNL     1      11.189  -7.331   3.601  0.00  0.00    +0.141 C 
BRANCH  25  26
ATOM     26  C   UNL     1      12.181  -7.859   2.596  0.00  0.00    -0.027 A 
ATOM     27  C   UNL     1      12.000  -9.112   2.041  0.00  0.00    +0.009 A 
ATOM     28  C   UNL     1      12.906  -9.600   1.119  0.00  0.00    +0.050 A 
ATOM     29  C   UNL     1      14.000  -8.834   0.749  0.00  0.00    +0.166 A 
ATOM     30  C   UNL     1      14.182  -7.572   1.308  0.00  0.00    +0.167 A 
ATOM     31  C   UNL     1      13.267  -7.087   2.228  0.00  0.00    +0.054 A 
ATOM     32  O   UNL     1      15.319  -7.024   0.787  0.00  0.00    -0.453 OA
ATOM     33  C   UNL     1      16.048  -8.126   0.214  0.00  0.00    +0.466 C 
ATOM     34  O   UNL     1      15.022  -9.078  -0.122  0.00  0.00    -0.453 OA
ENDBRANCH  25  26
ENDBRANCH  22  25
ENDBRANCH  18  19
ENDBRANCH  14  18
TORSDOF 4
