REMARK  Name = ZINC19996881
REMARK  8 active torsions:
REMARK  status: ('A' for Active; 'I' for Inactive)
REMARK    1  A    between atoms: C_1  and  C_2
REMARK    2  A    between atoms: C_4  and  C_28
REMARK    3  A    between atoms: C_5  and  N_9
REMARK    4  A    between atoms: C_6  and  C_8
REMARK    5  A    between atoms: C_13  and  N_14
REMARK    6  A    between atoms: N_14  and  C_15
REMARK    7  A    between atoms: C_15  and  C_16
REMARK    8  A    between atoms: C_16  and  N_17
REMARK                            x       y       z     vdW  Elec       q    Type
REMARK                         _______ _______ _______ _____ _____    ______ ____
ROOT
ATOM      1  N   UNL     1      -0.012  -4.203  -0.745  0.00  0.00    -0.189 N 
ATOM      2  C   UNL     1      -1.163  -4.879  -0.546  0.00  0.00    +0.265 C 
ATOM      3  O   UNL     1      -2.238  -4.313  -0.608  0.00  0.00    -0.269 OA
ATOM      4  C   UNL     1      -1.081  -6.320  -0.251  0.00  0.00    +0.113 C 
ATOM      5  C   UNL     1      -2.218  -7.078  -0.036  0.00  0.00    +0.085 C 
ATOM      6  C   UNL     1       0.264  -6.919  -0.196  0.00  0.00    +0.258 C 
ATOM      7  N   UNL     1       1.328  -6.119  -0.417  0.00  0.00    -0.235 N 
ATOM      8  C   UNL     1       1.179  -4.814  -0.685  0.00  0.00    +0.320 C 
ATOM      9  O   UNL     1       2.178  -4.149  -0.879  0.00  0.00    -0.251 OA
ATOM     10  O   UNL     1       0.411  -8.103   0.042  0.00  0.00    -0.270 OA
ATOM     11  H   UNL     1       2.220  -6.498  -0.384  0.00  0.00    +0.159 HD
ENDROOT
BRANCH   1  16
ATOM     12  C   UNL     1      -0.223   1.353  -1.885  0.00  0.00    +0.044 C 
ATOM     13  C   UNL     1      -0.168  -0.123  -1.582  0.00  0.00    -0.050 A 
ATOM     14  C   UNL     1      -0.207  -1.041  -2.615  0.00  0.00    +0.008 A 
ATOM     15  C   UNL     1      -0.156  -2.394  -2.341  0.00  0.00    -0.028 A 
ATOM     16  C   UNL     1      -0.064  -2.831  -1.026  0.00  0.00    +0.052 A 
ATOM     17  C   UNL     1      -0.024  -1.907   0.009  0.00  0.00    -0.028 A 
ATOM     18  C   UNL     1      -0.071  -0.555  -0.272  0.00  0.00    +0.008 A 
ATOM     19  C   UNL     1       0.075  -2.377   1.437  0.00  0.00    +0.046 C 
ATOM     20  C   UNL     1      -0.200  -3.394  -3.467  0.00  0.00    +0.046 C 
ENDBRANCH   1  16
BRANCH   5  21
ATOM     21  N   UNL     1      -3.419  -6.476   0.069  0.00  0.00    -0.351 N 
ATOM     22  H   UNL     1      -3.478  -5.508   0.074  0.00  0.00    +0.145 HD
BRANCH  21  23
ATOM     23  C   UNL     1      -4.637  -7.284   0.175  0.00  0.00    +0.082 C 
BRANCH  23  24
ATOM     24  C   UNL     1      -5.853  -6.362   0.281  0.00  0.00    -0.060 C 
BRANCH  24  25
ATOM     25  N   UNL     1      -7.074  -7.172   0.388  0.00  0.00    +0.381 N 
ATOM     26  C   UNL     1      -7.045  -7.936   1.640  0.00  0.00    -0.079 C 
ATOM     27  C   UNL     1      -8.275  -8.843   1.718  0.00  0.00    -0.019 C 
ATOM     28  C   UNL     1      -9.540  -7.982   1.673  0.00  0.00    -0.004 C 
ATOM     29  C   UNL     1      -9.524  -7.134   0.398  0.00  0.00    -0.019 C 
ATOM     30  C   UNL     1      -8.248  -6.291   0.369  0.00  0.00    -0.079 C 
ATOM     31  H   UNL     1      -7.122  -7.810  -0.393  0.00  0.00    -0.082 HD
ENDBRANCH  24  25
ENDBRANCH  23  24
ENDBRANCH  21  23
ENDBRANCH   5  21
TORSDOF 5
