REMARK  Name = ZINC41212996
REMARK  5 active torsions:
REMARK  status: ('A' for Active; 'I' for Inactive)
REMARK    1  A    between atoms: C_6  and  C_7
REMARK    2  A    between atoms: N_9  and  N_10
REMARK    3  A    between atoms: C_11  and  C_12
REMARK    4  A    between atoms: C_15  and  O_19
REMARK    5  A    between atoms: C_17  and  O_18
REMARK                            x       y       z     vdW  Elec       q    Type
REMARK                         _______ _______ _______ _____ _____    ______ ____
ROOT
ATOM      1  C   UNL     1      -1.266  -0.759   0.011  0.00  0.00    +0.263 C 
ATOM      2  O   UNL     1      -1.250  -1.975   0.004  0.00  0.00    -0.268 OA
ATOM      3  N   UNL     1      -2.442  -0.100   0.027  0.00  0.00    -0.203 N 
ATOM      4  H   UNL     1      -2.455   0.870   0.032  0.00  0.00    +0.178 HD
ENDROOT
BRANCH   1  10
ATOM      5  C   UNL     1      -0.017   1.398   0.010  0.00  0.00    +0.015 A 
ATOM      6  C   UNL     1       1.147   2.108   0.002  0.00  0.00    +0.027 A 
ATOM      7  C   UNL     1       2.373   1.448  -0.014  0.00  0.00    +0.047 A 
ATOM      8  C   UNL     1       2.407   0.038  -0.022  0.00  0.00    +0.004 A 
ATOM      9  C   UNL     1       1.216  -0.685  -0.014  0.00  0.00    +0.023 A 
ATOM     10  C   UNL     1       0.002  -0.004   0.002  0.00  0.00    +0.039 A 
ATOM     11  C   UNL     1       3.820  -0.327  -0.040  0.00  0.00    -0.019 A 
ATOM     12  C   UNL     1       4.529   0.818  -0.041  0.00  0.00    +0.020 A 
ATOM     13  N   UNL     1       3.677   1.886  -0.025  0.00  0.00    -0.358 N 
ATOM     14  H   UNL     1       3.951   2.816  -0.022  0.00  0.00    +0.166 HD
ATOM     15  C   UNL     1       6.040   0.867  -0.056  0.00  0.00    +0.053 C 
ATOM     16  C   UNL     1       6.576  -0.510   0.351  0.00  0.00    +0.006 C 
ATOM     17  C   UNL     1       5.889  -1.595  -0.484  0.00  0.00    +0.005 C 
ATOM     18  C   UNL     1       4.420  -1.709  -0.057  0.00  0.00    +0.037 C 
ENDBRANCH   1  10
BRANCH   3  19
ATOM     19  N   UNL     1      -3.646  -0.817   0.035  0.00  0.00    -0.187 NA
ATOM     20  C   UNL     1      -4.779  -0.182   0.050  0.00  0.00    +0.142 C 
BRANCH  20  21
ATOM     21  C   UNL     1      -6.045  -0.936   0.059  0.00  0.00    +0.036 A 
ATOM     22  C   UNL     1      -7.266  -0.256   0.070  0.00  0.00    +0.016 A 
ATOM     23  C   UNL     1      -8.447  -0.964   0.078  0.00  0.00    +0.046 A 
ATOM     24  C   UNL     1      -8.430  -2.354   0.076  0.00  0.00    +0.120 A 
ATOM     25  C   UNL     1      -7.223  -3.038   0.066  0.00  0.00    +0.091 A 
ATOM     26  C   UNL     1      -6.030  -2.338   0.051  0.00  0.00    +0.129 A 
BRANCH  26  27
ATOM     27  O   UNL     1      -4.848  -3.006   0.035  0.00  0.00    -0.506 OA
ATOM     28  H   UNL     1      -4.496  -3.205   0.914  0.00  0.00    +0.292 HD
ENDBRANCH  26  27
BRANCH  24  29
ATOM     29  O   UNL     1      -9.600  -3.045   0.085  0.00  0.00    -0.507 OA
ATOM     30  H   UNL     1      -9.945  -3.244  -0.796  0.00  0.00    +0.292 HD
ENDBRANCH  24  29
ENDBRANCH  20  21
ENDBRANCH   3  19
TORSDOF 5
