REMARK  Name = ZINC35371471
REMARK  13 active torsions:
REMARK  status: ('A' for Active; 'I' for Inactive)
REMARK    1  A    between atoms: C_1  and  C_2
REMARK    2  A    between atoms: C_2  and  C_3
REMARK    3  A    between atoms: C_12  and  C_13
REMARK    4  A    between atoms: C_13  and  C_15
REMARK    5  A    between atoms: C_13  and  C_31
REMARK    6  A    between atoms: C_15  and  C_16
REMARK    7  A    between atoms: N_18  and  C_19
REMARK    8  A    between atoms: N_18  and  C_24
REMARK    9  A    between atoms: C_19  and  C_20
REMARK   10  A    between atoms: C_20  and  N_21
REMARK   11  A    between atoms: N_21  and  C_22
REMARK   12  A    between atoms: N_21  and  C_23
REMARK   13  A    between atoms: C_24  and  C_25
REMARK                            x       y       z     vdW  Elec       q    Type
REMARK                         _______ _______ _______ _____ _____    ______ ____
ROOT
ATOM      1  C   UNL     1      -5.233  -1.635  -3.040  0.00  0.00    +0.066 C 
ENDROOT
BRANCH   1  11
ATOM      2  C   UNL     1      -1.412  -0.526   0.013  0.00  0.00    -0.024 A 
ATOM      3  C   UNL     1      -2.015  -0.863   1.205  0.00  0.00    +0.005 A 
ATOM      4  C   UNL     1      -3.316  -1.345   1.228  0.00  0.00    +0.001 A 
ATOM      5  C   UNL     1      -4.023  -1.492   0.067  0.00  0.00    +0.010 A 
ATOM      6  C   UNL     1      -3.432  -1.155  -1.151  0.00  0.00    +0.004 A 
ATOM      7  C   UNL     1      -2.114  -0.662  -1.180  0.00  0.00    +0.050 A 
ATOM      8  N   UNL     1      -1.802  -0.414  -2.498  0.00  0.00    -0.360 N 
ATOM      9  H   UNL     1      -0.952  -0.069  -2.814  0.00  0.00    +0.165 HD
ATOM     10  C   UNL     1      -2.869  -0.725  -3.295  0.00  0.00    +0.088 A 
ATOM     11  C   UNL     1      -3.883  -1.186  -2.545  0.00  0.00    -0.014 A 
BRANCH   2  13
ATOM     12  C   UNL     1      -0.019   1.526   0.010  0.00  0.00    +0.009 C 
ATOM     13  C   UNL     1       0.002  -0.004   0.002  0.00  0.00    +0.034 C 
ENDBRANCH   2  13
ENDBRANCH   1  11
BRANCH   1  14
ATOM     14  C   UNL     1      -5.908  -0.496  -3.761  0.00  0.00    -0.002 A 
ATOM     15  C   UNL     1      -7.082   0.118  -3.477  0.00  0.00    +0.012 A 
ATOM     16  C   UNL     1      -7.510   1.154  -4.286  0.00  0.00    +0.008 A 
ATOM     17  C   UNL     1      -6.742   1.525  -5.339  0.00  0.00    +0.045 A 
ATOM     18  S   UNL     1      -5.363   0.399  -5.207  0.00  0.00    -0.101 S 
ENDBRANCH   1  14
BRANCH   1  19
ATOM     19  C   UNL     1      -5.058  -2.814  -4.000  0.00  0.00    +0.109 C 
BRANCH  19  20
ATOM     20  C   UNL     1      -6.412  -3.341  -4.399  0.00  0.00    +0.217 C 
ATOM     21  O   UNL     1      -7.418  -2.825  -3.960  0.00  0.00    -0.276 OA
ATOM     22  N   UNL     1      -6.506  -4.386  -5.245  0.00  0.00    -0.299 N 
BRANCH  22  23
ATOM     23  C   UNL     1      -5.291  -5.010  -5.776  0.00  0.00    +0.089 C 
BRANCH  23  24
ATOM     24  C   UNL     1      -4.845  -6.135  -4.840  0.00  0.00    -0.060 C 
BRANCH  24  25
ATOM     25  N   UNL     1      -3.626  -6.761  -5.372  0.00  0.00    +0.377 N 
ATOM     26  C   UNL     1      -3.131  -7.759  -4.415  0.00  0.00    -0.097 C 
ATOM     27  C   UNL     1      -3.931  -7.416  -6.651  0.00  0.00    -0.097 C 
ATOM     28  H   UNL     1      -2.921  -6.054  -5.516  0.00  0.00    -0.083 HD
ENDBRANCH  24  25
ENDBRANCH  23  24
ENDBRANCH  22  23
BRANCH  22  29
ATOM     29  C   UNL     1      -7.822  -4.899  -5.633  0.00  0.00    +0.142 C 
BRANCH  29  30
ATOM     30  C   UNL     1      -8.296  -4.181  -6.870  0.00  0.00    -0.030 A 
ATOM     31  C   UNL     1      -9.034  -3.018  -6.753  0.00  0.00    +0.005 A 
ATOM     32  C   UNL     1      -9.469  -2.358  -7.888  0.00  0.00    +0.000 A 
ATOM     33  C   UNL     1      -9.165  -2.861  -9.139  0.00  0.00    +0.000 A 
ATOM     34  C   UNL     1      -8.427  -4.024  -9.256  0.00  0.00    +0.000 A 
ATOM     35  C   UNL     1      -7.988  -4.681  -8.121  0.00  0.00    +0.005 A 
ENDBRANCH  29  30
ENDBRANCH  22  29
ENDBRANCH  19  20
ENDBRANCH   1  19
TORSDOF 10
