REMARK  Name = ZINC65413787
REMARK  6 active torsions:
REMARK  status: ('A' for Active; 'I' for Inactive)
REMARK    1  A    between atoms: C_1  and  C_2
REMARK    2  A    between atoms: C_5  and  C_7
REMARK    3  A    between atoms: C_12  and  N_13
REMARK    4  A    between atoms: N_16  and  C_17
REMARK    5  A    between atoms: C_17  and  C_18
REMARK    6  A    between atoms: C_23  and  N_24
REMARK                            x       y       z     vdW  Elec       q    Type
REMARK                         _______ _______ _______ _____ _____    ______ ____
ROOT
ATOM      1  N   UNL     1       0.065  -4.650  -0.582  0.00  0.00    -0.269 N 
ATOM      2  C   UNL     1       0.181  -5.853  -1.178  0.00  0.00    +0.304 C 
ATOM      3  O   UNL     1       0.198  -6.865  -0.505  0.00  0.00    -0.252 OA
ATOM      4  N   UNL     1       0.278  -5.934  -2.520  0.00  0.00    -0.295 N 
ATOM      5  H   UNL     1      -0.017  -3.847  -1.121  0.00  0.00    +0.156 HD
ATOM      6  H   UNL     1       0.264  -5.126  -3.057  0.00  0.00    +0.151 HD
ENDROOT
BRANCH   1  12
ATOM      7  C   UNL     1       0.659  -3.460   1.445  0.00  0.00    +0.060 A 
ATOM      8  C   UNL     1       0.645  -3.377   2.838  0.00  0.00    +0.015 A 
ATOM      9  C   UNL     1       0.049  -4.374   3.581  0.00  0.00    +0.001 A 
ATOM     10  C   UNL     1      -0.536  -5.460   2.952  0.00  0.00    +0.002 A 
ATOM     11  C   UNL     1      -0.528  -5.556   1.574  0.00  0.00    +0.024 A 
ATOM     12  C   UNL     1       0.062  -4.558   0.811  0.00  0.00    +0.047 A 
BRANCH   7  17
ATOM     13  C   UNL     1       3.080   0.707   0.072  0.00  0.00    +0.111 C 
ATOM     14  C   UNL     1       2.336  -0.604   0.049  0.00  0.00    +0.215 A 
ATOM     15  N   UNL     1       1.996  -1.277  -1.015  0.00  0.00    -0.112 NA
ATOM     16  N   UNL     1       1.375  -2.348  -0.666  0.00  0.00    -0.107 NA
ATOM     17  C   UNL     1       1.296  -2.396   0.644  0.00  0.00    +0.250 A 
ATOM     18  O   UNL     1       1.909  -1.293   1.121  0.00  0.00    -0.420 OA
ENDBRANCH   7  17
ENDBRANCH   1  12
BRANCH   4  19
ATOM     19  C   UNL     1       0.404  -7.242  -3.168  0.00  0.00    +0.143 C 
BRANCH  19  20
ATOM     20  C   UNL     1       0.494  -7.057  -4.661  0.00  0.00    -0.005 A 
ATOM     21  C   UNL     1      -0.624  -7.245  -5.450  0.00  0.00    +0.007 A 
ATOM     22  C   UNL     1      -0.542  -7.075  -6.819  0.00  0.00    +0.000 A 
ATOM     23  C   UNL     1       0.659  -6.716  -7.404  0.00  0.00    +0.002 A 
ATOM     24  C   UNL     1       1.780  -6.527  -6.620  0.00  0.00    +0.028 A 
ATOM     25  C   UNL     1       1.700  -6.691  -5.244  0.00  0.00    +0.070 A 
BRANCH  25  26
ATOM     26  N   UNL     1       2.835  -6.493  -4.445  0.00  0.00    -0.240 N 
ATOM     27  C   UNL     1       4.062  -6.131  -4.882  0.00  0.00    +0.114 A 
ATOM     28  C   UNL     1       4.875  -6.047  -3.803  0.00  0.00    +0.041 A 
ATOM     29  C   UNL     1       4.120  -6.367  -2.669  0.00  0.00    +0.135 A 
ATOM     30  N   UNL     1       2.896  -6.628  -3.052  0.00  0.00    -0.175 NA
ENDBRANCH  25  26
ENDBRANCH  19  20
ENDBRANCH   4  19
TORSDOF 5
