REMARK  Name = ZINC66641823
REMARK  9 active torsions:
REMARK  status: ('A' for Active; 'I' for Inactive)
REMARK    1  A    between atoms: C_1  and  C_2
REMARK    2  A    between atoms: C_7  and  C_8
REMARK    3  A    between atoms: C_10  and  C_13
REMARK    4  A    between atoms: N_15  and  N_16
REMARK    5  A    between atoms: N_16  and  C_17
REMARK    6  A    between atoms: C_18  and  C_25
REMARK    7  A    between atoms: C_20  and  C_22
REMARK    8  A    between atoms: C_22  and  C_23
REMARK    9  A    between atoms: C_22  and  C_24
REMARK                            x       y       z     vdW  Elec       q    Type
REMARK                         _______ _______ _______ _____ _____    ______ ____
ROOT
ATOM      1  C   UNL     1       0.015  -0.421   6.185  0.00  0.00    +0.279 C 
ATOM      2  O   UNL     1      -0.080   0.314   7.150  0.00  0.00    -0.267 OA
ATOM      3  N   UNL     1       0.231  -1.739   6.360  0.00  0.00    -0.229 N 
ATOM      4  H   UNL     1       0.306  -2.325   5.591  0.00  0.00    +0.173 HD
ENDROOT
BRANCH   1   7
ATOM      5  C   UNL     1      -0.121  -0.125   2.565  0.00  0.00    +0.109 A 
ATOM      6  N   UNL     1      -0.005  -0.661   3.766  0.00  0.00    -0.234 NA
ATOM      7  C   UNL     1      -0.106   0.131   4.824  0.00  0.00    +0.135 A 
ATOM      8  C   UNL     1      -0.326   1.470   4.635  0.00  0.00    +0.080 A 
ATOM      9  S   UNL     1      -0.380   1.596   2.958  0.00  0.00    -0.075 S 
BRANCH   5  16
ATOM     10  C   UNL     1       2.016  -1.994   2.007  0.00  0.00    +0.044 C 
ATOM     11  C   UNL     1       0.978  -1.682   0.960  0.00  0.00    -0.041 A 
ATOM     12  C   UNL     1       1.037  -2.293  -0.275  0.00  0.00    +0.004 A 
ATOM     13  C   UNL     1       0.085  -2.008  -1.238  0.00  0.00    +0.000 A 
ATOM     14  C   UNL     1      -0.932  -1.109  -0.968  0.00  0.00    +0.001 A 
ATOM     15  C   UNL     1      -1.002  -0.491   0.263  0.00  0.00    +0.011 A 
ATOM     16  C   UNL     1      -0.048  -0.779   1.240  0.00  0.00    +0.010 A 
ENDBRANCH   5  16
ENDBRANCH   1   7
BRANCH   3  17
ATOM     17  N   UNL     1       0.347  -2.264   7.654  0.00  0.00    -0.232 N 
ATOM     18  H   UNL     1       0.271  -1.678   8.424  0.00  0.00    +0.173 HD
BRANCH  17  19
ATOM     19  C   UNL     1       0.568  -3.614   7.834  0.00  0.00    +0.241 A 
ATOM     20  C   UNL     1       0.698  -4.278   9.041  0.00  0.00    +0.202 A 
ATOM     21  N   UNL     1       0.903  -5.593   8.746  0.00  0.00    -0.200 NA
ATOM     22  C   UNL     1       0.901  -5.734   7.456  0.00  0.00    +0.202 A 
ATOM     23  O   UNL     1       0.693  -4.544   6.870  0.00  0.00    -0.423 OA
BRANCH  22  24
ATOM     24  C   UNL     1       1.097  -7.038   6.726  0.00  0.00    +0.069 C 
ATOM     25  C   UNL     1       2.463  -7.624   7.087  0.00  0.00    +0.017 C 
ATOM     26  C   UNL     1      -0.003  -8.021   7.134  0.00  0.00    +0.017 C 
ENDBRANCH  22  24
BRANCH  20  27
ATOM     27  C   UNL     1       0.630  -3.696  10.348  0.00  0.00    +0.124 C 
ATOM     28  N   UNL     1       0.577  -3.235  11.385  0.00  0.00    -0.189 NA
ENDBRANCH  20  27
ENDBRANCH  17  19
ENDBRANCH   3  17
TORSDOF 6
