REMARK  Name = ZINC45865291
REMARK  8 active torsions:
REMARK  status: ('A' for Active; 'I' for Inactive)
REMARK    1  A    between atoms: C_1  and  C_2
REMARK    2  A    between atoms: C_2  and  N_3
REMARK    3  A    between atoms: N_6  and  C_9
REMARK    4  A    between atoms: C_14  and  N_15
REMARK    5  A    between atoms: C_16  and  C_18
REMARK    6  A    between atoms: C_25  and  C_32
REMARK    7  A    between atoms: N_27  and  S_28
REMARK    8  A    between atoms: S_28  and  C_31
REMARK                            x       y       z     vdW  Elec       q    Type
REMARK                         _______ _______ _______ _____ _____    ______ ____
ROOT
ATOM      1  N   UNL     1      -2.397  -3.246   3.156  0.00  0.00    -0.280 N 
ATOM      2  C   UNL     1      -2.013  -3.199   4.447  0.00  0.00    +0.248 C 
ATOM      3  O   UNL     1      -2.811  -3.458   5.328  0.00  0.00    -0.270 OA
ATOM      4  H   UNL     1      -1.746  -3.103   2.451  0.00  0.00    +0.155 HD
ENDROOT
BRANCH   2   5
ATOM      5  C   UNL     1      -0.627  -2.833   4.792  0.00  0.00    +0.037 A 
ATOM      6  C   UNL     1       0.292  -2.528   3.783  0.00  0.00    +0.015 A 
ATOM      7  C   UNL     1       1.583  -2.188   4.107  0.00  0.00    +0.026 A 
ATOM      8  C   UNL     1       1.990  -2.143   5.446  0.00  0.00    +0.054 A 
ATOM      9  C   UNL     1       1.074  -2.446   6.445  0.00  0.00    -0.022 A 
ATOM     10  C   UNL     1      -0.223  -2.783   6.129  0.00  0.00    +0.018 A 
ATOM     11  C   UNL     1       1.766  -2.322   7.784  0.00  0.00    +0.061 C 
ATOM     12  C   UNL     1       3.204  -1.907   7.435  0.00  0.00    +0.099 C 
ATOM     13  N   UNL     1       3.237  -1.825   5.973  0.00  0.00    -0.204 N 
ATOM     14  C   UNL     1       3.529  -0.545   8.052  0.00  0.00    +0.030 C 
BRANCH  13  15
ATOM     15  S   UNL     1       4.567  -1.413   5.076  0.00  0.00    +0.043 S 
ATOM     16  O   UNL     1       5.677  -1.774   5.887  0.00  0.00    -0.155 OA
ATOM     17  O   UNL     1       4.360  -2.033   3.814  0.00  0.00    -0.155 OA
ATOM     18  C   UNL     1       4.475   0.391   4.909  0.00  0.00    +0.218 C 
ENDBRANCH  13  15
ENDBRANCH   2   5
BRANCH   1  24
ATOM     19  C   UNL     1      -4.317  -2.886   1.723  0.00  0.00    +0.051 A 
ATOM     20  C   UNL     1      -5.641  -3.147   1.405  0.00  0.00    +0.025 A 
ATOM     21  C   UNL     1      -6.383  -4.011   2.189  0.00  0.00    +0.002 A 
ATOM     22  C   UNL     1      -5.808  -4.617   3.291  0.00  0.00    +0.002 A 
ATOM     23  C   UNL     1      -4.489  -4.362   3.616  0.00  0.00    +0.025 A 
ATOM     24  C   UNL     1      -3.736  -3.501   2.832  0.00  0.00    +0.055 A 
BRANCH  19  28
ATOM     25  N   UNL     1      -1.394  -0.513   0.006  0.00  0.00    +0.382 N 
ATOM     26  C   UNL     1      -2.050  -0.132   1.264  0.00  0.00    -0.060 C 
ATOM     27  C   UNL     1      -3.517  -0.572   1.228  0.00  0.00    +0.086 C 
ATOM     28  N   UNL     1      -3.564  -2.012   0.931  0.00  0.00    -0.332 N 
ATOM     29  C   UNL     1      -2.798  -2.507  -0.223  0.00  0.00    +0.086 C 
ATOM     30  C   UNL     1      -1.365  -1.976  -0.119  0.00  0.00    -0.060 C 
ATOM     31  H   UNL     1      -1.907  -0.120  -0.769  0.00  0.00    -0.082 HD
BRANCH  25  33
ATOM     32  C   UNL     1      -0.052   1.536   0.000  0.00  0.00    -0.017 C 
ATOM     33  C   UNL     1      -0.020   0.006  -0.005  0.00  0.00    -0.082 C 
ENDBRANCH  25  33
ENDBRANCH  19  28
ENDBRANCH   1  24
TORSDOF 5
