REMARK  Name = ZINC37051955
REMARK  4 active torsions:
REMARK  status: ('A' for Active; 'I' for Inactive)
REMARK    1  A    between atoms: C_1  and  N_2
REMARK    2  A    between atoms: C_7  and  N_12
REMARK    3  A    between atoms: N_12  and  C_13
REMARK    4  A    between atoms: C_16  and  C_20
REMARK                            x       y       z     vdW  Elec       q    Type
REMARK                         _______ _______ _______ _____ _____    ______ ____
ROOT
ATOM      1  N   UNL     1       1.018  -4.256  -1.118  0.00  0.00    -0.337 N 
ATOM      2  H   UNL     1       1.921  -4.261  -1.474  0.00  0.00    +0.147 HD
ENDROOT
BRANCH   1   9
ATOM      3  C   UNL     1      -0.018   1.461   0.010  0.00  0.00    +0.172 C 
ATOM      4  N   UNL     1       0.002  -0.004   0.002  0.00  0.00    -0.271 N 
ATOM      5  C   UNL     1       0.008  -0.789  -1.088  0.00  0.00    +0.044 A 
ATOM      6  C   UNL     1       0.030  -2.081  -0.670  0.00  0.00    +0.013 A 
ATOM      7  C   UNL     1       0.036  -2.082   0.723  0.00  0.00    +0.140 A 
ATOM      8  N   UNL     1       0.025  -0.837   1.131  0.00  0.00    -0.179 NA
ATOM      9  C   UNL     1       0.047  -3.270  -1.598  0.00  0.00    +0.104 C 
ATOM     10  C   UNL     1       0.448  -2.786  -2.997  0.00  0.00    +0.027 C 
ATOM     11  C   UNL     1      -0.411  -1.580  -3.387  0.00  0.00    +0.008 C 
ATOM     12  C   UNL     1      -0.009  -0.369  -2.536  0.00  0.00    +0.055 C 
ENDBRANCH   1   9
BRANCH   1  13
ATOM     13  C   UNL     1       0.646  -5.187  -0.152  0.00  0.00    +0.029 A 
ATOM     14  C   UNL     1      -0.651  -5.183   0.353  0.00  0.00    +0.024 A 
ATOM     15  C   UNL     1      -1.023  -6.101   1.308  0.00  0.00    +0.022 A 
ATOM     16  C   UNL     1      -0.096  -7.040   1.772  0.00  0.00    +0.070 A 
ATOM     17  C   UNL     1       1.207  -7.042   1.262  0.00  0.00    +0.060 A 
ATOM     18  C   UNL     1       1.570  -6.122   0.302  0.00  0.00    +0.044 A 
ATOM     19 CL   UNL     1       2.362  -8.204   1.834  0.00  0.00    -0.082 Cl
BRANCH  16  20
ATOM     20  C   UNL     1      -0.480  -7.996   2.765  0.00  0.00    +0.101 C 
ATOM     21  N   UNL     1      -0.784  -8.755   3.554  0.00  0.00    -0.191 NA
ENDBRANCH  16  20
ENDBRANCH   1  13
TORSDOF 3
