REMARK  Name = ZINC08612577
REMARK  9 active torsions:
REMARK  status: ('A' for Active; 'I' for Inactive)
REMARK    1  A    between atoms: C_1  and  C_2
REMARK    2  A    between atoms: C_4  and  C_32
REMARK    3  A    between atoms: C_6  and  N_8
REMARK    4  A    between atoms: C_9  and  C_11
REMARK    5  A    between atoms: C_11  and  S_12
REMARK    6  A    between atoms: S_12  and  C_13
REMARK    7  A    between atoms: C_13  and  N_14
REMARK    8  A    between atoms: C_19  and  C_21
REMARK    9  A    between atoms: C_21  and  C_22
REMARK                            x       y       z     vdW  Elec       q    Type
REMARK                         _______ _______ _______ _____ _____    ______ ____
ROOT
ATOM      1  N   UNL     1       0.639  -1.971   8.902  0.00  0.00    -0.216 N 
ATOM      2  C   UNL     1       1.786  -1.488   9.469  0.00  0.00    +0.186 A 
ATOM      3  C   UNL     1       1.381  -0.751  10.597  0.00  0.00    +0.197 A 
ATOM      4  C   UNL     1       2.379  -0.136  11.376  0.00  0.00    +0.303 A 
ATOM      5  N   UNL     1       3.645  -0.280  11.012  0.00  0.00    -0.192 NA
ATOM      6  C   UNL     1       3.977  -0.982   9.943  0.00  0.00    +0.140 A 
ATOM      7  N   UNL     1       3.082  -1.575   9.183  0.00  0.00    -0.211 NA
ATOM      8  O   UNL     1       2.052   0.587  12.474  0.00  0.00    -0.263 OA
ATOM      9  N   UNL     1       0.040  -0.813  10.670  0.00  0.00    -0.122 NA
ATOM     10  N   UNL     1      -0.424  -1.511   9.693  0.00  0.00    -0.062 NA
ENDROOT
BRANCH   1  11
ATOM     11  C   UNL     1       0.541  -2.801   7.699  0.00  0.00    +0.216 C 
BRANCH  11  12
ATOM     12  S   UNL     1       0.391  -1.734   6.239  0.00  0.00    -0.128 S 
BRANCH  12  13
ATOM     13  C   UNL     1       0.280  -2.900   4.854  0.00  0.00    +0.167 C 
BRANCH  13  15
ATOM     14  N   UNL     1       0.052  -2.797   2.393  0.00  0.00    -0.285 N 
ATOM     15  C   UNL     1       0.150  -2.134   3.562  0.00  0.00    +0.227 C 
ATOM     16  O   UNL     1       0.134  -0.922   3.575  0.00  0.00    -0.275 OA
ATOM     17  H   UNL     1      -0.012  -3.765   2.388  0.00  0.00    +0.155 HD
BRANCH  14  23
ATOM     18  C   UNL     1      -1.512  -2.365  -2.248  0.00  0.00    +0.044 C 
ATOM     19  C   UNL     1      -0.707  -1.857  -1.080  0.00  0.00    -0.048 A 
ATOM     20  C   UNL     1       0.025  -0.690  -1.201  0.00  0.00    +0.006 A 
ATOM     21  C   UNL     1       0.765  -0.220  -0.131  0.00  0.00    -0.048 A 
ATOM     22  C   UNL     1       0.776  -0.917   1.061  0.00  0.00    +0.026 A 
ATOM     23  C   UNL     1       0.043  -2.089   1.186  0.00  0.00    +0.034 A 
ATOM     24  C   UNL     1      -0.704  -2.555   0.112  0.00  0.00    +0.026 A 
ATOM     25  C   UNL     1       1.561   1.052  -0.268  0.00  0.00    +0.044 C 
ENDBRANCH  14  23
ENDBRANCH  13  15
ENDBRANCH  12  13
ENDBRANCH  11  12
ENDBRANCH   1  11
BRANCH   6  26
ATOM     26  C   UNL     1       5.434  -1.109   9.581  0.00  0.00    +0.111 C 
BRANCH  26  27
ATOM     27  C   UNL     1       6.017  -2.321  10.260  0.00  0.00    -0.040 A 
ATOM     28  C   UNL     1       6.573  -2.207  11.521  0.00  0.00    +0.007 A 
ATOM     29  C   UNL     1       7.107  -3.318  12.144  0.00  0.00    +0.038 A 
ATOM     30  C   UNL     1       7.086  -4.547  11.506  0.00  0.00    +0.123 A 
ATOM     31  C   UNL     1       6.529  -4.660  10.243  0.00  0.00    +0.038 A 
ATOM     32  C   UNL     1       5.990  -3.548   9.624  0.00  0.00    +0.007 A 
ATOM     33  F   UNL     1       7.608  -5.634  12.114  0.00  0.00    -0.205 F 
ENDBRANCH  26  27
ENDBRANCH   6  26
TORSDOF 7
