REMARK  Name = ZINC63833389
REMARK  8 active torsions:
REMARK  status: ('A' for Active; 'I' for Inactive)
REMARK    1  A    between atoms: C_1  and  C_2
REMARK    2  A    between atoms: C_4  and  C_8
REMARK    3  A    between atoms: C_8  and  N_9
REMARK    4  A    between atoms: C_12  and  C_15
REMARK    5  A    between atoms: C_15  and  C_16
REMARK    6  A    between atoms: C_20  and  C_29
REMARK    7  A    between atoms: N_22  and  C_23
REMARK    8  A    between atoms: C_29  and  O_30
REMARK                            x       y       z     vdW  Elec       q    Type
REMARK                         _______ _______ _______ _____ _____    ______ ____
ROOT
ATOM      1  N   UNL     1      -3.196   2.915   0.544  0.00  0.00    +0.383 N 
ATOM      2  C   UNL     1      -3.724   3.971  -0.328  0.00  0.00    -0.078 C 
ATOM      3  C   UNL     1      -3.769   5.295   0.437  0.00  0.00    -0.015 C 
ATOM      4  C   UNL     1      -4.677   5.140   1.661  0.00  0.00    -0.011 C 
ATOM      5  C   UNL     1      -4.159   3.987   2.526  0.00  0.00    -0.015 C 
ATOM      6  C   UNL     1      -4.099   2.712   1.683  0.00  0.00    -0.078 C 
ATOM      7  H   UNL     1      -2.285   3.186   0.883  0.00  0.00    -0.081 HD
ENDROOT
BRANCH   1   8
ATOM      8  C   UNL     1      -3.081   1.664  -0.218  0.00  0.00    -0.021 C 
BRANCH   8  12
ATOM      9  C   UNL     1      -0.013   1.086   0.008  0.00  0.00    +0.065 C 
ATOM     10  C   UNL     1      -0.742   1.585  -1.213  0.00  0.00    +0.034 A 
ATOM     11  H   UNL     1       0.748   1.800  -2.671  0.00  0.00    +0.166 HD
ATOM     12  C   UNL     1      -2.061   1.835  -1.314  0.00  0.00    +0.045 A 
ATOM     13  N   UNL     1      -2.308   2.263  -2.561  0.00  0.00    -0.243 NA
ATOM     14  C   UNL     1      -1.192   2.288  -3.236  0.00  0.00    +0.196 A 
ATOM     15  N   UNL     1      -0.189   1.877  -2.431  0.00  0.00    -0.348 N 
ENDBRANCH   8  12
ENDBRANCH   1   8
BRANCH   4  16
ATOM     16  C   UNL     1      -4.664   6.436   2.474  0.00  0.00    +0.052 C 
BRANCH  16  17
ATOM     17  C   UNL     1      -5.665   6.325   3.626  0.00  0.00    +0.216 C 
ATOM     18  N   UNL     1      -7.020   6.153   3.099  0.00  0.00    -0.168 NA
ATOM     19  N   UNL     1      -7.764   7.069   3.445  0.00  0.00    -0.165 NA
ATOM     20  C   UNL     1      -7.068   8.051   4.277  0.00  0.00    +0.241 C 
ATOM     21  N   UNL     1      -5.678   7.574   4.407  0.00  0.00    -0.281 N 
BRANCH  21  22
ATOM     22  C   UNL     1      -4.623   8.166   5.106  0.00  0.00    +0.033 A 
ATOM     23  C   UNL     1      -3.370   7.568   5.111  0.00  0.00    +0.023 A 
ATOM     24  C   UNL     1      -2.329   8.156   5.803  0.00  0.00    +0.002 A 
ATOM     25  C   UNL     1      -2.534   9.338   6.490  0.00  0.00    +0.000 A 
ATOM     26  C   UNL     1      -3.781   9.936   6.487  0.00  0.00    +0.002 A 
ATOM     27  C   UNL     1      -4.824   9.357   5.793  0.00  0.00    +0.023 A 
ENDBRANCH  21  22
BRANCH  20  28
ATOM     28  C   UNL     1      -7.092   9.424   3.601  0.00  0.00    +0.204 C 
BRANCH  28  29
ATOM     29  O   UNL     1      -6.473   9.334   2.316  0.00  0.00    -0.391 OA
ATOM     30  H   UNL     1      -6.453  10.169   1.830  0.00  0.00    +0.210 HD
ENDBRANCH  28  29
ENDBRANCH  20  28
ENDBRANCH  16  17
ENDBRANCH   4  16
TORSDOF 7
