REMARK  Name = ZINC12917631
REMARK  6 active torsions:
REMARK  status: ('A' for Active; 'I' for Inactive)
REMARK    1  A    between atoms: C_1  and  C_2
REMARK    2  A    between atoms: C_2  and  C_3
REMARK    3  A    between atoms: C_3  and  N_4
REMARK    4  A    between atoms: C_13  and  C_15
REMARK    5  A    between atoms: N_17  and  N_18
REMARK    6  A    between atoms: C_19  and  C_21
REMARK                            x       y       z     vdW  Elec       q    Type
REMARK                         _______ _______ _______ _____ _____    ______ ____
ROOT
ATOM      1  N   UNL     1       0.688  -0.476  -1.203  0.00  0.00    -0.228 N 
ATOM      2  C   UNL     1       2.022  -0.666  -1.146  0.00  0.00    +0.275 A 
ATOM      3  O   UNL     1       2.638  -0.450  -0.118  0.00  0.00    -0.266 OA
ATOM      4  C   UNL     1       2.714  -1.145  -2.350  0.00  0.00    +0.050 A 
ATOM      5  C   UNL     1       4.085  -1.377  -2.393  0.00  0.00    +0.014 A 
ATOM      6  C   UNL     1       4.659  -1.821  -3.565  0.00  0.00    +0.001 A 
ATOM      7  C   UNL     1       3.884  -2.038  -4.697  0.00  0.00    +0.001 A 
ATOM      8  C   UNL     1       2.524  -1.815  -4.675  0.00  0.00    +0.011 A 
ATOM      9  C   UNL     1       1.925  -1.367  -3.503  0.00  0.00    +0.020 A 
ATOM     10  C   UNL     1       0.480  -1.104  -3.396  0.00  0.00    +0.155 A 
ATOM     11  N   UNL     1      -0.010  -0.682  -2.256  0.00  0.00    -0.163 NA
ENDROOT
BRANCH  10  12
ATOM     12  C   UNL     1      -0.405  -1.312  -4.559  0.00  0.00    +0.281 C 
ATOM     13  O   UNL     1       0.058  -1.703  -5.613  0.00  0.00    -0.267 OA
ATOM     14  N   UNL     1      -1.726  -1.068  -4.452  0.00  0.00    -0.229 N 
ATOM     15  H   UNL     1      -2.095  -0.756  -3.611  0.00  0.00    +0.173 HD
BRANCH  14  16
ATOM     16  N   UNL     1      -2.567  -1.266  -5.555  0.00  0.00    -0.234 N 
ATOM     17  C   UNL     1      -3.888  -1.022  -5.448  0.00  0.00    +0.232 C 
ATOM     18  O   UNL     1      -4.349  -0.632  -4.397  0.00  0.00    -0.274 OA
ATOM     19  H   UNL     1      -2.198  -1.578  -6.396  0.00  0.00    +0.173 HD
BRANCH  17  20
ATOM     20  C   UNL     1      -4.792  -1.235  -6.635  0.00  0.00    +0.080 C 
ATOM     21  C   UNL     1      -6.232  -0.864  -6.260  0.00  0.00    +0.017 C 
ATOM     22  C   UNL     1      -7.151  -1.256  -7.419  0.00  0.00    +0.027 C 
ATOM     23  C   UNL     1      -6.602  -0.733  -8.713  0.00  0.00    -0.031 C 
ATOM     24  C   UNL     1      -5.380  -0.336  -8.876  0.00  0.00    -0.030 C 
ATOM     25  C   UNL     1      -4.345  -0.335  -7.789  0.00  0.00    +0.039 C 
ENDBRANCH  17  20
ENDBRANCH  14  16
ENDBRANCH  10  12
BRANCH   1  26
ATOM     26  C   UNL     1       0.002  -0.004   0.002  0.00  0.00    +0.147 C 
BRANCH  26  28
ATOM     27  C   UNL     1      -0.735   2.019   1.269  0.00  0.00    +0.005 C 
ATOM     28  C   UNL     1      -0.019   1.526   0.010  0.00  0.00    +0.020 C 
ENDBRANCH  26  28
ENDBRANCH   1  26
TORSDOF 5
