REMARK  Name = ZINC11727491
REMARK  5 active torsions:
REMARK  status: ('A' for Active; 'I' for Inactive)
REMARK    1  A    between atoms: C_1  and  C_2
REMARK    2  A    between atoms: C_2  and  C_3
REMARK    3  A    between atoms: C_2  and  C_4
REMARK    4  A    between atoms: C_2  and  C_5
REMARK    5  A    between atoms: C_12  and  C_16
REMARK                            x       y       z     vdW  Elec       q    Type
REMARK                         _______ _______ _______ _____ _____    ______ ____
ROOT
ATOM      1  C   UNL     1       4.751   1.270  -0.037  0.00  0.00    -0.041 A 
ATOM      2  C   UNL     1       4.702  -0.122  -0.044  0.00  0.00    +0.006 A 
ATOM      3  C   UNL     1       3.513  -0.784  -0.036  0.00  0.00    +0.028 A 
ATOM      4  C   UNL     1       2.311  -0.056  -0.020  0.00  0.00    +0.073 A 
ATOM      5  C   UNL     1       2.362   1.360  -0.013  0.00  0.00    +0.001 A 
ATOM      6  C   UNL     1       3.607   2.009  -0.022  0.00  0.00    +0.014 A 
ATOM      7  C   UNL     1       1.157   2.088   0.002  0.00  0.00    +0.021 A 
ATOM      8  C   UNL     1      -0.017   1.390   0.010  0.00  0.00    +0.045 A 
ATOM      9  C   UNL     1       0.002  -0.004   0.002  0.00  0.00    +0.138 A 
ATOM     10  N   UNL     1       1.128  -0.678  -0.012  0.00  0.00    -0.235 NA
ATOM     11 CL   UNL     1      -1.502  -0.870   0.012  0.00  0.00    -0.062 Cl
ENDROOT
BRANCH   8  12
ATOM     12  C   UNL     1      -1.332   2.127   0.020  0.00  0.00    +0.285 C 
ATOM     13  O   UNL     1      -1.113   3.509  -0.309  0.00  0.00    -0.345 OA
ATOM     14  C   UNL     1      -2.067   4.238   0.500  0.00  0.00    +0.191 C 
ATOM     15  C   UNL     1      -2.076   3.401   1.804  0.00  0.00    +0.191 C 
ATOM     16  O   UNL     1      -1.916   2.050   1.327  0.00  0.00    -0.345 OA
ENDBRANCH   8  12
BRANCH   1  18
ATOM     17  C   UNL     1       6.217   2.836   1.208  0.00  0.00    +0.015 C 
ATOM     18  C   UNL     1       6.087   1.968  -0.045  0.00  0.00    -0.013 C 
ATOM     19  C   UNL     1       7.207   0.925  -0.062  0.00  0.00    +0.015 C 
ATOM     20  C   UNL     1       6.193   2.850  -1.290  0.00  0.00    +0.015 C 
ENDBRANCH   1  18
TORSDOF 2
