REMARK  Name = ZINC12500787
REMARK  7 active torsions:
REMARK  status: ('A' for Active; 'I' for Inactive)
REMARK    1  A    between atoms: C_4  and  C_7
REMARK    2  A    between atoms: N_9  and  C_10
REMARK    3  A    between atoms: C_10  and  N_12
REMARK    4  A    between atoms: N_12  and  N_13
REMARK    5  A    between atoms: C_14  and  C_16
REMARK    6  A    between atoms: C_16  and  O_17
REMARK    7  A    between atoms: O_17  and  C_18
REMARK                            x       y       z     vdW  Elec       q    Type
REMARK                         _______ _______ _______ _____ _____    ______ ____
ROOT
ATOM      1  N   UNL     1       3.159  10.292   0.022  0.00  0.00    -0.232 N 
ATOM      2  C   UNL     1       2.100   9.458   0.028  0.00  0.00    +0.267 C 
ATOM      3  O   UNL     1       0.974   9.907   0.041  0.00  0.00    -0.271 OA
ATOM      4  H   UNL     1       4.060   9.932   0.011  0.00  0.00    +0.173 HD
ENDROOT
BRANCH   1   5
ATOM      5  N   UNL     1       2.958  11.678   0.030  0.00  0.00    -0.245 N 
ATOM      6  H   UNL     1       2.057  12.038   0.040  0.00  0.00    +0.172 HD
BRANCH   5   7
ATOM      7  C   UNL     1       4.016  12.513   0.024  0.00  0.00    +0.153 C 
ATOM      8  S   UNL     1       3.771  14.207   0.034  0.00  0.00    -0.017 S 
BRANCH   7  11
ATOM      9  C   UNL     1       6.327  12.848   0.003  0.00  0.00    +0.250 C 
ATOM     10  O   UNL     1       6.152  14.050   0.011  0.00  0.00    -0.270 OA
ATOM     11  N   UNL     1       5.268  12.013   0.010  0.00  0.00    -0.263 N 
ATOM     12  H   UNL     1       5.407  11.053   0.004  0.00  0.00    +0.157 HD
BRANCH   9  16
ATOM     13  C   UNL     1      10.271  11.273  -0.041  0.00  0.00    +0.000 A 
ATOM     14  C   UNL     1      10.076  12.643  -0.033  0.00  0.00    +0.001 A 
ATOM     15  C   UNL     1       8.798  13.161  -0.019  0.00  0.00    +0.013 A 
ATOM     16  C   UNL     1       7.699  12.300  -0.012  0.00  0.00    +0.037 A 
ATOM     17  C   UNL     1       7.903  10.919  -0.015  0.00  0.00    +0.013 A 
ATOM     18  C   UNL     1       9.187  10.414  -0.034  0.00  0.00    +0.001 A 
ENDBRANCH   9  16
ENDBRANCH   7  11
ENDBRANCH   5   7
ENDBRANCH   1   5
BRANCH   2  19
ATOM     19  C   UNL     1       2.316   7.966   0.019  0.00  0.00    +0.326 C 
BRANCH  19  20
ATOM     20  O   UNL     1       1.051   7.302   0.028  0.00  0.00    -0.482 OA
BRANCH  20  21
ATOM     21  C   UNL     1       1.068   5.943   0.021  0.00  0.00    +0.136 A 
ATOM     22  C   UNL     1       2.293   5.268   0.006  0.00  0.00    +0.047 A 
ATOM     23  C   UNL     1       2.342   3.909  -0.000  0.00  0.00    +0.012 A 
ATOM     24  C   UNL     1       1.148   3.167   0.008  0.00  0.00    -0.017 A 
ATOM     25  C   UNL     1       1.163   1.762   0.000  0.00  0.00    +0.008 A 
ATOM     26  C   UNL     1      -0.013   1.076   0.008  0.00  0.00    +0.001 A 
ATOM     27  C   UNL     1      -1.235   1.746   0.017  0.00  0.00    +0.001 A 
ATOM     28  C   UNL     1      -1.288   3.106   0.030  0.00  0.00    +0.010 A 
ATOM     29  C   UNL     1      -0.095   3.849   0.023  0.00  0.00    -0.000 A 
ATOM     30  C   UNL     1      -0.112   5.254   0.029  0.00  0.00    +0.067 A 
ATOM     31 BR   UNL     1      -1.757   6.185   0.049  0.00  0.00    -0.046 Br
ENDBRANCH  20  21
ENDBRANCH  19  20
ENDBRANCH   2  19
TORSDOF 7
