REMARK  Name = ZINC49543431
REMARK  7 active torsions:
REMARK  status: ('A' for Active; 'I' for Inactive)
REMARK    1  A    between atoms: C_1  and  O_2
REMARK    2  A    between atoms: O_2  and  C_3
REMARK    3  A    between atoms: C_7  and  N_9
REMARK    4  A    between atoms: C_11  and  C_27
REMARK    5  A    between atoms: C_14  and  C_20
REMARK    6  A    between atoms: C_17  and  O_19
REMARK    7  A    between atoms: C_23  and  O_26
REMARK                            x       y       z     vdW  Elec       q    Type
REMARK                         _______ _______ _______ _____ _____    ______ ____
ROOT
ATOM      1  N   UNL     1      -2.543  -4.066   0.016  0.00  0.00    -0.316 N 
ATOM      2  C   UNL     1      -1.864  -4.865  -0.836  0.00  0.00    +0.109 A 
ATOM      3  C   UNL     1      -2.165  -6.183  -0.539  0.00  0.00    +0.107 A 
ATOM      4  C   UNL     1      -3.099  -6.133   0.584  0.00  0.00    +0.103 A 
ATOM      5  C   UNL     1      -3.285  -4.810   0.875  0.00  0.00    +0.058 A 
ATOM      6  C   UNL     1      -4.203  -4.376   1.992  0.00  0.00    +0.077 C 
ATOM      7  C   UNL     1      -5.294  -5.441   2.142  0.00  0.00    +0.109 C 
ATOM      8  C   UNL     1      -4.731  -6.828   2.042  0.00  0.00    +0.189 C 
ATOM      9  N   UNL     1      -3.718  -7.130   1.289  0.00  0.00    -0.215 NA
ENDROOT
BRANCH   1  14
ATOM     10  C   UNL     1      -1.200  -0.637   0.010  0.00  0.00    +0.122 A 
ATOM     11  C   UNL     1      -2.375   0.102   0.020  0.00  0.00    +0.046 A 
ATOM     12  C   UNL     1      -3.598  -0.540   0.028  0.00  0.00    +0.006 A 
ATOM     13  C   UNL     1      -3.656  -1.921   0.027  0.00  0.00    +0.026 A 
ATOM     14  C   UNL     1      -2.484  -2.666   0.017  0.00  0.00    +0.050 A 
ATOM     15  C   UNL     1      -1.254  -2.022   0.003  0.00  0.00    +0.071 A 
BRANCH  10  17
ATOM     16  C   UNL     1      -0.017   1.425   0.010  0.00  0.00    +0.277 C 
ATOM     17  O   UNL     1       0.002  -0.004   0.002  0.00  0.00    -0.495 OA
ENDBRANCH  10  17
ENDBRANCH   1  14
BRANCH   6  18
ATOM     18  C   UNL     1      -3.423  -4.259   3.276  0.00  0.00    -0.038 A 
ATOM     19  C   UNL     1      -2.769  -5.363   3.790  0.00  0.00    +0.008 A 
ATOM     20  C   UNL     1      -2.054  -5.258   4.967  0.00  0.00    +0.045 A 
ATOM     21  C   UNL     1      -1.992  -4.043   5.634  0.00  0.00    +0.117 A 
ATOM     22  C   UNL     1      -2.649  -2.936   5.116  0.00  0.00    +0.045 A 
ATOM     23  C   UNL     1      -3.358  -3.045   3.936  0.00  0.00    +0.008 A 
BRANCH  21  24
ATOM     24  O   UNL     1      -1.290  -3.938   6.793  0.00  0.00    -0.507 OA
ATOM     25  H   UNL     1      -0.363  -3.692   6.670  0.00  0.00    +0.292 HD
ENDBRANCH  21  24
ENDBRANCH   6  18
BRANCH   3  26
ATOM     26  C   UNL     1      -1.653  -7.381  -1.212  0.00  0.00    +0.390 C 
ATOM     27  O   UNL     1      -0.870  -7.271  -2.146  0.00  0.00    -0.240 OA
ATOM     28  O   UNL     1      -2.009  -8.491  -0.839  0.00  0.00    -0.240 OA
ENDBRANCH   3  26
BRANCH   8  29
ATOM     29  O   UNL     1      -5.311  -7.811   2.764  0.00  0.00    -0.495 OA
ATOM     30  H   UNL     1      -4.898  -8.678   2.651  0.00  0.00    +0.293 HD
ENDBRANCH   8  29
TORSDOF 6
