REMARK  Name = ZINC39706780
REMARK  10 active torsions:
REMARK  status: ('A' for Active; 'I' for Inactive)
REMARK    1  A    between atoms: C_1  and  C_2
REMARK    2  A    between atoms: C_2  and  O_3
REMARK    3  A    between atoms: O_3  and  C_4
REMARK    4  A    between atoms: C_6  and  C_19
REMARK    5  A    between atoms: C_9  and  O_10
REMARK    6  A    between atoms: O_10  and  C_11
REMARK    7  A    between atoms: C_11  and  C_12
REMARK    8  A    between atoms: C_20  and  C_21
REMARK    9  A    between atoms: C_20  and  C_23
REMARK   10  A    between atoms: C_29  and  C_33
REMARK                            x       y       z     vdW  Elec       q    Type
REMARK                         _______ _______ _______ _____ _____    ______ ____
ROOT
ATOM      1  C   UNL     1      -1.787  -2.090  -0.383  0.00  0.00    +0.162 A 
ATOM      2  C   UNL     1      -0.618  -2.795  -0.175  0.00  0.00    +0.057 A 
ATOM      3  C   UNL     1      -0.627  -4.193  -0.238  0.00  0.00    -0.020 A 
ATOM      4  C   UNL     1      -1.821  -4.869  -0.513  0.00  0.00    +0.012 A 
ATOM      5  C   UNL     1      -2.983  -4.157  -0.719  0.00  0.00    +0.050 A 
ATOM      6  C   UNL     1      -2.974  -2.771  -0.650  0.00  0.00    +0.162 A 
ENDROOT
BRANCH   3   7
ATOM      7  C   UNL     1       0.614  -4.950  -0.018  0.00  0.00    +0.026 C 
ATOM      8  C   UNL     1       0.580  -6.123   0.647  0.00  0.00    +0.072 C 
BRANCH   8   9
ATOM      9  C   UNL     1       1.819  -6.978   0.731  0.00  0.00    +0.216 C 
ATOM     10  N   UNL     1       2.174  -7.213   2.136  0.00  0.00    -0.359 N 
ATOM     11  C   UNL     1       2.130  -8.498   2.340  0.00  0.00    +0.060 A 
ATOM     12  C   UNL     1       2.382  -9.331   3.524  0.00  0.00    +0.027 A 
ATOM     13  C   UNL     1       2.256 -10.670   3.435  0.00  0.00    +0.005 A 
ATOM     14  C   UNL     1       1.889 -11.319   2.242  0.00  0.00    -0.048 A 
ATOM     15  C   UNL     1       1.635 -10.650   1.099  0.00  0.00    +0.030 A 
ATOM     16  C   UNL     1       1.742  -9.185   1.078  0.00  0.00    +0.061 A 
ATOM     17  N   UNL     1       1.562  -8.297   0.141  0.00  0.00    -0.359 N 
ATOM     18  C   UNL     1       1.774 -12.821   2.242  0.00  0.00    +0.044 C 
ATOM     19  H   UNL     1       2.401  -6.535   2.792  0.00  0.00    +0.162 HD
ATOM     20  H   UNL     1       1.304  -8.475  -0.777  0.00  0.00    +0.162 HD
ENDBRANCH   8   9
BRANCH   8  21
ATOM     21  C   UNL     1      -0.632  -6.557   1.273  0.00  0.00    +0.099 C 
ATOM     22  N   UNL     1      -1.595  -6.901   1.769  0.00  0.00    -0.191 NA
ENDBRANCH   8  21
ENDBRANCH   3   7
BRANCH   1  23
ATOM     23  O   UNL     1      -1.782  -0.732  -0.321  0.00  0.00    -0.489 OA
BRANCH  23  25
ATOM     24  C   UNL     1      -0.722   1.418  -0.013  0.00  0.00    +0.048 C 
ATOM     25  C   UNL     1      -0.531  -0.100  -0.043  0.00  0.00    +0.226 C 
ENDBRANCH  23  25
ENDBRANCH   1  23
BRANCH   6  26
ATOM     26  O   UNL     1      -4.124  -2.075  -0.849  0.00  0.00    -0.484 OA
BRANCH  26  27
ATOM     27  C   UNL     1      -5.304  -2.835  -1.119  0.00  0.00    +0.264 C 
BRANCH  27  28
ATOM     28  C   UNL     1      -6.470  -1.901  -1.310  0.00  0.00    -0.010 A 
ATOM     29  C   UNL     1      -7.236  -1.520  -0.224  0.00  0.00    +0.008 A 
ATOM     30  C   UNL     1      -8.306  -0.663  -0.400  0.00  0.00    +0.020 A 
ATOM     31  C   UNL     1      -8.611  -0.186  -1.662  0.00  0.00    +0.041 A 
ATOM     32  C   UNL     1      -7.844  -0.568  -2.749  0.00  0.00    +0.020 A 
ATOM     33  C   UNL     1      -6.771  -1.421  -2.571  0.00  0.00    +0.008 A 
ATOM     34 CL   UNL     1      -9.955   0.890  -1.883  0.00  0.00    -0.084 Cl
ENDBRANCH  27  28
ENDBRANCH  26  27
ENDBRANCH   6  26
TORSDOF 8
