REMARK  Name = ZINC07058132
REMARK  8 active torsions:
REMARK  status: ('A' for Active; 'I' for Inactive)
REMARK    1  A    between atoms: C_1  and  N_2
REMARK    2  A    between atoms: C_3  and  C_21
REMARK    3  A    between atoms: N_7  and  C_15
REMARK    4  A    between atoms: C_9  and  C_11
REMARK    5  A    between atoms: C_11  and  O_13
REMARK    6  A    between atoms: O_13  and  C_14
REMARK    7  A    between atoms: C_24  and  O_27
REMARK    8  A    between atoms: O_27  and  C_28
REMARK                            x       y       z     vdW  Elec       q    Type
REMARK                         _______ _______ _______ _____ _____    ______ ____
ROOT
ATOM      1  C   UNL     1       0.789   1.346  -0.106  0.00  0.00    +0.135 C 
ATOM      2  N   UNL     1       0.369  -0.056  -0.051  0.00  0.00    -0.269 N 
ATOM      3  C   UNL     1      -0.088  -0.845  -1.113  0.00  0.00    +0.149 C 
ATOM      4  N   UNL     1      -0.380  -2.045  -0.724  0.00  0.00    -0.167 NA
ATOM      5  N   UNL     1      -0.153  -2.208   0.654  0.00  0.00    -0.217 N 
ATOM      6  C   UNL     1       0.346  -0.922   1.119  0.00  0.00    +0.263 C 
ATOM      7  N   UNL     1      -0.416  -0.372   2.239  0.00  0.00    -0.172 N 
ATOM      8  N   UNL     1       0.314  -0.169   3.396  0.00  0.00    -0.162 NA
ATOM      9  C   UNL     1       1.588  -0.445   3.488  0.00  0.00    +0.204 C 
ATOM     10  S   UNL     1       2.007  -1.077   1.868  0.00  0.00    -0.029 S 
ATOM     11  H   UNL     1      -0.294  -3.009   1.182  0.00  0.00    +0.173 HD
ENDROOT
BRANCH   7  12
ATOM     12  C   UNL     1      -1.776  -0.074   2.148  0.00  0.00    +0.056 A 
ATOM     13  C   UNL     1      -2.462  -0.304   0.961  0.00  0.00    +0.025 A 
ATOM     14  C   UNL     1      -3.808  -0.008   0.875  0.00  0.00    +0.002 A 
ATOM     15  C   UNL     1      -4.474   0.517   1.968  0.00  0.00    +0.000 A 
ATOM     16  C   UNL     1      -3.795   0.747   3.151  0.00  0.00    +0.002 A 
ATOM     17  C   UNL     1      -2.450   0.448   3.247  0.00  0.00    +0.025 A 
ENDBRANCH   7  12
BRANCH   3  18
ATOM     18  C   UNL     1      -0.222  -0.367  -2.505  0.00  0.00    +0.017 A 
ATOM     19  C   UNL     1       0.427   0.802  -2.909  0.00  0.00    +0.015 A 
ATOM     20  C   UNL     1       0.300   1.244  -4.209  0.00  0.00    +0.046 A 
ATOM     21  C   UNL     1      -0.472   0.529  -5.115  0.00  0.00    +0.120 A 
ATOM     22  C   UNL     1      -1.119  -0.634  -4.717  0.00  0.00    +0.046 A 
ATOM     23  C   UNL     1      -0.991  -1.086  -3.421  0.00  0.00    +0.015 A 
BRANCH  21  24
ATOM     24  O   UNL     1      -0.595   0.969  -6.395  0.00  0.00    -0.495 OA
ATOM     25  C   UNL     1      -1.404   0.185  -7.275  0.00  0.00    +0.277 C 
ENDBRANCH  21  24
ENDBRANCH   3  18
BRANCH   9  26
ATOM     26  C   UNL     1       2.469  -0.277   4.650  0.00  0.00    +0.366 C 
ATOM     27  O   UNL     1       3.643  -0.584   4.572  0.00  0.00    -0.243 OA
BRANCH  26  28
ATOM     28  O   UNL     1       1.977   0.219   5.803  0.00  0.00    -0.463 OA
ATOM     29  C   UNL     1       2.891   0.356   6.893  0.00  0.00    +0.280 C 
ENDBRANCH  26  28
ENDBRANCH   9  26
TORSDOF 5
