REMARK  Name = ZINC09646748
REMARK  6 active torsions:
REMARK  status: ('A' for Active; 'I' for Inactive)
REMARK    1  A    between atoms: C_1  and  N_2
REMARK    2  A    between atoms: C_6  and  C_8
REMARK    3  A    between atoms: C_8  and  C_10
REMARK    4  A    between atoms: C_8  and  O_16
REMARK    5  A    between atoms: O_16  and  C_17
REMARK    6  A    between atoms: C_17  and  C_19
REMARK                            x       y       z     vdW  Elec       q    Type
REMARK                         _______ _______ _______ _____ _____    ______ ____
ROOT
ATOM      1  C   UNL     1       1.280   1.979   0.001  0.00  0.00    +0.293 C 
ENDROOT
BRANCH   1   7
ATOM      2  C   UNL     1      -4.783   1.085   0.031  0.00  0.00    +0.129 C 
ATOM      3  N   UNL     1      -3.525   1.834   0.029  0.00  0.00    -0.302 N 
ATOM      4  C   UNL     1      -2.349   1.176   0.020  0.00  0.00    +0.306 C 
ATOM      5  O   UNL     1      -2.332  -0.039   0.013  0.00  0.00    -0.252 OA
ATOM      6  N   UNL     1      -1.191   1.866   0.018  0.00  0.00    -0.237 N 
ATOM      7  C   UNL     1      -0.014   1.208   0.009  0.00  0.00    +0.266 C 
ATOM      8  O   UNL     1       0.002  -0.004   0.002  0.00  0.00    -0.271 OA
ATOM      9  H   UNL     1      -3.538   2.804   0.034  0.00  0.00    +0.150 HD
ATOM     10  H   UNL     1      -1.204   2.836   0.023  0.00  0.00    +0.159 HD
ENDBRANCH   1   7
BRANCH   1  11
ATOM     11  C   UNL     1       1.417   2.745   1.291  0.00  0.00    +0.002 A 
ATOM     12  C   UNL     1       1.940   2.126   2.410  0.00  0.00    +0.008 A 
ATOM     13  C   UNL     1       2.070   2.830   3.593  0.00  0.00    +0.000 A 
ATOM     14  C   UNL     1       1.667   4.151   3.659  0.00  0.00    +0.000 A 
ATOM     15  C   UNL     1       1.139   4.769   2.541  0.00  0.00    +0.000 A 
ATOM     16  C   UNL     1       1.014   4.066   1.357  0.00  0.00    +0.008 A 
ENDBRANCH   1  11
BRANCH   1  17
ATOM     17  O   UNL     1       2.393   1.056  -0.134  0.00  0.00    -0.442 OA
BRANCH  17  18
ATOM     18  C   UNL     1       3.494   1.513  -0.760  0.00  0.00    +0.360 C 
ATOM     19  O   UNL     1       3.525   2.652  -1.182  0.00  0.00    -0.243 OA
BRANCH  18  20
ATOM     20  C   UNL     1       4.667   0.628  -0.934  0.00  0.00    +0.167 A 
ATOM     21  C   UNL     1       5.805   1.107  -1.583  0.00  0.00    +0.073 A 
ATOM     22  C   UNL     1       6.897   0.265  -1.738  0.00  0.00    +0.025 A 
ATOM     23  C   UNL     1       6.814  -1.024  -1.240  0.00  0.00    +0.041 A 
ATOM     24  C   UNL     1       5.650  -1.435  -0.605  0.00  0.00    +0.130 A 
ATOM     25  N   UNL     1       4.630  -0.614  -0.466  0.00  0.00    -0.227 NA
ATOM     26 CL   UNL     1       5.540  -3.050   0.022  0.00  0.00    -0.062 Cl
ATOM     27 CL   UNL     1       5.854   2.733  -2.188  0.00  0.00    -0.081 Cl
ENDBRANCH  18  20
ENDBRANCH  17  18
ENDBRANCH   1  17
TORSDOF 5
