REMARK  Name = ZINC33810517
REMARK  9 active torsions:
REMARK  status: ('A' for Active; 'I' for Inactive)
REMARK    1  A    between atoms: C_1  and  C_2
REMARK    2  A    between atoms: C_2  and  C_3
REMARK    3  A    between atoms: C_3  and  S_4
REMARK    4  A    between atoms: S_4  and  C_5
REMARK    5  A    between atoms: C_12  and  C_24
REMARK    6  A    between atoms: C_18  and  C_22
REMARK    7  A    between atoms: C_18  and  C_23
REMARK    8  A    between atoms: C_29  and  O_30
REMARK    9  A    between atoms: O_30  and  C_31
REMARK                            x       y       z     vdW  Elec       q    Type
REMARK                         _______ _______ _______ _____ _____    ______ ____
ROOT
ATOM      1  C   UNL     1       1.836   6.745  -3.472  0.00  0.00    +0.171 A 
ATOM      2  N   UNL     1       2.504   6.794  -2.285  0.00  0.00    -0.208 NA
ATOM      3  C   UNL     1       1.900   6.348  -1.139  0.00  0.00    +0.135 A 
ATOM      4  C   UNL     1       0.634   5.856  -1.200  0.00  0.00    +0.069 A 
ATOM      5  C   UNL     1      -0.025   5.826  -2.449  0.00  0.00    +0.258 A 
ATOM      6  O   UNL     1      -1.166   5.395  -2.532  0.00  0.00    -0.267 OA
ATOM      7  N   UNL     1       0.608   6.274  -3.544  0.00  0.00    -0.302 N 
ATOM      8  C   UNL     1      -0.059   5.351   0.030  0.00  0.00    +0.096 C 
ATOM      9  C   UNL     1       0.620   5.845   1.283  0.00  0.00    +0.024 C 
ATOM     10  C   UNL     1       1.880   6.328   1.246  0.00  0.00    +0.017 C 
ATOM     11  N   UNL     1       2.567   6.395   0.064  0.00  0.00    -0.302 N 
ATOM     12  C   UNL     1       2.568   6.802   2.502  0.00  0.00    +0.058 C 
ATOM     13  C   UNL     1       1.529   7.366   3.475  0.00  0.00    -0.023 C 
ATOM     14  C   UNL     1       0.506   6.267   3.781  0.00  0.00    +0.086 C 
ATOM     15  C   UNL     1      -0.098   5.787   2.490  0.00  0.00    +0.162 C 
ATOM     16  O   UNL     1      -1.228   5.341   2.490  0.00  0.00    -0.292 OA
ATOM     17  C   UNL     1       0.823   8.564   2.837  0.00  0.00    +0.011 C 
ATOM     18  C   UNL     1       2.216   7.804   4.770  0.00  0.00    +0.011 C 
ATOM     19  H   UNL     1       3.663   6.487   0.082  0.00  0.00    +0.153 HD
ATOM     20  H   UNL     1       0.086   6.244  -4.512  0.00  0.00    +0.171 HD
ENDROOT
BRANCH   8  21
ATOM     21  C   UNL     1      -0.043   3.844   0.022  0.00  0.00    +0.006 A 
ATOM     22  C   UNL     1       1.161   3.165   0.008  0.00  0.00    +0.008 A 
ATOM     23  C   UNL     1       1.176   1.783   0.000  0.00  0.00    +0.001 A 
ATOM     24  C   UNL     1      -0.013   1.076   0.008  0.00  0.00    +0.004 A 
ATOM     25  C   UNL     1      -1.218   1.750   0.017  0.00  0.00    +0.046 A 
ATOM     26  C   UNL     1      -1.236   3.137   0.029  0.00  0.00    +0.124 A 
BRANCH  26  27
ATOM     27  O   UNL     1      -2.421   3.802   0.044  0.00  0.00    -0.495 OA
ATOM     28  C   UNL     1      -3.610   3.009   0.050  0.00  0.00    +0.277 C 
ENDBRANCH  26  27
ENDBRANCH   8  21
BRANCH   1  29
ATOM     29  S   UNL     1       2.629   7.321  -4.936  0.00  0.00    -0.088 S 
BRANCH  29  30
ATOM     30  C   UNL     1       1.315   7.021  -6.144  0.00  0.00    +0.077 C 
BRANCH  30  32
ATOM     31  C   UNL     1       0.679   7.205  -8.553  0.00  0.00    +0.004 C 
ATOM     32  C   UNL     1       1.789   7.458  -7.532  0.00  0.00    +0.008 C 
ENDBRANCH  30  32
ENDBRANCH  29  30
ENDBRANCH   1  29
TORSDOF 5
