REMARK  Name = ZINC18195682
REMARK  6 active torsions:
REMARK  status: ('A' for Active; 'I' for Inactive)
REMARK    1  A    between atoms: C_1  and  C_2
REMARK    2  A    between atoms: C_2  and  C_29
REMARK    3  A    between atoms: C_6  and  C_15
REMARK    4  A    between atoms: C_20  and  O_21
REMARK    5  A    between atoms: O_21  and  C_22
REMARK    6  A    between atoms: C_22  and  C_23
REMARK                            x       y       z     vdW  Elec       q    Type
REMARK                         _______ _______ _______ _____ _____    ______ ____
ROOT
ATOM      1  C   UNL     1      -0.019   1.526   0.010  0.00  0.00    +0.011 C 
ATOM      2  C   UNL     1       0.002  -0.004   0.002  0.00  0.00    -0.023 C 
ATOM      3  C   UNL     1       0.744  -0.503  -1.239  0.00  0.00    +0.058 C 
ATOM      4  C   UNL     1       2.174  -0.017  -1.210  0.00  0.00    +0.017 C 
ATOM      5  C   UNL     1       2.820   0.186  -0.043  0.00  0.00    +0.021 C 
ATOM      6  C   UNL     1       4.248   0.679   0.045  0.00  0.00    +0.076 C 
ATOM      7  C   UNL     1       5.000   0.359  -1.246  0.00  0.00    +0.153 C 
ATOM      8  C   UNL     1       4.054   0.741  -2.381  0.00  0.00    +0.130 C 
ATOM      9  N   UNL     1       4.641   1.615  -3.096  0.00  0.00    -0.168 NA
ATOM     10  N   UNL     1       5.895   1.963  -2.595  0.00  0.00    -0.205 N 
ATOM     11  C   UNL     1       6.175   1.290  -1.442  0.00  0.00    +0.243 C 
ATOM     12  O   UNL     1       7.147   1.409  -0.725  0.00  0.00    -0.273 OA
ATOM     13  N   UNL     1       2.780   0.197  -2.430  0.00  0.00    -0.304 N 
ATOM     14  C   UNL     1       2.169  -0.051   1.185  0.00  0.00    +0.162 C 
ATOM     15  O   UNL     1       2.777   0.126   2.222  0.00  0.00    -0.292 OA
ATOM     16  C   UNL     1       0.742  -0.518   1.242  0.00  0.00    +0.086 C 
ATOM     17  C   UNL     1      -1.431  -0.540  -0.002  0.00  0.00    +0.011 C 
ATOM     18  H   UNL     1       2.344  -0.019  -3.268  0.00  0.00    +0.153 HD
ATOM     19  H   UNL     1       6.495   2.599  -3.014  0.00  0.00    +0.177 HD
ENDROOT
BRANCH   6  20
ATOM     20  C   UNL     1       4.248   2.171   0.262  0.00  0.00    +0.003 A 
ATOM     21  C   UNL     1       3.657   3.004  -0.668  0.00  0.00    +0.008 A 
ATOM     22  C   UNL     1       3.657   4.372  -0.471  0.00  0.00    +0.001 A 
ATOM     23  C   UNL     1       4.248   4.910   0.658  0.00  0.00    +0.004 A 
ATOM     24  C   UNL     1       4.840   4.082   1.591  0.00  0.00    +0.046 A 
ATOM     25  C   UNL     1       4.836   2.708   1.397  0.00  0.00    +0.125 A 
BRANCH  25  26
ATOM     26  O   UNL     1       5.413   1.889   2.317  0.00  0.00    -0.480 OA
BRANCH  26  27
ATOM     27  C   UNL     1       6.000   2.512   3.461  0.00  0.00    +0.353 C 
BRANCH  27  28
ATOM     28  C   UNL     1       6.586   1.455   4.362  0.00  0.00    +0.393 C 
ATOM     29  O   UNL     1       6.508   0.279   4.053  0.00  0.00    -0.243 OA
ATOM     30  O   UNL     1       7.137   1.777   5.401  0.00  0.00    -0.243 OA
ENDBRANCH  27  28
ENDBRANCH  26  27
ENDBRANCH  25  26
ENDBRANCH   6  20
TORSDOF 4
