REMARK  Name = ZINC15610727
REMARK  6 active torsions:
REMARK  status: ('A' for Active; 'I' for Inactive)
REMARK    1  A    between atoms: C_1  and  O_2
REMARK    2  A    between atoms: O_2  and  C_3
REMARK    3  A    between atoms: C_5  and  C_12
REMARK    4  A    between atoms: C_7  and  O_10
REMARK    5  A    between atoms: O_10  and  C_11
REMARK    6  A    between atoms: N_14  and  C_15
REMARK                            x       y       z     vdW  Elec       q    Type
REMARK                         _______ _______ _______ _____ _____    ______ ____
ROOT
ATOM      1  C   UNL     1       4.888   3.179   5.810  0.00  0.00    +0.248 C 
ATOM      2  O   UNL     1       4.192   2.185   5.896  0.00  0.00    -0.270 OA
ATOM      3  N   UNL     1       5.365   3.565   4.610  0.00  0.00    -0.281 N 
ATOM      4  H   UNL     1       5.981   4.312   4.551  0.00  0.00    +0.155 HD
ENDROOT
BRANCH   3   5
ATOM      5  C   UNL     1       4.971   2.889   3.449  0.00  0.00    +0.037 A 
ATOM      6  C   UNL     1       5.860   2.751   2.391  0.00  0.00    +0.027 A 
ATOM      7  C   UNL     1       5.473   2.086   1.243  0.00  0.00    +0.051 A 
ATOM      8  C   UNL     1       4.199   1.554   1.146  0.00  0.00    +0.167 A 
ATOM      9  C   UNL     1       3.305   1.689   2.208  0.00  0.00    +0.169 A 
ATOM     10  C   UNL     1       3.692   2.356   3.356  0.00  0.00    +0.073 A 
ATOM     11  O   UNL     1       2.126   1.080   1.860  0.00  0.00    -0.447 OA
ATOM     12  C   UNL     1       2.182   1.029   0.432  0.00  0.00    +0.254 C 
ATOM     13  O   UNL     1       3.571   0.864   0.139  0.00  0.00    -0.448 OA
ATOM     14  C   UNL     1       1.604   2.296  -0.211  0.00  0.00    +0.093 C 
ATOM     15  C   UNL     1       0.086   2.019  -0.289  0.00  0.00    +0.008 C 
ATOM     16  C   UNL     1      -0.087   0.489  -0.243  0.00  0.00    +0.008 C 
ATOM     17  C   UNL     1       1.332  -0.114  -0.138  0.00  0.00    +0.093 C 
ENDBRANCH   3   5
BRANCH   1  20
ATOM     18  C   UNL     1       5.020   4.301   9.396  0.00  0.00    +0.138 A 
ATOM     19  C   UNL     1       4.716   3.564   8.264  0.00  0.00    +0.060 A 
ATOM     20  C   UNL     1       5.209   3.962   7.021  0.00  0.00    +0.044 A 
ATOM     21  C   UNL     1       6.012   5.100   6.925  0.00  0.00    +0.060 A 
ATOM     22  C   UNL     1       6.307   5.835   8.061  0.00  0.00    +0.138 A 
ATOM     23  C   UNL     1       5.814   5.435   9.295  0.00  0.00    +0.101 A 
ATOM     24 BR   UNL     1       6.225   6.439  10.845  0.00  0.00    -0.043 Br
BRANCH  18  26
ATOM     25  C   UNL     1       3.730   2.737  10.638  0.00  0.00    +0.277 C 
ATOM     26  O   UNL     1       4.540   3.914  10.607  0.00  0.00    -0.494 OA
ENDBRANCH  18  26
BRANCH  22  27
ATOM     27  O   UNL     1       7.084   6.946   7.968  0.00  0.00    -0.494 OA
ATOM     28  C   UNL     1       7.557   7.300   6.666  0.00  0.00    +0.277 C 
ENDBRANCH  22  27
ENDBRANCH   1  20
TORSDOF 4
