REMARK  Name = ZINC15957569
REMARK  5 active torsions:
REMARK  status: ('A' for Active; 'I' for Inactive)
REMARK    1  A    between atoms: C_1  and  C_2
REMARK    2  A    between atoms: C_2  and  C_3
REMARK    3  A    between atoms: C_17  and  C_20
REMARK    4  A    between atoms: C_20  and  C_21
REMARK    5  A    between atoms: N_29  and  C_32
REMARK                            x       y       z     vdW  Elec       q    Type
REMARK                         _______ _______ _______ _____ _____    ______ ____
ROOT
ATOM      1  C   UNL     1      -1.412  -0.526   0.013  0.00  0.00    -0.026 A 
ATOM      2  C   UNL     1      -2.011  -0.863   1.209  0.00  0.00    +0.005 A 
ATOM      3  C   UNL     1      -3.308  -1.342   1.229  0.00  0.00    +0.001 A 
ATOM      4  C   UNL     1      -4.008  -1.485   0.044  0.00  0.00    +0.008 A 
ATOM      5  C   UNL     1      -3.414  -1.149  -1.152  0.00  0.00    +0.004 A 
ATOM      6  C   UNL     1      -2.111  -0.661  -1.184  0.00  0.00    +0.042 A 
ATOM      7  N   UNL     1      -1.730  -0.387  -2.500  0.00  0.00    -0.283 N 
ATOM      8  C   UNL     1      -2.712  -0.660  -3.380  0.00  0.00    +0.243 C 
ATOM      9  O   UNL     1      -2.665  -0.520  -4.584  0.00  0.00    -0.273 OA
ATOM     10  C   UNL     1      -3.876  -1.181  -2.581  0.00  0.00    +0.136 C 
ATOM     11  C   UNL     1      -4.278  -2.597  -3.012  0.00  0.00    +0.122 C 
ATOM     12  C   UNL     1      -5.826  -2.621  -2.879  0.00  0.00    +0.107 C 
ATOM     13  C   UNL     1      -6.201  -1.219  -2.353  0.00  0.00    +0.072 C 
ATOM     14  N   UNL     1      -5.072  -0.342  -2.783  0.00  0.00    -0.295 NA
ATOM     15  C   UNL     1      -6.296  -2.776  -4.307  0.00  0.00    +0.227 C 
ATOM     16  O   UNL     1      -7.455  -2.829  -4.662  0.00  0.00    -0.275 OA
ATOM     17  N   UNL     1      -5.236  -2.844  -5.120  0.00  0.00    -0.238 N 
ATOM     18  C   UNL     1      -4.038  -2.763  -4.496  0.00  0.00    +0.228 C 
ATOM     19  O   UNL     1      -2.950  -2.811  -5.028  0.00  0.00    -0.275 OA
ATOM     20  H   UNL     1      -0.859  -0.041  -2.750  0.00  0.00    +0.155 HD
ATOM     21  H   UNL     1      -5.029   0.490  -2.213  0.00  0.00    +0.124 HD
ENDROOT
BRANCH  17  22
ATOM     22  C   UNL     1      -5.358  -3.002  -6.571  0.00  0.00    +0.084 C 
ATOM     23  C   UNL     1      -6.084  -1.769  -7.148  0.00  0.00    +0.023 C 
ATOM     24  C   UNL     1      -5.768  -1.671  -8.616  0.00  0.00    +0.002 C 
ATOM     25  C   UNL     1      -6.833  -2.353  -9.495  0.00  0.00    +0.000 C 
ATOM     26  C   UNL     1      -7.311  -3.699  -8.918  0.00  0.00    +0.000 C 
ATOM     27  C   UNL     1      -6.180  -4.523  -8.365  0.00  0.00    +0.002 C 
ATOM     28  C   UNL     1      -6.064  -4.243  -6.853  0.00  0.00    +0.023 C 
ENDBRANCH  17  22
BRANCH   1  30
ATOM     29  C   UNL     1      -0.019   1.526   0.010  0.00  0.00    +0.009 C 
ATOM     30  C   UNL     1       0.002  -0.004   0.002  0.00  0.00    +0.033 C 
ENDBRANCH   1  30
BRANCH  13  31
ATOM     31  C   UNL     1      -7.504  -0.740  -2.995  0.00  0.00    +0.054 C 
BRANCH  31  32
ATOM     32  C   UNL     1      -7.916   0.571  -2.378  0.00  0.00    -0.046 A 
ATOM     33  C   UNL     1      -8.727   0.584  -1.258  0.00  0.00    +0.004 A 
ATOM     34  C   UNL     1      -9.104   1.788  -0.692  0.00  0.00    +0.000 A 
ATOM     35  C   UNL     1      -8.671   2.978  -1.245  0.00  0.00    +0.000 A 
ATOM     36  C   UNL     1      -7.859   2.965  -2.364  0.00  0.00    +0.000 A 
ATOM     37  C   UNL     1      -7.478   1.762  -2.928  0.00  0.00    +0.004 A 
ENDBRANCH  31  32
ENDBRANCH  13  31
TORSDOF 4
