REMARK  Name = ZINC09610852
REMARK  10 active torsions:
REMARK  status: ('A' for Active; 'I' for Inactive)
REMARK    1  A    between atoms: C_1  and  C_2
REMARK    2  A    between atoms: C_7  and  S_11
REMARK    3  A    between atoms: S_11  and  N_14
REMARK    4  A    between atoms: N_14  and  C_15
REMARK    5  A    between atoms: C_15  and  C_17
REMARK    6  A    between atoms: C_15  and  C_21
REMARK    7  A    between atoms: C_17  and  C_18
REMARK    8  A    between atoms: C_18  and  C_19
REMARK    9  A    between atoms: C_18  and  C_20
REMARK   10  A    between atoms: N_26  and  C_29
REMARK                            x       y       z     vdW  Elec       q    Type
REMARK                         _______ _______ _______ _____ _____    ______ ____
ROOT
ATOM      1  C   UNL     1       5.739   3.327   2.318  0.00  0.00    +0.162 C 
ENDROOT
BRANCH   1   2
ATOM      2  C   UNL     1       5.059   3.481   3.654  0.00  0.00    +0.234 C 
ATOM      3  O   UNL     1       4.678   4.574   4.017  0.00  0.00    -0.274 OA
ATOM      4  N   UNL     1       4.874   2.406   4.444  0.00  0.00    -0.297 N 
ATOM      5  C   UNL     1       5.422   1.092   4.072  0.00  0.00    +0.126 C 
ATOM      6  C   UNL     1       6.214   0.544   5.269  0.00  0.00    +0.124 C 
ATOM      7  N   UNL     1       5.354   0.542   6.460  0.00  0.00    -0.327 N 
ATOM      8  C   UNL     1       4.953   1.907   6.829  0.00  0.00    +0.124 C 
ATOM      9  C   UNL     1       4.114   2.512   5.699  0.00  0.00    +0.126 C 
BRANCH   7  10
ATOM     10  C   UNL     1       5.980  -0.102   7.529  0.00  0.00    +0.031 A 
ATOM     11  C   UNL     1       6.152   0.562   8.738  0.00  0.00    +0.023 A 
ATOM     12  C   UNL     1       6.767  -0.079   9.795  0.00  0.00    +0.003 A 
ATOM     13  C   UNL     1       7.221  -1.377   9.649  0.00  0.00    +0.020 A 
ATOM     14  C   UNL     1       7.056  -2.040   8.446  0.00  0.00    +0.043 A 
ATOM     15  C   UNL     1       6.436  -1.406   7.385  0.00  0.00    +0.043 A 
ATOM     16 CL   UNL     1       7.627  -3.670   8.268  0.00  0.00    -0.083 Cl
ENDBRANCH   7  10
ENDBRANCH   1   2
BRANCH   1  17
ATOM     17  N   UNL     1       5.496   4.521   1.505  0.00  0.00    -0.178 NA
ATOM     18  H   UNL     1       5.837   5.382   1.793  0.00  0.00    +0.149 HD
BRANCH  17  19
ATOM     19  S   UNL     1       4.638   4.401   0.093  0.00  0.00    +0.059 S 
ATOM     20  O   UNL     1       5.230   3.346  -0.653  0.00  0.00    -0.153 OA
ATOM     21  O   UNL     1       4.513   5.720  -0.420  0.00  0.00    -0.153 OA
BRANCH  19  28
ATOM     22  C   UNL     1      -2.216   0.435   1.842  0.00  0.00    +0.073 C 
ATOM     23  C   UNL     1      -0.957   1.199   1.521  0.00  0.00    +0.076 A 
ATOM     24  N   UNL     1      -0.778   2.490   1.497  0.00  0.00    -0.244 NA
ATOM     25  C   UNL     1       0.410   3.051   1.192  0.00  0.00    +0.079 A 
ATOM     26  C   UNL     1       0.757   4.419   1.124  0.00  0.00    +0.031 A 
ATOM     27  C   UNL     1       2.022   4.799   0.795  0.00  0.00    +0.030 A 
ATOM     28  C   UNL     1       3.012   3.868   0.515  0.00  0.00    +0.106 A 
ATOM     29  C   UNL     1       2.713   2.520   0.571  0.00  0.00    +0.045 A 
ATOM     30  C   UNL     1       1.439   2.126   0.902  0.00  0.00    +0.041 A 
ATOM     31  S   UNL     1       0.605   0.571   1.095  0.00  0.00    -0.072 S 
ENDBRANCH  19  28
ENDBRANCH  17  19
ENDBRANCH   1  17
BRANCH   1  32
ATOM     32  C   UNL     1       7.245   3.153   2.529  0.00  0.00    +0.032 C 
BRANCH  32  33
ATOM     33  C   UNL     1       7.930   2.954   1.176  0.00  0.00    -0.015 C 
ATOM     34  C   UNL     1       9.447   2.913   1.374  0.00  0.00    +0.007 C 
ATOM     35  C   UNL     1       7.461   1.637   0.555  0.00  0.00    +0.007 C 
ENDBRANCH  32  33
ENDBRANCH   1  32
TORSDOF 7
