REMARK  Name = ZINC39785471
REMARK  9 active torsions:
REMARK  status: ('A' for Active; 'I' for Inactive)
REMARK    1  A    between atoms: C_1  and  C_2
REMARK    2  A    between atoms: C_3  and  C_26
REMARK    3  A    between atoms: C_4  and  C_25
REMARK    4  A    between atoms: C_7  and  C_8
REMARK    5  A    between atoms: C_8  and  C_10
REMARK    6  A    between atoms: C_10  and  C_12
REMARK    7  A    between atoms: C_10  and  S_13
REMARK    8  A    between atoms: S_13  and  C_14
REMARK    9  A    between atoms: C_26  and  C_28
REMARK                            x       y       z     vdW  Elec       q    Type
REMARK                         _______ _______ _______ _____ _____    ______ ____
ROOT
ATOM      1  C   UNL     1      -0.664  -1.623   3.451  0.00  0.00    +0.119 C 
ATOM      2  C   UNL     1       0.710  -2.032   3.986  0.00  0.00    +0.027 C 
ENDROOT
BRANCH   1   3
ATOM      3  C   UNL     1      -0.496  -0.554   2.402  0.00  0.00    +0.192 C 
ATOM      4  O   UNL     1      -0.588   0.617   2.709  0.00  0.00    -0.289 OA
BRANCH   3  11
ATOM      5  C   UNL     1      -0.113   1.461   0.067  0.00  0.00    +0.047 C 
ATOM      6  C   UNL     1      -0.057  -0.044   0.007  0.00  0.00    -0.012 A 
ATOM      7  C   UNL     1       0.190  -0.833  -1.140  0.00  0.00    +0.041 A 
ATOM      8  C   UNL     1       0.150  -2.160  -0.739  0.00  0.00    +0.024 A 
ATOM      9  N   UNL     1      -0.105  -2.203   0.576  0.00  0.00    -0.355 N 
ATOM     10  H   UNL     1      -0.185  -3.011   1.106  0.00  0.00    +0.166 HD
ATOM     11  C   UNL     1      -0.231  -0.915   1.059  0.00  0.00    +0.087 A 
ATOM     12  C   UNL     1       0.360  -3.355  -1.633  0.00  0.00    +0.064 C 
BRANCH   7  13
ATOM     13  C   UNL     1       0.441  -0.340  -2.499  0.00  0.00    +0.162 C 
ATOM     14  O   UNL     1      -0.487  -0.160  -3.259  0.00  0.00    -0.292 OA
ATOM     15  C   UNL     1       1.851  -0.058  -2.950  0.00  0.00    +0.091 C 
ENDBRANCH   7  13
ENDBRANCH   3  11
ENDBRANCH   1   3
BRANCH   1  16
ATOM     16  S   UNL     1      -1.676  -0.981   4.812  0.00  0.00    -0.107 S 
BRANCH  16  17
ATOM     17  C   UNL     1      -1.909  -2.414   5.900  0.00  0.00    +0.237 C 
ATOM     18  N   UNL     1      -0.605  -2.971   6.312  0.00  0.00    -0.238 N 
ATOM     19  N   UNL     1      -0.576  -4.289   5.836  0.00  0.00    -0.174 NA
ATOM     20  C   UNL     1      -1.648  -4.593   5.207  0.00  0.00    +0.117 C 
ATOM     21  N   UNL     1      -2.539  -3.512   5.175  0.00  0.00    -0.289 N 
ATOM     22  C   UNL     1      -3.844  -3.555   4.500  0.00  0.00    +0.109 C 
ATOM     23  C   UNL     1      -4.742  -4.522   5.280  0.00  0.00    +0.019 C 
ATOM     24  C   UNL     1      -4.492  -5.957   4.880  0.00  0.00    +0.002 C 
ATOM     25  C   UNL     1      -3.170  -6.530   5.333  0.00  0.00    +0.008 C 
ATOM     26  C   UNL     1      -1.985  -5.927   4.562  0.00  0.00    +0.073 C 
ATOM     27  H   UNL     1       0.091  -2.516   6.811  0.00  0.00    +0.171 HD
ENDBRANCH  16  17
ENDBRANCH   1  16
TORSDOF 5
