REMARK  Name = ZINC09081045
REMARK  15 active torsions:
REMARK  status: ('A' for Active; 'I' for Inactive)
REMARK    1  A    between atoms: C_1  and  C_2
REMARK    2  A    between atoms: C_4  and  S_10
REMARK    3  A    between atoms: C_7  and  O_8
REMARK    4  A    between atoms: O_8  and  C_9
REMARK    5  A    between atoms: S_10  and  N_13
REMARK    6  A    between atoms: N_13  and  C_14
REMARK    7  A    between atoms: C_14  and  C_15
REMARK    8  A    between atoms: C_15  and  C_17
REMARK    9  A    between atoms: C_15  and  S_26
REMARK   10  A    between atoms: C_20  and  N_23
REMARK   11  A    between atoms: N_23  and  C_24
REMARK   12  A    between atoms: N_23  and  C_25
REMARK   13  A    between atoms: S_26  and  C_29
REMARK   14  A    between atoms: C_32  and  O_35
REMARK   15  A    between atoms: O_35  and  C_36
REMARK                            x       y       z     vdW  Elec       q    Type
REMARK                         _______ _______ _______ _____ _____    ______ ____
ROOT
ATOM      1  C   UNL     1      -4.254   3.582  -3.645  0.00  0.00    +0.181 C 
ENDROOT
BRANCH   1   2
ATOM      2  C   UNL     1      -4.572   2.405  -4.531  0.00  0.00    -0.022 A 
ATOM      3  C   UNL     1      -5.369   1.379  -4.055  0.00  0.00    +0.007 A 
ATOM      4  C   UNL     1      -5.667   0.302  -4.866  0.00  0.00    +0.023 A 
ATOM      5  C   UNL     1      -5.157   0.244  -6.157  0.00  0.00    +0.029 A 
ATOM      6  C   UNL     1      -4.353   1.274  -6.630  0.00  0.00    +0.023 A 
ATOM      7  C   UNL     1      -4.063   2.351  -5.815  0.00  0.00    +0.007 A 
BRANCH   5   8
ATOM      8  N   UNL     1      -5.452  -0.846  -6.978  0.00  0.00    -0.336 N 
ATOM      9  C   UNL     1      -4.913  -0.906  -8.339  0.00  0.00    +0.129 C 
ATOM     10  C   UNL     1      -6.301  -1.931  -6.478  0.00  0.00    +0.129 C 
ENDBRANCH   5   8
ENDBRANCH   1   2
BRANCH   1  11
ATOM     11  S   UNL     1      -5.794   4.414  -3.168  0.00  0.00    +0.005 S 
ATOM     12  O   UNL     1      -6.664   3.498  -2.518  0.00  0.00    -0.169 OA
ATOM     13  O   UNL     1      -5.507   5.678  -2.586  0.00  0.00    -0.169 OA
BRANCH  11  14
ATOM     14  C   UNL     1      -6.595   4.792  -4.691  0.00  0.00    +0.089 A 
ATOM     15  C   UNL     1      -6.352   6.000  -5.318  0.00  0.00    +0.030 A 
ATOM     16  C   UNL     1      -6.974   6.296  -6.515  0.00  0.00    +0.047 A 
ATOM     17  C   UNL     1      -7.853   5.385  -7.082  0.00  0.00    +0.120 A 
ATOM     18  C   UNL     1      -8.100   4.175  -6.449  0.00  0.00    +0.047 A 
ATOM     19  C   UNL     1      -7.470   3.882  -5.254  0.00  0.00    +0.030 A 
BRANCH  17  20
ATOM     20  O   UNL     1      -8.470   5.676  -8.257  0.00  0.00    -0.495 OA
ATOM     21  C   UNL     1      -8.169   6.939  -8.853  0.00  0.00    +0.277 C 
ENDBRANCH  17  20
ENDBRANCH  11  14
ENDBRANCH   1  11
BRANCH   1  22
ATOM     22  C   UNL     1      -3.528   3.094  -2.389  0.00  0.00    +0.137 C 
BRANCH  22  23
ATOM     23  N   UNL     1      -3.218   4.238  -1.528  0.00  0.00    -0.188 NA
ATOM     24  H   UNL     1      -3.272   5.139  -1.882  0.00  0.00    +0.148 HD
BRANCH  23  25
ATOM     25  S   UNL     1      -2.776   3.991   0.048  0.00  0.00    +0.058 S 
ATOM     26  O   UNL     1      -3.732   3.099   0.604  0.00  0.00    -0.153 OA
ATOM     27  O   UNL     1      -2.519   5.274   0.603  0.00  0.00    -0.153 OA
BRANCH  25  31
ATOM     28  C   UNL     1       2.449   3.948  -0.000  0.00  0.00    +0.047 C 
ATOM     29  C   UNL     1       1.157   3.173   0.008  0.00  0.00    -0.007 A 
ATOM     30  C   UNL     1      -0.051   3.844   0.022  0.00  0.00    +0.035 A 
ATOM     31  C   UNL     1      -1.237   3.133   0.030  0.00  0.00    +0.106 A 
ATOM     32  C   UNL     1      -1.218   1.751   0.017  0.00  0.00    +0.032 A 
ATOM     33  C   UNL     1      -0.013   1.076   0.008  0.00  0.00    +0.048 A 
ATOM     34  C   UNL     1       1.179   1.786   0.000  0.00  0.00    +0.123 A 
BRANCH  34  35
ATOM     35  O   UNL     1       2.366   1.125  -0.015  0.00  0.00    -0.495 OA
ATOM     36  C   UNL     1       2.313  -0.303  -0.022  0.00  0.00    +0.277 C 
ENDBRANCH  34  35
ENDBRANCH  25  31
ENDBRANCH  23  25
ENDBRANCH  22  23
ENDBRANCH   1  22
TORSDOF 10
