REMARK  Name = ZINC67267013
REMARK  3 active torsions:
REMARK  status: ('A' for Active; 'I' for Inactive)
REMARK    1  A    between atoms: C_3  and  C_6
REMARK    2  A    between atoms: C_6  and  N_7
REMARK    3  A    between atoms: C_14  and  C_16
REMARK                            x       y       z     vdW  Elec       q    Type
REMARK                         _______ _______ _______ _____ _____    ______ ____
ROOT
ATOM      1  N   UNL     1       3.997   2.780   2.794  0.00  0.00    +0.384 N 
ATOM      2  C   UNL     1       5.269   3.482   2.949  0.00  0.00    -0.077 C 
ATOM      3  C   UNL     1       5.607   3.584   4.420  0.00  0.00    +0.000 C 
ATOM      4  C   UNL     1       6.502   2.398   4.824  0.00  0.00    +0.106 C 
ATOM      5  N   UNL     1       6.059   1.151   4.168  0.00  0.00    -0.303 N 
ATOM      6  C   UNL     1       4.660   0.800   4.034  0.00  0.00    +0.089 C 
ATOM      7  C   UNL     1       4.099   1.373   2.712  0.00  0.00    -0.059 C 
ATOM      8  C   UNL     1       6.990   0.310   3.675  0.00  0.00    +0.219 C 
ATOM      9  O   UNL     1       6.656  -0.760   3.211  0.00  0.00    -0.275 OA
ATOM     10  H   UNL     1       3.411   3.011   3.582  0.00  0.00    -0.081 HD
ENDROOT
BRANCH   8  11
ATOM     11  C   UNL     1       8.446   0.699   3.701  0.00  0.00    +0.075 C 
ATOM     12  C   UNL     1       8.765   1.561   2.478  0.00  0.00    +0.015 C 
ATOM     13  C   UNL     1      10.241   1.966   2.512  0.00  0.00    +0.036 C 
ATOM     14  C   UNL     1      11.114   0.716   2.514  0.00  0.00    +0.112 C 
ATOM     15  C   UNL     1      10.789  -0.167   3.714  0.00  0.00    +0.036 C 
ATOM     16  C   UNL     1       9.311  -0.563   3.675  0.00  0.00    +0.015 C 
ATOM     17  C   UNL     1      10.934  -0.056   1.227  0.00  0.00    +0.244 C 
ATOM     18  O   UNL     1       9.913  -0.555   0.807  0.00  0.00    -0.273 OA
ATOM     19  N   UNL     1      12.151  -0.072   0.644  0.00  0.00    -0.238 N 
ATOM     20  C   UNL     1      13.060   0.578   1.382  0.00  0.00    +0.307 C 
ATOM     21  O   UNL     1      14.227   0.698   1.064  0.00  0.00    -0.252 OA
ATOM     22  N   UNL     1      12.536   1.082   2.515  0.00  0.00    -0.285 N 
ATOM     23  H   UNL     1      12.343  -0.501  -0.204  0.00  0.00    +0.159 HD
ATOM     24  H   UNL     1      13.005   1.587   3.197  0.00  0.00    +0.151 HD
ENDBRANCH   8  11
BRANCH   1  25
ATOM     25  C   UNL     1       3.344   3.269   1.572  0.00  0.00    -0.036 C 
BRANCH  25  28
ATOM     26  C   UNL     1      -0.407   2.663   1.844  0.00  0.00    +0.008 A 
ATOM     27  C   UNL     1       0.797   3.321   2.010  0.00  0.00    +0.009 A 
ATOM     28  C   UNL     1       1.928   2.756   1.521  0.00  0.00    -0.027 A 
ATOM     29  S   UNL     1       1.304   1.247   0.798  0.00  0.00    -0.103 S 
ATOM     30  C   UNL     1      -0.422   1.472   1.197  0.00  0.00    +0.045 A 
ENDBRANCH  25  28
ENDBRANCH   1  25
TORSDOF 3
