REMARK  Name = ZINC49506597
REMARK  11 active torsions:
REMARK  status: ('A' for Active; 'I' for Inactive)
REMARK    1  A    between atoms: C_1  and  O_2
REMARK    2  A    between atoms: O_2  and  C_3
REMARK    3  A    between atoms: C_6  and  S_9
REMARK    4  A    between atoms: S_9  and  N_12
REMARK    5  A    between atoms: C_20  and  N_22
REMARK    6  A    between atoms: N_22  and  S_23
REMARK    7  A    between atoms: S_23  and  C_26
REMARK    8  A    between atoms: C_29  and  O_34
REMARK    9  A    between atoms: C_30  and  O_32
REMARK   10  A    between atoms: O_32  and  C_33
REMARK   11  A    between atoms: O_34  and  C_35
REMARK                            x       y       z     vdW  Elec       q    Type
REMARK                         _______ _______ _______ _____ _____    ______ ____
ROOT
ATOM      1  N   UNL     1       4.211  -2.826  -4.180  0.00  0.00    -0.203 N 
ATOM      2  C   UNL     1       5.219  -1.835  -4.582  0.00  0.00    +0.132 C 
ATOM      3  C   UNL     1       6.434  -2.597  -5.126  0.00  0.00    +0.025 C 
ATOM      4  C   UNL     1       7.031  -3.442  -4.002  0.00  0.00    +0.039 C 
ATOM      5  C   UNL     1       5.964  -4.280  -3.348  0.00  0.00    -0.023 A 
ATOM      6  C   UNL     1       4.620  -3.950  -3.447  0.00  0.00    +0.055 A 
ATOM      7  C   UNL     1       3.659  -4.737  -2.824  0.00  0.00    +0.027 A 
ATOM      8  C   UNL     1       4.037  -5.850  -2.100  0.00  0.00    +0.026 A 
ATOM      9  C   UNL     1       5.381  -6.182  -1.995  0.00  0.00    +0.048 A 
ATOM     10  C   UNL     1       6.342  -5.400  -2.627  0.00  0.00    +0.030 A 
ENDROOT
BRANCH   1  11
ATOM     11  S   UNL     1       2.618  -2.616  -4.580  0.00  0.00    +0.075 S 
ATOM     12  O   UNL     1       2.052  -3.915  -4.687  0.00  0.00    -0.150 OA
ATOM     13  O   UNL     1       2.587  -1.681  -5.649  0.00  0.00    -0.150 OA
BRANCH  11  17
ATOM     14  C   UNL     1       0.604  -0.615  -1.052  0.00  0.00    +0.120 A 
ATOM     15  C   UNL     1       1.171   0.155  -2.058  0.00  0.00    +0.047 A 
ATOM     16  C   UNL     1       1.785  -0.458  -3.132  0.00  0.00    +0.032 A 
ATOM     17  C   UNL     1       1.835  -1.838  -3.207  0.00  0.00    +0.109 A 
ATOM     18  C   UNL     1       1.270  -2.607  -2.207  0.00  0.00    +0.032 A 
ATOM     19  C   UNL     1       0.660  -1.999  -1.127  0.00  0.00    +0.047 A 
BRANCH  14  21
ATOM     20  C   UNL     1      -0.020   1.415   0.017  0.00  0.00    +0.277 C 
ATOM     21  O   UNL     1      -0.000  -0.014   0.006  0.00  0.00    -0.495 OA
ENDBRANCH  14  21
ENDBRANCH  11  17
ENDBRANCH   1  11
BRANCH   9  22
ATOM     22  N   UNL     1       5.768  -7.311  -1.263  0.00  0.00    -0.216 N 
ATOM     23  H   UNL     1       6.516  -7.256  -0.647  0.00  0.00    +0.174 HD
BRANCH  22  24
ATOM     24  S   UNL     1       4.950  -8.738  -1.448  0.00  0.00    +0.072 S 
ATOM     25  O   UNL     1       5.590  -9.685  -0.603  0.00  0.00    -0.150 OA
ATOM     26  O   UNL     1       3.567  -8.431  -1.338  0.00  0.00    -0.150 OA
BRANCH  24  27
ATOM     27  C   UNL     1       5.216  -9.280  -3.103  0.00  0.00    +0.112 A 
ATOM     28  C   UNL     1       4.350  -8.885  -4.106  0.00  0.00    +0.032 A 
ATOM     29  C   UNL     1       4.554  -9.307  -5.406  0.00  0.00    +0.051 A 
ATOM     30  C   UNL     1       5.628 -10.129  -5.707  0.00  0.00    +0.162 A 
ATOM     31  C   UNL     1       6.500 -10.527  -4.698  0.00  0.00    +0.163 A 
ATOM     32  C   UNL     1       6.293 -10.096  -3.397  0.00  0.00    +0.078 A 
BRANCH  31  33
ATOM     33  O   UNL     1       7.556 -11.333  -4.988  0.00  0.00    -0.491 OA
ATOM     34  C   UNL     1       8.409 -11.702  -3.902  0.00  0.00    +0.277 C 
ENDBRANCH  31  33
BRANCH  30  35
ATOM     35  O   UNL     1       5.830 -10.546  -6.986  0.00  0.00    -0.491 OA
ATOM     36  C   UNL     1       4.896 -10.099  -7.969  0.00  0.00    +0.277 C 
ENDBRANCH  30  35
ENDBRANCH  24  27
ENDBRANCH  22  24
ENDBRANCH   9  22
TORSDOF 8
