REMARK  Name = ZINC00325074
REMARK  2 active torsions:
REMARK  status: ('A' for Active; 'I' for Inactive)
REMARK    1  A    between atoms: C_9  and  C_13
REMARK    2  A    between atoms: C_13  and  N_15
REMARK                            x       y       z     vdW  Elec       q    Type
REMARK                         _______ _______ _______ _____ _____    ______ ____
ROOT
ATOM      1  C   UNL     1      -0.017   1.385   0.010  0.00  0.00    +0.019 A 
ATOM      2  C   UNL     1       1.161   2.103   0.002  0.00  0.00    +0.048 A 
ATOM      3  C   UNL     1       2.379   1.438  -0.006  0.00  0.00    +0.139 A 
ATOM      4  C   UNL     1       2.404   0.031   0.014  0.00  0.00    +0.019 A 
ATOM      5  C   UNL     1       1.198  -0.684  -0.001  0.00  0.00    +0.026 A 
ATOM      6  C   UNL     1       0.002  -0.004   0.002  0.00  0.00    +0.019 A 
ATOM      7 BR   UNL     1      -1.626  -0.966  -0.004  0.00  0.00    -0.050 Br
ATOM      8  C   UNL     1       3.646  -0.653   0.070  0.00  0.00    +0.029 A 
ATOM      9  C   UNL     1       4.794   0.094   0.299  0.00  0.00    +0.088 A 
ATOM     10  C   UNL     1       4.628   1.546   0.500  0.00  0.00    +0.347 A 
ATOM     11  O   UNL     1       5.443   2.189   1.134  0.00  0.00    -0.244 OA
ATOM     12  O   UNL     1       3.540   2.137  -0.043  0.00  0.00    -0.422 OA
ENDROOT
BRANCH   9  13
ATOM     13  C   UNL     1       6.122  -0.537   0.338  0.00  0.00    +0.084 C 
ATOM     14  S   UNL     1       6.274  -2.226   0.100  0.00  0.00    -0.035 S 
BRANCH  13  15
ATOM     15  N   UNL     1       7.218   0.213   0.562  0.00  0.00    -0.352 N 
ATOM     16  H   UNL     1       7.132   1.170   0.697  0.00  0.00    +0.143 HD
ATOM     17  H   UNL     1       8.094  -0.203   0.589  0.00  0.00    +0.143 HD
ENDBRANCH  13  15
ENDBRANCH   9  13
TORSDOF 2
