REMARK  Name = ZINC06300712
REMARK  6 active torsions:
REMARK  status: ('A' for Active; 'I' for Inactive)
REMARK    1  A    between atoms: C_1  and  C_2
REMARK    2  A    between atoms: C_4  and  C_36
REMARK    3  A    between atoms: C_9  and  C_14
REMARK    4  A    between atoms: C_14  and  C_16
REMARK    5  A    between atoms: C_14  and  N_67
REMARK    6  A    between atoms: N_20  and  C_21
REMARK                            x       y       z     vdW  Elec       q    Type
REMARK                         _______ _______ _______ _____ _____    ______ ____
ROOT
ATOM      1  C   UNL     1      -1.331   7.432   0.053  0.00  0.00    +0.039 C 
ENDROOT
BRANCH   1  10
ATOM      2  C   UNL     1       2.491   1.029  -0.016  0.00  0.00    +0.044 C 
ATOM      3  C   UNL     1       1.185   1.779   0.000  0.00  0.00    -0.050 A 
ATOM      4  C   UNL     1      -0.013   1.076   0.008  0.00  0.00    +0.008 A 
ATOM      5  C   UNL     1      -1.219   1.741   0.017  0.00  0.00    -0.026 A 
ATOM      6  C   UNL     1      -1.240   3.132   0.031  0.00  0.00    +0.052 A 
ATOM      7  C   UNL     1      -0.025   3.842   0.023  0.00  0.00    -0.001 A 
ATOM      8  C   UNL     1       1.188   3.145   0.008  0.00  0.00    +0.013 A 
ATOM      9  C   UNL     1      -0.057   5.306   0.031  0.00  0.00    +0.017 A 
ATOM     10  C   UNL     1      -1.263   5.926   0.045  0.00  0.00    +0.011 A 
ATOM     11  C   UNL     1      -2.453   5.168   0.052  0.00  0.00    +0.251 A 
ATOM     12  O   UNL     1      -3.526   5.746   0.065  0.00  0.00    -0.268 OA
ATOM     13  N   UNL     1      -2.433   3.824   0.045  0.00  0.00    -0.322 N 
ATOM     14  H   UNL     1      -3.270   3.333   0.050  0.00  0.00    +0.169 HD
ATOM     15  C   UNL     1      -2.511   0.965   0.019  0.00  0.00    +0.046 C 
ENDBRANCH   1  10
BRANCH   1  25
ATOM     16  C   UNL     1      -2.208   9.348   1.250  0.00  0.00    -0.072 C 
ATOM     17  C   UNL     1      -3.330   9.745   2.209  0.00  0.00    +0.017 C 
ATOM     18  C   UNL     1      -3.174   9.012   3.517  0.00  0.00    -0.048 A 
ATOM     19  C   UNL     1      -3.862   9.481   4.625  0.00  0.00    +0.004 A 
ATOM     20  C   UNL     1      -3.753   8.834   5.840  0.00  0.00    +0.000 A 
ATOM     21  C   UNL     1      -2.953   7.712   5.951  0.00  0.00    +0.000 A 
ATOM     22  C   UNL     1      -2.266   7.245   4.849  0.00  0.00    +0.002 A 
ATOM     23  C   UNL     1      -2.373   7.895   3.628  0.00  0.00    -0.061 A 
ATOM     24  C   UNL     1      -1.601   7.350   2.455  0.00  0.00    -0.041 C 
ATOM     25  N   UNL     1      -2.160   7.873   1.198  0.00  0.00    +0.392 N 
ATOM     26  H   UNL     1      -3.114   7.511   1.079  0.00  0.00    -0.080 HD
ENDBRANCH   1  25
BRANCH   1  27
ATOM     27  C   UNL     1      -1.966   7.913  -1.227  0.00  0.00    +0.143 A 
ATOM     28  N   UNL     1      -3.239   7.861  -1.536  0.00  0.00    -0.115 NA
ATOM     29  N   UNL     1      -3.383   8.369  -2.712  0.00  0.00    -0.023 NA
ATOM     30  N   UNL     1      -2.236   8.744  -3.159  0.00  0.00    -0.044 NA
ATOM     31  N   UNL     1      -1.337   8.484  -2.271  0.00  0.00    -0.227 N 
BRANCH  31  32
ATOM     32  C   UNL     1       0.098   8.757  -2.379  0.00  0.00    +0.111 C 
ATOM     33  C   UNL     1       0.319  10.259  -2.561  0.00  0.00    +0.027 C 
ATOM     34  C   UNL     1       1.818  10.544  -2.674  0.00  0.00    +0.002 C 
ATOM     35  C   UNL     1       2.390   9.794  -3.879  0.00  0.00    +0.000 C 
ATOM     36  C   UNL     1       2.169   8.291  -3.696  0.00  0.00    +0.002 C 
ATOM     37  C   UNL     1       0.670   8.007  -3.583  0.00  0.00    +0.027 C 
ENDBRANCH  31  32
ENDBRANCH   1  27
TORSDOF 4
