REMARK  Name = ZINC07172517
REMARK  9 active torsions:
REMARK  status: ('A' for Active; 'I' for Inactive)
REMARK    1  A    between atoms: C_1  and  C_2
REMARK    2  A    between atoms: C_2  and  C_4
REMARK    3  A    between atoms: C_2  and  S_17
REMARK    4  A    between atoms: N_6  and  C_7
REMARK    5  A    between atoms: C_11  and  S_13
REMARK    6  A    between atoms: S_13  and  N_16
REMARK    7  A    between atoms: S_17  and  C_18
REMARK    8  A    between atoms: C_21  and  C_24
REMARK    9  A    between atoms: N_22  and  C_23
REMARK                            x       y       z     vdW  Elec       q    Type
REMARK                         _______ _______ _______ _____ _____    ______ ____
ROOT
ATOM      1  C   UNL     1      -5.960   1.994   0.202  0.00  0.00    +0.230 C 
ATOM      2  O   UNL     1      -5.861   1.921  -1.005  0.00  0.00    -0.274 OA
ATOM      3  N   UNL     1      -7.174   1.921   0.784  0.00  0.00    -0.285 N 
ATOM      4  H   UNL     1      -7.248   1.911   1.751  0.00  0.00    +0.155 HD
ENDROOT
BRANCH   3   5
ATOM      5  C   UNL     1      -8.326   1.858  -0.007  0.00  0.00    +0.035 A 
ATOM      6  C   UNL     1      -8.305   1.173  -1.215  0.00  0.00    +0.023 A 
ATOM      7  C   UNL     1      -9.444   1.114  -1.993  0.00  0.00    +0.004 A 
ATOM      8  C   UNL     1     -10.606   1.734  -1.571  0.00  0.00    +0.028 A 
ATOM      9  C   UNL     1     -10.630   2.417  -0.368  0.00  0.00    +0.107 A 
ATOM     10  C   UNL     1      -9.495   2.475   0.417  0.00  0.00    +0.051 A 
BRANCH   9  11
ATOM     11  S   UNL     1     -12.112   3.205   0.166  0.00  0.00    +0.056 S 
ATOM     12  O   UNL     1     -11.723   4.237   1.062  0.00  0.00    -0.153 OA
ATOM     13  O   UNL     1     -12.880   3.461  -1.002  0.00  0.00    -0.153 OA
BRANCH  11  14
ATOM     14  N   UNL     1     -12.962   2.099   1.058  0.00  0.00    -0.204 NA
ATOM     15  H   UNL     1     -13.541   2.397   1.777  0.00  0.00    +0.144 HD
ATOM     16  H   UNL     1     -12.881   1.152   0.862  0.00  0.00    +0.144 HD
ENDBRANCH  11  14
ENDBRANCH   9  11
ENDBRANCH   3   5
BRANCH   1  18
ATOM     17  C   UNL     1      -4.582   3.637   1.448  0.00  0.00    +0.029 C 
ATOM     18  C   UNL     1      -4.727   2.166   1.050  0.00  0.00    +0.137 C 
BRANCH  18  19
ATOM     19  S   UNL     1      -3.270   1.650   0.109  0.00  0.00    -0.074 S 
BRANCH  19  20
ATOM     20  C   UNL     1      -2.031   1.806   1.352  0.00  0.00    +0.192 A 
ATOM     21  N   UNL     1      -2.214   2.195   2.592  0.00  0.00    -0.122 NA
ATOM     22  N   UNL     1      -1.093   2.197   3.219  0.00  0.00    -0.133 NA
ATOM     23  C   UNL     1      -0.135   1.809   2.425  0.00  0.00    +0.137 A 
ATOM     24  N   UNL     1      -0.699   1.542   1.208  0.00  0.00    -0.309 N 
ATOM     25  C   UNL     1      -0.015   1.077  -0.001  0.00  0.00    +0.152 C 
BRANCH  23  26
ATOM     26  C   UNL     1       1.323   1.678   2.782  0.00  0.00    +0.057 C 
ATOM     27  C   UNL     1       1.707   1.831   4.255  0.00  0.00    +0.012 C 
ATOM     28  C   UNL     1       2.050   2.938   3.255  0.00  0.00    +0.012 C 
ENDBRANCH  23  26
ENDBRANCH  19  20
ENDBRANCH  18  19
ENDBRANCH   1  18
TORSDOF 7
