REMARK  Name = ZINC01277750
REMARK  6 active torsions:
REMARK  status: ('A' for Active; 'I' for Inactive)
REMARK    1  A    between atoms: C_1  and  C_2
REMARK    2  A    between atoms: C_4  and  C_19
REMARK    3  A    between atoms: N_17  and  O_18
REMARK    4  A    between atoms: C_19  and  C_20
REMARK    5  A    between atoms: C_20  and  C_21
REMARK    6  A    between atoms: C_20  and  C_22
REMARK                            x       y       z     vdW  Elec       q    Type
REMARK                         _______ _______ _______ _____ _____    ______ ____
ROOT
ATOM      1  C   UNL     1      -3.402   4.126   0.032  0.00  0.00    +0.067 C 
ATOM      2  C   UNL     1      -1.897   4.205   0.022  0.00  0.00    +0.061 A 
ATOM      3  C   UNL     1      -1.138   5.382   0.019  0.00  0.00    +0.048 A 
ATOM      4  C   UNL     1       0.169   5.036   0.010  0.00  0.00    +0.049 A 
ATOM      5  N   UNL     1       0.234   3.677   0.008  0.00  0.00    -0.201 N 
ATOM      6  N   UNL     1      -1.078   3.186   0.011  0.00  0.00    -0.169 NA
ATOM      7  C   UNL     1       1.392   2.915  -0.001  0.00  0.00    +0.269 A 
ATOM      8  N   UNL     1       2.543   3.532  -0.003  0.00  0.00    -0.209 NA
ATOM      9  C   UNL     1       3.713   2.851  -0.018  0.00  0.00    +0.080 A 
ATOM     10  C   UNL     1       4.945   3.511  -0.027  0.00  0.00    +0.028 A 
ATOM     11  C   UNL     1       6.104   2.787  -0.042  0.00  0.00    +0.002 A 
ATOM     12  C   UNL     1       6.078   1.398  -0.049  0.00  0.00    +0.001 A 
ATOM     13  C   UNL     1       4.880   0.719  -0.041  0.00  0.00    +0.015 A 
ATOM     14  C   UNL     1       3.686   1.438  -0.025  0.00  0.00    +0.068 A 
ATOM     15  C   UNL     1       2.376   0.771  -0.017  0.00  0.00    +0.296 A 
ATOM     16  O   UNL     1       2.286  -0.443  -0.022  0.00  0.00    -0.264 OA
ATOM     17  N   UNL     1       1.275   1.556  -0.002  0.00  0.00    -0.108 N 
ENDROOT
BRANCH  17  18
ATOM     18  O   UNL     1      -0.011   0.963   0.007  0.00  0.00    -0.420 OA
ATOM     19  H   UNL     1       0.002  -0.004   0.002  0.00  0.00    +0.326 HD
ENDBRANCH  17  18
BRANCH   4  20
ATOM     20  C   UNL     1       1.341   5.984   0.003  0.00  0.00    +0.058 C 
BRANCH  20  21
ATOM     21  C   UNL     1       1.668   6.401   1.438  0.00  0.00    -0.011 C 
ATOM     22  C   UNL     1       2.140   5.179   2.229  0.00  0.00    +0.007 C 
ATOM     23  C   UNL     1       2.775   7.457   1.422  0.00  0.00    +0.007 C 
ENDBRANCH  20  21
ENDBRANCH   4  20
TORSDOF 3
