REMARK  Name = ZINC22502768
REMARK  7 active torsions:
REMARK  status: ('A' for Active; 'I' for Inactive)
REMARK    1  A    between atoms: C_1  and  C_2
REMARK    2  A    between atoms: C_2  and  C_3
REMARK    3  A    between atoms: C_2  and  C_4
REMARK    4  A    between atoms: C_6  and  C_10
REMARK    5  A    between atoms: C_16  and  C_18
REMARK    6  A    between atoms: C_18  and  C_19
REMARK    7  A    between atoms: C_19  and  N_20
REMARK                            x       y       z     vdW  Elec       q    Type
REMARK                         _______ _______ _______ _____ _____    ______ ____
ROOT
ATOM      1  C   UNL     1       1.748   3.227   0.003  0.00  0.00    +0.203 A 
ATOM      2  N   UNL     1       1.012   4.283  -0.265  0.00  0.00    -0.125 NA
ATOM      3  N   UNL     1       1.725   5.350  -0.167  0.00  0.00    -0.120 NA
ATOM      4  C   UNL     1       2.945   5.033   0.155  0.00  0.00    +0.218 A 
ATOM      5  N   UNL     1       3.035   3.668   0.283  0.00  0.00    -0.184 N 
ATOM      6  N   UNL     1       4.280   3.160   0.627  0.00  0.00    -0.160 NA
ATOM      7  C   UNL     1       5.302   3.940   0.817  0.00  0.00    +0.104 A 
ATOM      8  S   UNL     1       4.601   5.556   0.520  0.00  0.00    -0.031 S 
ENDROOT
BRANCH   1  11
ATOM      9  C   UNL     1       0.002  -0.004   0.002  0.00  0.00    +0.066 A 
ATOM     10  C   UNL     1      -0.017   1.390   0.010  0.00  0.00    +0.056 A 
ATOM     11  C   UNL     1       1.292   1.826  -0.001  0.00  0.00    +0.105 A 
ATOM     12  N   UNL     1       2.085   0.715  -0.014  0.00  0.00    -0.274 N 
ATOM     13  H   UNL     1       3.180   0.820  -0.024  0.00  0.00    +0.189 HD
ATOM     14  N   UNL     1       1.247  -0.407  -0.012  0.00  0.00    -0.178 NA
BRANCH   9  16
ATOM     15  C   UNL     1      -1.683  -1.108   1.449  0.00  0.00    +0.014 C 
ATOM     16  C   UNL     1      -1.211  -0.899   0.008  0.00  0.00    +0.033 C 
ATOM     17  C   UNL     1      -2.330  -0.246  -0.805  0.00  0.00    +0.014 C 
ENDBRANCH   9  16
ENDBRANCH   1  11
BRANCH   7  18
ATOM     18  C   UNL     1       6.715   3.575   1.191  0.00  0.00    +0.084 C 
BRANCH  18  19
ATOM     19  C   UNL     1       7.535   3.343  -0.080  0.00  0.00    +0.124 C 
BRANCH  19  20
ATOM     20  N   UNL     1       8.909   2.988   0.284  0.00  0.00    -0.234 N 
ATOM     21  C   UNL     1       9.906   3.876   0.453  0.00  0.00    +0.254 C 
ATOM     22  O   UNL     1       9.810   5.081   0.330  0.00  0.00    -0.270 OA
ATOM     23  C   UNL     1      11.136   3.141   0.815  0.00  0.00    +0.049 A 
ATOM     24  C   UNL     1      12.438   3.516   1.104  0.00  0.00    +0.014 A 
ATOM     25  C   UNL     1      13.381   2.547   1.409  0.00  0.00    +0.001 A 
ATOM     26  C   UNL     1      13.030   1.210   1.428  0.00  0.00    +0.001 A 
ATOM     27  C   UNL     1      11.732   0.820   1.142  0.00  0.00    +0.014 A 
ATOM     28  C   UNL     1      10.778   1.778   0.835  0.00  0.00    +0.049 A 
ATOM     29  C   UNL     1       9.342   1.731   0.488  0.00  0.00    +0.254 C 
ATOM     30  O   UNL     1       8.666   0.726   0.401  0.00  0.00    -0.270 OA
ENDBRANCH  19  20
ENDBRANCH  18  19
ENDBRANCH   7  18
TORSDOF 5
