REMARK  Name = ZINC09611425
REMARK  8 active torsions:
REMARK  status: ('A' for Active; 'I' for Inactive)
REMARK    1  A    between atoms: C_1  and  C_2
REMARK    2  A    between atoms: C_8  and  N_10
REMARK    3  A    between atoms: C_11  and  C_13
REMARK    4  A    between atoms: C_13  and  C_15
REMARK    5  A    between atoms: C_13  and  N_22
REMARK    6  A    between atoms: C_15  and  C_16
REMARK    7  A    between atoms: N_22  and  S_23
REMARK    8  A    between atoms: S_23  and  C_26
REMARK                            x       y       z     vdW  Elec       q    Type
REMARK                         _______ _______ _______ _____ _____    ______ ____
ROOT
ATOM      1  C   UNL     1       0.200  -0.097  -0.275  0.00  0.00    +0.166 C 
ENDROOT
BRANCH   1   3
ATOM      2  N   UNL     1       1.308   2.107  -0.086  0.00  0.00    -0.311 N 
ATOM      3  C   UNL     1       0.164   1.409  -0.231  0.00  0.00    +0.232 C 
ATOM      4  O   UNL     1      -0.894   1.994  -0.329  0.00  0.00    -0.274 OA
ATOM      5  H   UNL     1       2.155   1.640  -0.011  0.00  0.00    +0.149 HD
BRANCH   2  12
ATOM      6  C   UNL     1       2.914   3.666  -1.925  0.00  0.00    +0.009 C 
ATOM      7  C   UNL     1       2.625   4.127  -0.495  0.00  0.00    +0.006 C 
ATOM      8  C   UNL     1       2.588   5.656  -0.451  0.00  0.00    +0.005 C 
ATOM      9  C   UNL     1       2.299   6.117   0.979  0.00  0.00    +0.000 C 
ATOM     10  C   UNL     1       0.948   5.561   1.431  0.00  0.00    +0.002 C 
ATOM     11  C   UNL     1       0.984   4.032   1.386  0.00  0.00    +0.022 C 
ATOM     12  C   UNL     1       1.273   3.571  -0.043  0.00  0.00    +0.076 C 
ENDBRANCH   2  12
ENDBRANCH   1   3
BRANCH   1  13
ATOM     13  N   UNL     1      -1.161  -0.613  -0.436  0.00  0.00    -0.178 NA
ATOM     14  H   UNL     1      -1.728  -0.738   0.341  0.00  0.00    +0.149 HD
BRANCH  13  15
ATOM     15  S   UNL     1      -1.732  -0.984  -1.945  0.00  0.00    +0.059 S 
ATOM     16  O   UNL     1      -3.049  -1.490  -1.768  0.00  0.00    -0.153 OA
ATOM     17  O   UNL     1      -1.452   0.136  -2.773  0.00  0.00    -0.153 OA
BRANCH  15  18
ATOM     18  C   UNL     1      -0.758  -2.319  -2.557  0.00  0.00    +0.106 A 
ATOM     19  C   UNL     1       0.355  -2.061  -3.336  0.00  0.00    +0.030 A 
ATOM     20  C   UNL     1       1.123  -3.104  -3.813  0.00  0.00    +0.025 A 
ATOM     21  C   UNL     1       0.770  -4.414  -3.520  0.00  0.00    +0.037 A 
ATOM     22  C   UNL     1      -0.351  -4.671  -2.742  0.00  0.00    -0.024 A 
ATOM     23  C   UNL     1      -1.113  -3.623  -2.263  0.00  0.00    +0.034 A 
ATOM     24  C   UNL     1      -0.733  -6.093  -2.423  0.00  0.00    +0.046 C 
ATOM     25  C   UNL     1      -0.377  -6.995  -3.603  0.00  0.00    +0.101 C 
ATOM     26  C   UNL     1       1.034  -6.721  -4.052  0.00  0.00    +0.218 C 
ATOM     27  O   UNL     1       1.721  -7.633  -4.460  0.00  0.00    -0.275 OA
ATOM     28  N   UNL     1       1.541  -5.476  -4.004  0.00  0.00    -0.285 N 
ATOM     29  H   UNL     1       2.448  -5.313  -4.308  0.00  0.00    +0.155 HD
ENDBRANCH  15  18
ENDBRANCH  13  15
ENDBRANCH   1  13
BRANCH   1  30
ATOM     30  C   UNL     1       0.798  -0.631   1.029  0.00  0.00    +0.065 C 
BRANCH  30  31
ATOM     31  C   UNL     1       0.921  -2.131   0.947  0.00  0.00    -0.045 A 
ATOM     32  C   UNL     1      -0.071  -2.935   1.476  0.00  0.00    +0.004 A 
ATOM     33  C   UNL     1       0.040  -4.311   1.396  0.00  0.00    +0.000 A 
ATOM     34  C   UNL     1       1.147  -4.882   0.798  0.00  0.00    +0.000 A 
ATOM     35  C   UNL     1       2.142  -4.077   0.274  0.00  0.00    +0.000 A 
ATOM     36  C   UNL     1       2.028  -2.702   0.349  0.00  0.00    +0.004 A 
ENDBRANCH  30  31
ENDBRANCH   1  30
TORSDOF 7
