REMARK  Name = ZINC67381075
REMARK  12 active torsions:
REMARK  status: ('A' for Active; 'I' for Inactive)
REMARK    1  A    between atoms: C_1  and  C_2
REMARK    2  A    between atoms: C_3  and  C_8
REMARK    3  A    between atoms: C_8  and  C_9
REMARK    4  A    between atoms: C_9  and  C_10
REMARK    5  A    between atoms: C_10  and  N_11
REMARK    6  A    between atoms: N_14  and  C_15
REMARK    7  A    between atoms: C_15  and  C_17
REMARK    8  A    between atoms: C_15  and  C_18
REMARK    9  A    between atoms: C_22  and  S_24
REMARK   10  A    between atoms: S_24  and  N_27
REMARK   11  A    between atoms: N_27  and  C_28
REMARK   12  A    between atoms: N_27  and  C_29
REMARK                            x       y       z     vdW  Elec       q    Type
REMARK                         _______ _______ _______ _____ _____    ______ ____
ROOT
ATOM      1  N   UNL     1       2.781   0.735  -4.867  0.00  0.00    -0.299 N 
ATOM      2  C   UNL     1       3.014   1.171  -6.121  0.00  0.00    +0.300 C 
ATOM      3  O   UNL     1       2.087   1.327  -6.892  0.00  0.00    -0.253 OA
ATOM      4  N   UNL     1       4.274   1.434  -6.519  0.00  0.00    -0.293 N 
ATOM      5  H   UNL     1       3.520   0.610  -4.252  0.00  0.00    +0.150 HD
ATOM      6  H   UNL     1       5.014   1.309  -5.904  0.00  0.00    +0.151 HD
ENDROOT
BRANCH   4   7
ATOM      7  C   UNL     1       4.527   1.909  -7.882  0.00  0.00    +0.102 C 
ATOM      8  C   UNL     1       4.635   0.710  -8.828  0.00  0.00    +0.033 C 
BRANCH   7   9
ATOM      9  C   UNL     1       5.817   2.688  -7.911  0.00  0.00    -0.026 A 
ATOM     10  C   UNL     1       6.907   2.249  -7.183  0.00  0.00    +0.005 A 
ATOM     11  C   UNL     1       8.089   2.964  -7.210  0.00  0.00    +0.002 A 
ATOM     12  C   UNL     1       8.182   4.119  -7.964  0.00  0.00    +0.028 A 
ATOM     13  C   UNL     1       7.093   4.558  -8.693  0.00  0.00    +0.106 A 
ATOM     14  C   UNL     1       5.911   3.840  -8.669  0.00  0.00    +0.034 A 
BRANCH  13  15
ATOM     15  S   UNL     1       7.210   6.029  -9.654  0.00  0.00    +0.060 S 
ATOM     16  O   UNL     1       5.886   6.521  -9.809  0.00  0.00    -0.153 OA
ATOM     17  O   UNL     1       8.250   6.809  -9.078  0.00  0.00    -0.153 OA
BRANCH  15  18
ATOM     18  N   UNL     1       7.731   5.588 -11.163  0.00  0.00    -0.183 NA
ATOM     19  C   UNL     1       6.757   5.247 -12.203  0.00  0.00    +0.131 C 
ATOM     20  C   UNL     1       9.165   5.540 -11.458  0.00  0.00    +0.131 C 
ENDBRANCH  15  18
ENDBRANCH  13  15
ENDBRANCH   7   9
ENDBRANCH   4   7
BRANCH   1  21
ATOM     21  C   UNL     1       1.411   0.449  -4.434  0.00  0.00    +0.106 C 
BRANCH  21  22
ATOM     22  C   UNL     1       1.425  -0.028  -2.980  0.00  0.00    +0.023 C 
BRANCH  22  23
ATOM     23  C   UNL     1      -0.006  -0.327  -2.527  0.00  0.00    +0.040 C 
BRANCH  23  26
ATOM     24  C   UNL     1      -0.018   1.503   0.010  0.00  0.00    +0.065 C 
ATOM     25  C   UNL     1       0.002  -0.004   0.002  0.00  0.00    +0.036 A 
ATOM     26  C   UNL     1       0.008  -0.796  -1.095  0.00  0.00    -0.007 A 
ATOM     27  C   UNL     1       0.028  -2.127  -0.666  0.00  0.00    +0.138 A 
ATOM     28  N   UNL     1       0.035  -2.134   0.643  0.00  0.00    -0.182 NA
ATOM     29  N   UNL     1       0.024  -0.805   1.088  0.00  0.00    -0.282 N 
ATOM     30  H   UNL     1       0.029  -0.513   2.013  0.00  0.00    +0.189 HD
ENDBRANCH  23  26
ENDBRANCH  22  23
ENDBRANCH  21  22
ENDBRANCH   1  21
TORSDOF 8
