REMARK  Name = ZINC19717299
REMARK  9 active torsions:
REMARK  status: ('A' for Active; 'I' for Inactive)
REMARK    1  A    between atoms: C_1  and  C_2
REMARK    2  A    between atoms: C_3  and  C_8
REMARK    3  A    between atoms: N_6  and  C_7
REMARK    4  A    between atoms: C_8  and  C_10
REMARK    5  A    between atoms: C_8  and  N_11
REMARK    6  A    between atoms: C_12  and  C_14
REMARK    7  A    between atoms: C_17  and  C_19
REMARK    8  A    between atoms: C_22  and  O_25
REMARK    9  A    between atoms: O_25  and  C_26
REMARK                            x       y       z     vdW  Elec       q    Type
REMARK                         _______ _______ _______ _____ _____    ______ ____
ROOT
ATOM      1  N   UNL     1       6.322   2.606  -0.046  0.00  0.00    -0.303 N 
ATOM      2  C   UNL     1       6.117   1.274  -0.051  0.00  0.00    +0.263 C 
ATOM      3  O   UNL     1       7.065   0.512  -0.065  0.00  0.00    -0.268 OA
ATOM      4  H   UNL     1       5.464   3.294  -0.033  0.00  0.00    +0.150 HD
ENDROOT
BRANCH   2   5
ATOM      5  C   UNL     1       4.744   0.740  -0.040  0.00  0.00    +0.133 A 
ATOM      6  C   UNL     1       4.524  -0.615  -0.046  0.00  0.00    +0.080 A 
ATOM      7  S   UNL     1       2.789  -0.686  -0.022  0.00  0.00    -0.075 S 
ATOM      8  C   UNL     1       2.478   1.072  -0.016  0.00  0.00    +0.109 A 
ATOM      9  N   UNL     1       3.704   1.562  -0.026  0.00  0.00    -0.234 NA
BRANCH   8  10
ATOM     10  C   UNL     1       1.186   1.791   0.000  0.00  0.00    +0.007 A 
ATOM     11  C   UNL     1      -0.013   1.076   0.008  0.00  0.00    +0.014 A 
ATOM     12  C   UNL     1      -1.215   1.750   0.017  0.00  0.00    +0.046 A 
ATOM     13  C   UNL     1      -1.235   3.138   0.031  0.00  0.00    +0.120 A 
ATOM     14  C   UNL     1      -0.044   3.853   0.023  0.00  0.00    +0.046 A 
ATOM     15  C   UNL     1       1.162   3.187   0.008  0.00  0.00    +0.014 A 
BRANCH  13  16
ATOM     16  O   UNL     1      -2.422   3.799   0.045  0.00  0.00    -0.495 OA
ATOM     17  C   UNL     1      -3.608   3.002   0.052  0.00  0.00    +0.277 C 
ENDBRANCH  13  16
ENDBRANCH   8  10
ENDBRANCH   2   5
BRANCH   1  18
ATOM     18  C   UNL     1       7.688   3.136  -0.056  0.00  0.00    +0.104 C 
ATOM     19  C   UNL     1       8.223   3.196   1.376  0.00  0.00    +0.033 C 
BRANCH  18  22
ATOM     20  C   UNL     1      10.107   4.554  -1.442  0.00  0.00    +0.065 C 
ATOM     21  C   UNL     1       8.730   5.135  -1.248  0.00  0.00    +0.041 A 
ATOM     22  C   UNL     1       7.683   4.522  -0.649  0.00  0.00    +0.013 A 
ATOM     23  C   UNL     1       6.598   5.404  -0.671  0.00  0.00    +0.140 A 
ATOM     24  N   UNL     1       6.978   6.505  -1.267  0.00  0.00    -0.179 NA
ATOM     25  N   UNL     1       8.320   6.358  -1.643  0.00  0.00    -0.271 N 
ATOM     26  C   UNL     1       9.134   7.358  -2.338  0.00  0.00    +0.172 C 
ENDBRANCH  18  22
ENDBRANCH   1  18
TORSDOF 5
