REMARK  Name = ZINC13013019
REMARK  2 active torsions:
REMARK  status: ('A' for Active; 'I' for Inactive)
REMARK    1  A    between atoms: C_6  and  N_7
REMARK    2  A    between atoms: C_10  and  C_12
REMARK                            x       y       z     vdW  Elec       q    Type
REMARK                         _______ _______ _______ _____ _____    ______ ____
ROOT
ATOM      1  N   UNL     1      -1.578   9.162   0.065  0.00  0.00    -0.236 N 
ATOM      2  C   UNL     1      -0.303   9.638   0.056  0.00  0.00    +0.049 A 
ATOM      3  C   UNL     1       0.518   8.567   0.047  0.00  0.00    +0.006 A 
ATOM      4  C   UNL     1      -0.327   7.433   0.043  0.00  0.00    +0.151 A 
ATOM      5  N   UNL     1      -1.569   7.877   0.058  0.00  0.00    -0.161 NA
ATOM      6  C   UNL     1       1.962   9.008   0.030  0.00  0.00    +0.040 C 
ATOM      7  C   UNL     1       1.922  10.494  -0.392  0.00  0.00    +0.011 C 
ATOM      8  C   UNL     1       0.505  10.916   0.056  0.00  0.00    +0.056 C 
ENDROOT
BRANCH   4   9
ATOM      9  C   UNL     1       0.100   6.020   0.033  0.00  0.00    +0.270 C 
ATOM     10  O   UNL     1       1.284   5.742   0.020  0.00  0.00    -0.268 OA
ATOM     11  N   UNL     1      -0.823   5.037   0.036  0.00  0.00    -0.258 N 
ATOM     12  C   UNL     1      -0.421   3.707   0.026  0.00  0.00    +0.188 A 
ATOM     13  N   UNL     1       0.797   3.184   0.012  0.00  0.00    -0.126 NA
ATOM     14  N   UNL     1       0.986   1.937   0.003  0.00  0.00    -0.148 NA
ATOM     15  C   UNL     1      -0.013   1.076   0.008  0.00  0.00    +0.183 A 
ATOM     16  S   UNL     1      -1.400   2.208   0.019  0.00  0.00    -0.039 S 
ATOM     17  H   UNL     1      -1.767   5.259   0.046  0.00  0.00    +0.157 HD
ENDBRANCH   4   9
BRANCH   1  23
ATOM     18  C   UNL     1      -2.742  11.156   0.780  0.00  0.00    +0.030 A 
ATOM     19  C   UNL     1      -3.879  11.940   0.789  0.00  0.00    +0.040 A 
ATOM     20  C   UNL     1      -5.012  11.526   0.108  0.00  0.00    +0.124 A 
ATOM     21  C   UNL     1      -5.006  10.328  -0.587  0.00  0.00    +0.040 A 
ATOM     22  C   UNL     1      -3.869   9.544  -0.602  0.00  0.00    +0.030 A 
ATOM     23  C   UNL     1      -2.732   9.957   0.079  0.00  0.00    +0.066 A 
ATOM     24  F   UNL     1      -6.125  12.292   0.122  0.00  0.00    -0.205 F 
ENDBRANCH   1  23
TORSDOF 2
