REMARK  Name = ZINC18200942
REMARK  12 active torsions:
REMARK  status: ('A' for Active; 'I' for Inactive)
REMARK    1  A    between atoms: C_1  and  O_2
REMARK    2  A    between atoms: O_2  and  C_3
REMARK    3  A    between atoms: C_5  and  C_13
REMARK    4  A    between atoms: C_7  and  O_11
REMARK    5  A    between atoms: C_8  and  O_9
REMARK    6  A    between atoms: O_9  and  C_10
REMARK    7  A    between atoms: O_11  and  C_12
REMARK    8  A    between atoms: C_17  and  O_38
REMARK    9  A    between atoms: C_18  and  O_36
REMARK   10  A    between atoms: C_27  and  C_30
REMARK   11  A    between atoms: O_36  and  C_37
REMARK   12  A    between atoms: O_38  and  C_39
REMARK                            x       y       z     vdW  Elec       q    Type
REMARK                         _______ _______ _______ _____ _____    ______ ____
ROOT
ATOM      1  C   UNL     1      -2.186   3.206  -2.438  0.00  0.00    +0.086 C 
ATOM      2  C   UNL     1      -3.270   4.206  -2.152  0.00  0.00    -0.011 A 
ATOM      3  C   UNL     1      -4.266   4.427  -3.087  0.00  0.00    +0.055 A 
ATOM      4  C   UNL     1      -5.264   5.353  -2.836  0.00  0.00    +0.162 A 
ATOM      5  C   UNL     1      -5.268   6.067  -1.641  0.00  0.00    +0.163 A 
ATOM      6  C   UNL     1      -4.272   5.846  -0.704  0.00  0.00    +0.073 A 
ATOM      7  C   UNL     1      -3.275   4.915  -0.959  0.00  0.00    +0.039 A 
ATOM      8  N   UNL     1      -2.271   4.684  -0.016  0.00  0.00    -0.317 N 
ATOM      9  C   UNL     1      -1.543   3.530  -0.051  0.00  0.00    +0.016 C 
ATOM     10  C   UNL     1      -1.478   2.784  -1.176  0.00  0.00    +0.024 C 
ATOM     11  C   UNL     1      -0.744   1.586  -1.207  0.00  0.00    +0.162 C 
ATOM     12  O   UNL     1      -0.700   0.941  -2.236  0.00  0.00    -0.292 OA
ATOM     13  C   UNL     1      -0.013   1.086   0.008  0.00  0.00    +0.088 C 
ATOM     14  C   UNL     1      -0.735   1.582   1.265  0.00  0.00    +0.032 C 
ATOM     15  C   UNL     1      -0.816   3.109   1.204  0.00  0.00    +0.059 C 
ATOM     16  H   UNL     1      -2.090   5.348   0.668  0.00  0.00    +0.152 HD
ENDROOT
BRANCH   1  19
ATOM     17  C   UNL     1      -0.059   3.824  -5.500  0.00  0.00    +0.165 A 
ATOM     18  C   UNL     1      -0.980   3.262  -4.629  0.00  0.00    +0.054 A 
ATOM     19  C   UNL     1      -1.185   3.821  -3.381  0.00  0.00    -0.028 A 
ATOM     20  C   UNL     1      -0.478   4.946  -2.999  0.00  0.00    +0.054 A 
ATOM     21  C   UNL     1       0.448   5.511  -3.863  0.00  0.00    +0.165 A 
ATOM     22  C   UNL     1       0.657   4.952  -5.118  0.00  0.00    +0.204 A 
BRANCH  17  24
ATOM     23  C   UNL     1      -0.631   2.115  -7.053  0.00  0.00    +0.277 C 
ATOM     24  O   UNL     1       0.141   3.273  -6.727  0.00  0.00    -0.491 OA
ENDBRANCH  17  24
BRANCH  22  25
ATOM     25  O   UNL     1       1.562   5.507  -5.970  0.00  0.00    -0.488 OA
ATOM     26  C   UNL     1       1.079   6.516  -6.860  0.00  0.00    +0.277 C 
ENDBRANCH  22  25
BRANCH  21  27
ATOM     27  O   UNL     1       1.147   6.614  -3.484  0.00  0.00    -0.491 OA
ATOM     28  C   UNL     1       0.881   7.135  -2.180  0.00  0.00    +0.277 C 
ENDBRANCH  21  27
ENDBRANCH   1  19
BRANCH  14  29
ATOM     29  C   UNL     1       0.034   1.162   2.491  0.00  0.00    -0.044 A 
ATOM     30  C   UNL     1       1.340   1.581   2.666  0.00  0.00    +0.004 A 
ATOM     31  C   UNL     1       2.044   1.199   3.793  0.00  0.00    +0.000 A 
ATOM     32  C   UNL     1       1.445   0.389   4.740  0.00  0.00    +0.000 A 
ATOM     33  C   UNL     1       0.141  -0.034   4.563  0.00  0.00    +0.000 A 
ATOM     34  C   UNL     1      -0.564   0.352   3.438  0.00  0.00    +0.004 A 
ENDBRANCH  14  29
BRANCH   5  35
ATOM     35  O   UNL     1      -6.246   6.979  -1.394  0.00  0.00    -0.491 OA
ATOM     36  C   UNL     1      -6.186   7.674  -0.147  0.00  0.00    +0.277 C 
ENDBRANCH   5  35
BRANCH   4  37
ATOM     37  O   UNL     1      -6.242   5.566  -3.758  0.00  0.00    -0.491 OA
ATOM     38  C   UNL     1      -6.176   4.799  -4.962  0.00  0.00    +0.277 C 
ENDBRANCH   4  37
TORSDOF 7
