REMARK  Name = ZINC07735240
REMARK  7 active torsions:
REMARK  status: ('A' for Active; 'I' for Inactive)
REMARK    1  A    between atoms: C_1  and  N_57
REMARK    2  A    between atoms: N_4  and  C_7
REMARK    3  A    between atoms: C_12  and  N_13
REMARK    4  A    between atoms: C_14  and  C_16
REMARK    5  A    between atoms: C_16  and  C_18
REMARK    6  A    between atoms: C_16  and  S_24
REMARK    7  A    between atoms: S_24  and  C_25
REMARK                            x       y       z     vdW  Elec       q    Type
REMARK                         _______ _______ _______ _____ _____    ______ ____
ROOT
ATOM      1  N   UNL     1       2.371   0.940   0.654  0.00  0.00    -0.283 N 
ATOM      2  C   UNL     1       1.402   1.605  -0.006  0.00  0.00    +0.235 C 
ATOM      3  O   UNL     1       1.666   2.629  -0.601  0.00  0.00    -0.274 OA
ATOM      4  H   UNL     1       2.146   0.167   1.195  0.00  0.00    +0.155 HD
ENDROOT
BRANCH   1  10
ATOM      5  C   UNL     1       4.610   1.058   1.572  0.00  0.00    +0.051 A 
ATOM      6  C   UNL     1       5.926   1.482   1.471  0.00  0.00    +0.025 A 
ATOM      7  C   UNL     1       6.336   2.208   0.368  0.00  0.00    +0.002 A 
ATOM      8  C   UNL     1       5.436   2.513  -0.637  0.00  0.00    +0.002 A 
ATOM      9  C   UNL     1       4.124   2.089  -0.547  0.00  0.00    +0.025 A 
ATOM     10  C   UNL     1       3.703   1.366   0.558  0.00  0.00    +0.055 A 
BRANCH   5  14
ATOM     11  C   UNL     1       4.087  -1.712   6.388  0.00  0.00    -0.096 C 
ATOM     12  C   UNL     1       4.414  -1.739   3.988  0.00  0.00    -0.060 C 
ATOM     13  C   UNL     1       4.953  -0.929   2.806  0.00  0.00    +0.086 C 
ATOM     14  N   UNL     1       4.193   0.323   2.687  0.00  0.00    -0.332 N 
ATOM     15  C   UNL     1       4.303   1.122   3.915  0.00  0.00    +0.086 C 
ATOM     16  C   UNL     1       3.765   0.312   5.097  0.00  0.00    -0.060 C 
ATOM     17  N   UNL     1       4.552  -0.933   5.220  0.00  0.00    +0.380 N 
ATOM     18  H   UNL     1       5.541  -0.691   5.352  0.00  0.00    -0.082 HD
ENDBRANCH   5  14
ENDBRANCH   1  10
BRANCH   2  19
ATOM     19  C   UNL     1      -0.010   1.077  -0.005  0.00  0.00    +0.167 C 
BRANCH  19  20
ATOM     20  C   UNL     1      -0.724   1.555   1.233  0.00  0.00    -0.025 A 
ATOM     21  C   UNL     1      -0.870   2.910   1.467  0.00  0.00    +0.005 A 
ATOM     22  C   UNL     1      -1.529   3.348   2.600  0.00  0.00    +0.000 A 
ATOM     23  C   UNL     1      -2.035   2.433   3.503  0.00  0.00    +0.000 A 
ATOM     24  C   UNL     1      -1.885   1.078   3.272  0.00  0.00    +0.000 A 
ATOM     25  C   UNL     1      -1.230   0.639   2.136  0.00  0.00    +0.005 A 
ENDBRANCH  19  20
BRANCH  19  26
ATOM     26  S   UNL     1      -0.882   1.678  -1.477  0.00  0.00    -0.108 S 
BRANCH  26  27
ATOM     27  C   UNL     1      -2.444   0.867  -1.409  0.00  0.00    +0.009 A 
ATOM     28  C   UNL     1      -2.729  -0.008  -0.368  0.00  0.00    +0.015 A 
ATOM     29  C   UNL     1      -3.957  -0.639  -0.315  0.00  0.00    +0.001 A 
ATOM     30  C   UNL     1      -4.897  -0.409  -1.302  0.00  0.00    +0.000 A 
ATOM     31  C   UNL     1      -4.615   0.457  -2.343  0.00  0.00    +0.001 A 
ATOM     32  C   UNL     1      -3.391   1.095  -2.400  0.00  0.00    +0.015 A 
ENDBRANCH  26  27
ENDBRANCH  19  26
ENDBRANCH   2  19
TORSDOF 6
