REMARK  Name = ZINC32911827
REMARK  7 active torsions:
REMARK  status: ('A' for Active; 'I' for Inactive)
REMARK    1  A    between atoms: C_1  and  C_2
REMARK    2  A    between atoms: C_3  and  C_25
REMARK    3  A    between atoms: C_7  and  N_11
REMARK    4  A    between atoms: C_17  and  N_23
REMARK    5  A    between atoms: C_18  and  C_19
REMARK    6  A    between atoms: C_19  and  O_21
REMARK    7  A    between atoms: O_21  and  C_22
REMARK                            x       y       z     vdW  Elec       q    Type
REMARK                         _______ _______ _______ _____ _____    ______ ____
ROOT
ATOM      1  N   UNL     1      -1.479  -0.208  -0.019  0.00  0.00    -0.309 N 
ATOM      2  C   UNL     1      -2.603   0.733  -0.131  0.00  0.00    +0.111 C 
ATOM      3  C   UNL     1      -3.884  -0.021  -0.500  0.00  0.00    +0.056 C 
ATOM      4  C   UNL     1      -4.054  -1.177   0.479  0.00  0.00    -0.018 A 
ATOM      5  C   UNL     1      -3.005  -1.600   1.217  0.00  0.00    +0.013 A 
ATOM      6  S   UNL     1      -3.645  -2.929   2.193  0.00  0.00    -0.076 S 
ATOM      7  C   UNL     1      -5.284  -2.926   1.631  0.00  0.00    +0.078 A 
ATOM      8  C   UNL     1      -5.298  -1.894   0.698  0.00  0.00    +0.090 A 
ATOM      9  C   UNL     1      -1.616  -1.044   1.188  0.00  0.00    +0.149 C 
ENDROOT
BRANCH   1  16
ATOM     10  C   UNL     1      -0.658  -1.438  -2.481  0.00  0.00    +0.045 C 
ATOM     11  C   UNL     1       0.569  -0.595  -2.249  0.00  0.00    -0.028 A 
ATOM     12  C   UNL     1       1.588  -0.625  -3.121  0.00  0.00    -0.008 A 
ATOM     13  S   UNL     1       2.769   0.513  -2.421  0.00  0.00    -0.074 S 
ATOM     14  C   UNL     1       1.863   0.998  -0.977  0.00  0.00    +0.114 A 
ATOM     15  C   UNL     1       0.663   0.260  -1.079  0.00  0.00    +0.051 A 
ATOM     16  C   UNL     1      -0.269   0.463  -0.024  0.00  0.00    +0.133 A 
ATOM     17  N   UNL     1       0.035   1.302   0.953  0.00  0.00    -0.220 NA
ATOM     18  C   UNL     1       1.180   1.960   0.984  0.00  0.00    +0.224 A 
ATOM     19  N   UNL     1       2.084   1.814   0.035  0.00  0.00    -0.228 NA
ATOM     20  C   UNL     1       1.706  -1.429  -4.390  0.00  0.00    +0.052 C 
ENDBRANCH   1  16
BRANCH   7  21
ATOM     21  N   UNL     1      -6.325  -3.749   2.015  0.00  0.00    -0.352 N 
ATOM     22  H   UNL     1      -7.320  -3.625   1.563  0.00  0.00    +0.143 HD
ATOM     23  H   UNL     1      -6.158  -4.529   2.773  0.00  0.00    +0.143 HD
ENDBRANCH   7  21
BRANCH   8  24
ATOM     24  C   UNL     1      -6.516  -1.545  -0.032  0.00  0.00    +0.342 C 
ATOM     25  O   UNL     1      -6.763  -2.082  -1.095  0.00  0.00    -0.245 OA
BRANCH  24  26
ATOM     26  O   UNL     1      -7.366  -0.627   0.473  0.00  0.00    -0.464 OA
ATOM     27  C   UNL     1      -8.536  -0.335  -0.293  0.00  0.00    +0.280 C 
ENDBRANCH  24  26
ENDBRANCH   8  24
TORSDOF 4
