REMARK  Name = ZINC39358767
REMARK  7 active torsions:
REMARK  status: ('A' for Active; 'I' for Inactive)
REMARK    1  A    between atoms: C_1  and  C_2
REMARK    2  A    between atoms: C_2  and  C_29
REMARK    3  A    between atoms: C_6  and  C_16
REMARK    4  A    between atoms: C_9  and  O_15
REMARK    5  A    between atoms: C_19  and  O_22
REMARK    6  A    between atoms: O_22  and  C_23
REMARK    7  A    between atoms: C_23  and  C_24
REMARK                            x       y       z     vdW  Elec       q    Type
REMARK                         _______ _______ _______ _____ _____    ______ ____
ROOT
ATOM      1  C   UNL     1      -0.019   1.526   0.010  0.00  0.00    +0.011 C 
ATOM      2  C   UNL     1       0.002  -0.004   0.002  0.00  0.00    -0.023 C 
ATOM      3  C   UNL     1      -1.429  -0.539   0.042  0.00  0.00    +0.057 C 
ATOM      4  C   UNL     1      -1.409  -2.054   0.057  0.00  0.00    +0.014 C 
ATOM      5  C   UNL     1      -0.399  -2.711   0.665  0.00  0.00    +0.023 C 
ATOM      6  C   UNL     1      -0.345  -4.230   0.738  0.00  0.00    +0.089 C 
ATOM      7  C   UNL     1      -1.411  -4.750  -0.178  0.00  0.00    +0.048 C 
ATOM      8  C   UNL     1      -1.486  -5.744  -1.036  0.00  0.00    +0.235 C 
ATOM      9  N   UNL     1      -2.664  -5.691  -1.716  0.00  0.00    -0.114 NA
ATOM     10  N   UNL     1      -3.417  -4.775  -1.363  0.00  0.00    -0.157 NA
ATOM     11  C   UNL     1      -2.778  -4.063  -0.255  0.00  0.00    +0.245 C 
ATOM     12  N   UNL     1      -2.456  -2.671  -0.581  0.00  0.00    -0.321 N 
ATOM     13  C   UNL     1       0.669  -2.019   1.261  0.00  0.00    +0.162 C 
ATOM     14  O   UNL     1       1.554  -2.649   1.806  0.00  0.00    -0.292 OA
ATOM     15  C   UNL     1       0.742  -0.517   1.242  0.00  0.00    +0.086 C 
ATOM     16  C   UNL     1       0.705  -0.503  -1.262  0.00  0.00    +0.011 C 
ATOM     17  H   UNL     1      -2.979  -2.190  -1.242  0.00  0.00    +0.148 HD
ENDROOT
BRANCH   6  18
ATOM     18  C   UNL     1      -0.610  -4.686   2.150  0.00  0.00    -0.035 A 
ATOM     19  C   UNL     1      -1.810  -4.376   2.762  0.00  0.00    +0.008 A 
ATOM     20  C   UNL     1      -2.055  -4.793   4.056  0.00  0.00    +0.046 A 
ATOM     21  C   UNL     1      -1.095  -5.524   4.741  0.00  0.00    +0.121 A 
ATOM     22  C   UNL     1       0.108  -5.835   4.124  0.00  0.00    +0.046 A 
ATOM     23  C   UNL     1       0.346  -5.420   2.828  0.00  0.00    +0.008 A 
BRANCH  21  24
ATOM     24  O   UNL     1      -1.334  -5.935   6.014  0.00  0.00    -0.488 OA
BRANCH  24  25
ATOM     25  C   UNL     1      -0.301  -6.684   6.658  0.00  0.00    +0.256 C 
BRANCH  25  26
ATOM     26  C   UNL     1      -0.741  -7.050   8.052  0.00  0.00    +0.006 C 
ATOM     27  C   UNL     1      -0.554  -8.267   8.500  0.00  0.00    +0.007 C 
ENDBRANCH  25  26
ENDBRANCH  24  25
ENDBRANCH  21  24
ENDBRANCH   6  18
BRANCH   8  28
ATOM     28  O   UNL     1      -0.524  -6.687  -1.218  0.00  0.00    -0.491 OA
ATOM     29  H   UNL     1      -0.743  -7.347  -1.890  0.00  0.00    +0.294 HD
ENDBRANCH   8  28
TORSDOF 5
