REMARK  Name = ZINC06999961
REMARK  10 active torsions:
REMARK  status: ('A' for Active; 'I' for Inactive)
REMARK    1  A    between atoms: C_1  and  C_2
REMARK    2  A    between atoms: C_5  and  C_29
REMARK    3  A    between atoms: C_6  and  N_8
REMARK    4  A    between atoms: C_9  and  C_11
REMARK    5  A    between atoms: C_12  and  N_28
REMARK    6  A    between atoms: N_13  and  C_16
REMARK    7  A    between atoms: C_16  and  C_17
REMARK    8  A    between atoms: N_19  and  C_20
REMARK    9  A    between atoms: C_21  and  C_27
REMARK   10  A    between atoms: C_25  and  C_26
REMARK                            x       y       z     vdW  Elec       q    Type
REMARK                         _______ _______ _______ _____ _____    ______ ____
ROOT
ATOM      1  C   UNL     1       0.802   2.642  -5.638  0.00  0.00    +0.188 A 
ATOM      2  C   UNL     1       0.577   1.488  -6.378  0.00  0.00    +0.148 A 
ATOM      3  N   UNL     1       0.770   1.822  -7.676  0.00  0.00    -0.222 N 
ATOM      4  N   UNL     1       1.110   3.181  -7.700  0.00  0.00    -0.063 NA
ATOM      5  N   UNL     1       1.115   3.632  -6.495  0.00  0.00    -0.123 NA
ENDROOT
BRANCH   1   7
ATOM      6  N   UNL     1       0.952   3.946  -3.582  0.00  0.00    -0.280 N 
ATOM      7  C   UNL     1       0.708   2.762  -4.178  0.00  0.00    +0.272 C 
ATOM      8  O   UNL     1       0.409   1.792  -3.506  0.00  0.00    -0.268 OA
ATOM      9  H   UNL     1       1.130   4.732  -4.121  0.00  0.00    +0.155 HD
BRANCH   6  15
ATOM     10  C   UNL     1       1.264   1.754   0.807  0.00  0.00    +0.044 C 
ATOM     11  C   UNL     1       1.100   2.994  -0.034  0.00  0.00    -0.049 A 
ATOM     12  C   UNL     1       0.941   4.226   0.574  0.00  0.00    +0.004 A 
ATOM     13  C   UNL     1       0.790   5.365  -0.195  0.00  0.00    +0.005 A 
ATOM     14  C   UNL     1       0.797   5.276  -1.573  0.00  0.00    -0.029 A 
ATOM     15  C   UNL     1       0.951   4.040  -2.187  0.00  0.00    +0.037 A 
ATOM     16  C   UNL     1       1.108   2.898  -1.412  0.00  0.00    +0.027 A 
ATOM     17  C   UNL     1       0.631   6.518  -2.410  0.00  0.00    +0.045 C 
ENDBRANCH   6  15
ENDBRANCH   1   7
BRANCH   2  18
ATOM     18  N   UNL     1       0.227   0.246  -5.888  0.00  0.00    -0.341 N 
ATOM     19  H   UNL     1       0.114   0.116  -4.933  0.00  0.00    +0.144 HD
ATOM     20  H   UNL     1       0.094  -0.496  -6.498  0.00  0.00    +0.144 HD
ENDBRANCH   2  18
BRANCH   3  21
ATOM     21  C   UNL     1       0.646   0.933  -8.834  0.00  0.00    +0.243 C 
BRANCH  21  22
ATOM     22  C   UNL     1      -0.770   0.970  -9.347  0.00  0.00    +0.239 C 
ATOM     23  O   UNL     1      -1.595   1.670  -8.799  0.00  0.00    -0.273 OA
ATOM     24  N   UNL     1      -1.120   0.225 -10.414  0.00  0.00    -0.284 N 
ATOM     25  H   UNL     1      -0.484  -0.397 -10.800  0.00  0.00    +0.155 HD
BRANCH  24  26
ATOM     26  C   UNL     1      -2.400   0.350 -10.965  0.00  0.00    +0.039 A 
ATOM     27  C   UNL     1      -3.522   0.137 -10.175  0.00  0.00    -0.029 A 
ATOM     28  C   UNL     1      -4.784   0.266 -10.720  0.00  0.00    +0.005 A 
ATOM     29  C   UNL     1      -4.931   0.597 -12.055  0.00  0.00    +0.001 A 
ATOM     30  C   UNL     1      -3.816   0.803 -12.846  0.00  0.00    +0.005 A 
ATOM     31  C   UNL     1      -2.551   0.681 -12.305  0.00  0.00    -0.029 A 
ATOM     32  C   UNL     1      -1.337   0.907 -13.168  0.00  0.00    +0.045 C 
ATOM     33  C   UNL     1      -3.362  -0.230  -8.722  0.00  0.00    +0.045 C 
ENDBRANCH  24  26
ENDBRANCH  21  22
ENDBRANCH   3  21
TORSDOF 6
