REMARK  Name = ZINC39722678
REMARK  8 active torsions:
REMARK  status: ('A' for Active; 'I' for Inactive)
REMARK    1  A    between atoms: C_1  and  C_2
REMARK    2  A    between atoms: C_6  and  C_31
REMARK    3  A    between atoms: C_7  and  N_8
REMARK    4  A    between atoms: C_12  and  S_14
REMARK    5  A    between atoms: S_14  and  C_15
REMARK    6  A    between atoms: C_15  and  C_16
REMARK    7  A    between atoms: C_21  and  C_30
REMARK    8  A    between atoms: C_22  and  C_27
REMARK                            x       y       z     vdW  Elec       q    Type
REMARK                         _______ _______ _______ _____ _____    ______ ____
ROOT
ATOM      1  S   UNL     1      -0.894  -2.845   7.514  0.00  0.00    -0.089 S 
ENDROOT
BRANCH   1   6
ATOM      2  N   UNL     1       0.191  -0.355   2.392  0.00  0.00    -0.292 N 
ATOM      3  C   UNL     1      -0.111  -1.154   3.489  0.00  0.00    +0.187 A 
ATOM      4  N   UNL     1      -0.445  -2.429   3.527  0.00  0.00    -0.125 NA
ATOM      5  N   UNL     1      -0.705  -3.033   4.735  0.00  0.00    -0.133 NA
ATOM      6  C   UNL     1      -0.618  -2.334   5.850  0.00  0.00    +0.160 A 
ATOM      7  S   UNL     1      -0.141  -0.730   5.223  0.00  0.00    -0.024 S 
ATOM      8  H   UNL     1       0.347   0.595   2.512  0.00  0.00    +0.154 HD
BRANCH   2  15
ATOM      9  C   UNL     1       2.760  -1.051   1.386  0.00  0.00    +0.045 C 
ATOM     10  C   UNL     1       1.503  -1.275   0.586  0.00  0.00    -0.029 A 
ATOM     11  C   UNL     1       1.576  -1.838  -0.673  0.00  0.00    +0.005 A 
ATOM     12  C   UNL     1       0.422  -2.043  -1.408  0.00  0.00    +0.001 A 
ATOM     13  C   UNL     1      -0.807  -1.686  -0.886  0.00  0.00    +0.005 A 
ATOM     14  C   UNL     1      -0.887  -1.122   0.372  0.00  0.00    -0.029 A 
ATOM     15  C   UNL     1       0.269  -0.920   1.116  0.00  0.00    +0.039 A 
ATOM     16  C   UNL     1      -2.228  -0.733   0.940  0.00  0.00    +0.045 C 
ENDBRANCH   2  15
ENDBRANCH   1   6
BRANCH   1  17
ATOM     17  C   UNL     1      -1.336  -4.598   7.366  0.00  0.00    +0.150 C 
BRANCH  17  18
ATOM     18  C   UNL     1      -1.601  -5.167   8.736  0.00  0.00    +0.134 C 
ATOM     19  N   UNL     1      -1.488  -4.370   9.772  0.00  0.00    -0.160 NA
ATOM     20  C   UNL     1      -1.703  -4.779  11.027  0.00  0.00    +0.271 C 
ATOM     21  O   UNL     1      -1.590  -4.011  11.967  0.00  0.00    -0.268 OA
ATOM     22  C   UNL     1      -2.087  -6.211  11.240  0.00  0.00    +0.071 C 
ATOM     23  C   UNL     1      -2.349  -6.838  12.396  0.00  0.00    -0.034 C 
ATOM     24  C   UNL     1      -2.718  -8.303  12.334  0.00  0.00    +0.192 C 
ATOM     25  S   UNL     1      -2.643  -8.630  10.526  0.00  0.00    -0.086 S 
ATOM     26  C   UNL     1      -2.179  -7.001   9.994  0.00  0.00    +0.112 C 
ATOM     27  N   UNL     1      -1.941  -6.443   8.831  0.00  0.00    -0.227 NA
ATOM     28  C   UNL     1      -2.277  -6.107  13.713  0.00  0.00    +0.041 C 
BRANCH  24  29
ATOM     29  C   UNL     1      -1.713  -9.144  13.078  0.00  0.00    +0.373 C 
ATOM     30  O   UNL     1      -2.094 -10.025  13.831  0.00  0.00    -0.245 OA
ATOM     31  O   UNL     1      -0.520  -8.944  12.928  0.00  0.00    -0.245 OA
ENDBRANCH  24  29
ENDBRANCH  17  18
ENDBRANCH   1  17
TORSDOF 5
