REMARK  Name = ZINC27766207
REMARK  8 active torsions:
REMARK  status: ('A' for Active; 'I' for Inactive)
REMARK    1  A    between atoms: C_1  and  C_2
REMARK    2  A    between atoms: C_2  and  C_4
REMARK    3  A    between atoms: C_2  and  N_12
REMARK    4  A    between atoms: C_6  and  C_9
REMARK    5  A    between atoms: C_9  and  C_10
REMARK    6  A    between atoms: C_9  and  C_11
REMARK    7  A    between atoms: N_15  and  S_18
REMARK    8  A    between atoms: S_18  and  C_21
REMARK                            x       y       z     vdW  Elec       q    Type
REMARK                         _______ _______ _______ _____ _____    ______ ____
ROOT
ATOM      1  N   UNL     1       0.588  -0.362  -1.296  0.00  0.00    -0.289 NA
ATOM      2  C   UNL     1       2.004   0.024  -1.360  0.00  0.00    +0.102 C 
ATOM      3  C   UNL     1       2.623  -0.525  -2.650  0.00  0.00    +0.125 C 
ATOM      4  N   UNL     1       1.805  -0.079  -3.787  0.00  0.00    -0.174 NA
ATOM      5  C   UNL     1       0.353  -0.309  -3.733  0.00  0.00    +0.125 C 
ATOM      6  C   UNL     1      -0.176   0.232  -2.401  0.00  0.00    +0.102 C 
ENDROOT
BRANCH   4   7
ATOM      7  S   UNL     1       2.500   0.663  -5.095  0.00  0.00    +0.061 S 
ATOM      8  O   UNL     1       1.482   1.442  -5.708  0.00  0.00    -0.153 OA
ATOM      9  O   UNL     1       3.722   1.228  -4.639  0.00  0.00    -0.153 OA
BRANCH   7  10
ATOM     10  C   UNL     1       2.928  -0.602  -6.244  0.00  0.00    +0.106 A 
ATOM     11  C   UNL     1       4.183  -1.202  -6.168  0.00  0.00    +0.029 A 
ATOM     12  C   UNL     1       4.546  -2.182  -7.041  0.00  0.00    +0.010 A 
ATOM     13  C   UNL     1       3.643  -2.596  -8.035  0.00  0.00    -0.018 A 
ATOM     14  C   UNL     1       3.981  -3.604  -8.954  0.00  0.00    +0.008 A 
ATOM     15  C   UNL     1       3.081  -3.980  -9.903  0.00  0.00    +0.001 A 
ATOM     16  C   UNL     1       1.825  -3.379  -9.979  0.00  0.00    +0.001 A 
ATOM     17  C   UNL     1       1.463  -2.400  -9.106  0.00  0.00    +0.008 A 
ATOM     18  C   UNL     1       2.366  -1.985  -8.113  0.00  0.00    -0.016 A 
ATOM     19  C   UNL     1       2.026  -0.981  -7.190  0.00  0.00    +0.037 A 
ENDBRANCH   7  10
ENDBRANCH   4   7
BRANCH   1  21
ATOM     20  C   UNL     1       0.733  -0.756   1.116  0.00  0.00    +0.034 C 
ATOM     21  C   UNL     1       0.002  -0.004   0.002  0.00  0.00    +0.143 C 
BRANCH  21  22
ATOM     22  C   UNL     1      -1.457  -0.380   0.015  0.00  0.00    +0.244 A 
ATOM     23  N   UNL     1      -2.437   0.377   0.425  0.00  0.00    -0.194 NA
ATOM     24  C   UNL     1      -3.601  -0.271   0.298  0.00  0.00    +0.174 A 
ATOM     25  N   UNL     1      -3.374  -1.453  -0.198  0.00  0.00    -0.061 NA
ATOM     26  O   UNL     1      -1.971  -1.545  -0.397  0.00  0.00    -0.336 OA
BRANCH  24  27
ATOM     27  C   UNL     1      -4.955   0.279   0.668  0.00  0.00    +0.054 C 
ATOM     28  C   UNL     1      -5.850   0.308  -0.573  0.00  0.00    +0.015 C 
ATOM     29  C   UNL     1      -5.592  -0.611   1.736  0.00  0.00    +0.015 C 
ENDBRANCH  24  27
ENDBRANCH  21  22
ENDBRANCH   1  21
TORSDOF 5
