REMARK  Name = ZINC64311936
REMARK  8 active torsions:
REMARK  status: ('A' for Active; 'I' for Inactive)
REMARK    1  A    between atoms: C_1  and  C_2
REMARK    2  A    between atoms: C_5  and  N_8
REMARK    3  A    between atoms: C_13  and  C_15
REMARK    4  A    between atoms: N_17  and  C_18
REMARK    5  A    between atoms: C_18  and  C_19
REMARK    6  A    between atoms: C_18  and  C_20
REMARK    7  A    between atoms: C_20  and  N_21
REMARK    8  A    between atoms: C_25  and  C_27
REMARK                            x       y       z     vdW  Elec       q    Type
REMARK                         _______ _______ _______ _____ _____    ______ ____
ROOT
ATOM      1  N   UNL     1       0.481  -4.101  -0.023  0.00  0.00    -0.158 N 
ATOM      2  C   UNL     1       0.474  -4.761   1.153  0.00  0.00    +0.256 C 
ATOM      3  O   UNL     1       0.638  -4.158   2.193  0.00  0.00    -0.272 OA
ATOM      4  C   UNL     1       0.258  -6.256   1.164  0.00  0.00    +0.201 C 
ATOM      5  N   UNL     1      -0.533  -6.612  -0.024  0.00  0.00    -0.315 N 
ATOM      6  C   UNL     1      -0.220  -5.990  -1.236  0.00  0.00    +0.200 C 
ATOM      7  N   UNL     1       0.268  -4.781  -1.227  0.00  0.00    -0.152 NA
ATOM      8  H   UNL     1      -1.252  -7.261   0.033  0.00  0.00    +0.148 HD
ENDROOT
BRANCH   1  13
ATOM      9  C   UNL     1       1.366   1.502  -0.088  0.00  0.00    +0.044 C 
ATOM     10  C   UNL     1       1.131   0.014  -0.071  0.00  0.00    -0.050 A 
ATOM     11  C   UNL     1       0.073  -0.526  -0.779  0.00  0.00    +0.005 A 
ATOM     12  C   UNL     1      -0.145  -1.890  -0.766  0.00  0.00    +0.026 A 
ATOM     13  C   UNL     1       0.700  -2.719  -0.040  0.00  0.00    +0.060 A 
ATOM     14  C   UNL     1       1.762  -2.174   0.671  0.00  0.00    +0.026 A 
ATOM     15  C   UNL     1       1.977  -0.810   0.649  0.00  0.00    +0.005 A 
ENDBRANCH   1  13
BRANCH   6  16
ATOM     16  C   UNL     1      -0.443  -6.692  -2.512  0.00  0.00    +0.279 C 
ATOM     17  O   UNL     1      -0.902  -7.819  -2.514  0.00  0.00    -0.267 OA
ATOM     18  N   UNL     1      -0.139  -6.087  -3.677  0.00  0.00    -0.308 N 
ATOM     19  H   UNL     1       0.227  -5.189  -3.676  0.00  0.00    +0.149 HD
BRANCH  18  20
ATOM     20  C   UNL     1      -0.362  -6.785  -4.946  0.00  0.00    +0.054 C 
ATOM     21  C   UNL     1      -1.815  -6.596  -5.384  0.00  0.00    +0.026 C 
BRANCH  20  22
ATOM     22  C   UNL     1       0.572  -6.212  -6.014  0.00  0.00    -0.057 C 
BRANCH  22  23
ATOM     23  N   UNL     1       1.960  -6.276  -5.537  0.00  0.00    +0.381 N 
ATOM     24  C   UNL     1       2.843  -5.634  -6.518  0.00  0.00    -0.079 C 
ATOM     25  C   UNL     1       4.279  -5.626  -5.989  0.00  0.00    -0.018 C 
ATOM     26  C   UNL     1       4.738  -7.068  -5.753  0.00  0.00    -0.001 C 
ATOM     27  C   UNL     1       3.767  -7.751  -4.785  0.00  0.00    -0.031 C 
ATOM     28  C   UNL     1       2.350  -7.680  -5.359  0.00  0.00    -0.076 C 
ATOM     29  C   UNL     1       4.172  -9.215  -4.603  0.00  0.00    +0.005 C 
ATOM     30  H   UNL     1       2.033  -5.793  -4.654  0.00  0.00    -0.082 HD
ENDBRANCH  22  23
ENDBRANCH  20  22
ENDBRANCH  18  20
ENDBRANCH   6  16
TORSDOF 5
