REMARK  Name = ZINC35877137
REMARK  8 active torsions:
REMARK  status: ('A' for Active; 'I' for Inactive)
REMARK    1  A    between atoms: C_1  and  C_2
REMARK    2  A    between atoms: C_2  and  C_3
REMARK    3  A    between atoms: C_3  and  C_5
REMARK    4  A    between atoms: C_3  and  N_6
REMARK    5  A    between atoms: C_18  and  C_25
REMARK    6  A    between atoms: C_27  and  C_29
REMARK    7  A    between atoms: C_29  and  C_30
REMARK    8  A    between atoms: C_29  and  C_31
REMARK                            x       y       z     vdW  Elec       q    Type
REMARK                         _______ _______ _______ _____ _____    ______ ____
ROOT
ATOM      1  N   UNL     1      -1.957  -0.080  -1.043  0.00  0.00    -0.239 N 
ATOM      2  C   UNL     1      -1.482  -0.339  -2.267  0.00  0.00    +0.227 C 
ATOM      3  O   UNL     1      -0.513  -1.026  -2.512  0.00  0.00    -0.275 OA
ATOM      4  C   UNL     1      -2.343   0.356  -3.298  0.00  0.00    +0.107 C 
ATOM      5  C   UNL     1      -3.423   1.071  -2.438  0.00  0.00    +0.122 C 
ATOM      6  C   UNL     1      -3.045   0.699  -1.023  0.00  0.00    +0.228 C 
ATOM      7  O   UNL     1      -3.634   1.053  -0.024  0.00  0.00    -0.275 OA
ATOM      8  C   UNL     1      -3.185   2.566  -2.683  0.00  0.00    +0.136 C 
ATOM      9  C   UNL     1      -2.391   3.188  -1.570  0.00  0.00    +0.004 A 
ATOM     10  C   UNL     1      -1.142   2.942  -1.044  0.00  0.00    +0.011 A 
ATOM     11  C   UNL     1      -0.672   3.706   0.010  0.00  0.00    -0.050 A 
ATOM     12  C   UNL     1      -1.459   4.715   0.533  0.00  0.00    +0.005 A 
ATOM     13  C   UNL     1      -2.711   4.965   0.010  0.00  0.00    +0.024 A 
ATOM     14  C   UNL     1      -3.192   4.201  -1.051  0.00  0.00    +0.039 A 
ATOM     15  N   UNL     1      -4.405   4.259  -1.741  0.00  0.00    -0.283 N 
ATOM     16  C   UNL     1      -4.480   3.331  -2.714  0.00  0.00    +0.243 C 
ATOM     17  O   UNL     1      -5.411   3.148  -3.470  0.00  0.00    -0.273 OA
ATOM     18  C   UNL     1       0.694   3.437   0.587  0.00  0.00    +0.044 C 
ATOM     19  N   UNL     1      -2.475   2.658  -3.972  0.00  0.00    -0.295 NA
ATOM     20  C   UNL     1      -1.527   1.488  -3.958  0.00  0.00    +0.070 C 
ATOM     21  H   UNL     1      -5.111   4.893  -1.542  0.00  0.00    +0.155 HD
ATOM     22  H   UNL     1      -3.119   2.594  -4.745  0.00  0.00    +0.124 HD
ENDROOT
BRANCH  20  23
ATOM     23  C   UNL     1      -1.138   1.101  -5.386  0.00  0.00    +0.001 C 
ATOM     24  C   UNL     1      -0.331   2.236  -6.019  0.00  0.00    +0.009 C 
ATOM     25  C   UNL     1      -0.290  -0.172  -5.356  0.00  0.00    +0.009 C 
ENDBRANCH  20  23
BRANCH   1  26
ATOM     26  C   UNL     1      -1.339  -0.611   0.175  0.00  0.00    +0.081 C 
ATOM     27  C   UNL     1      -1.020   0.542   1.128  0.00  0.00    +0.028 C 
BRANCH  26  29
ATOM     28  C   UNL     1      -2.546  -2.786  -0.058  0.00  0.00    +0.006 C 
ATOM     29  C   UNL     1      -2.306  -1.582   0.855  0.00  0.00    +0.019 C 
ENDBRANCH  26  29
ENDBRANCH   1  26
TORSDOF 3
