REMARK  Name = ZINC00806438
REMARK  10 active torsions:
REMARK  status: ('A' for Active; 'I' for Inactive)
REMARK    1  A    between atoms: C_1  and  C_2
REMARK    2  A    between atoms: C_2  and  O_4
REMARK    3  A    between atoms: O_4  and  C_5
REMARK    4  A    between atoms: C_6  and  O_28
REMARK    5  A    between atoms: C_8  and  C_13
REMARK    6  A    between atoms: C_10  and  O_11
REMARK    7  A    between atoms: O_11  and  C_12
REMARK    8  A    between atoms: C_15  and  C_26
REMARK    9  A    between atoms: C_16  and  N_25
REMARK   10  A    between atoms: O_28  and  C_29
REMARK                            x       y       z     vdW  Elec       q    Type
REMARK                         _______ _______ _______ _____ _____    ______ ____
ROOT
ATOM      1  C   UNL     1      -0.018   1.499   0.010  0.00  0.00    +0.101 C 
ATOM      2  C   UNL     1       0.002  -0.004   0.002  0.00  0.00    +0.098 C 
ATOM      3  C   UNL     1       1.124  -0.676   0.356  0.00  0.00    +0.198 C 
ATOM      4  O   UNL     1       2.240  -0.028   0.726  0.00  0.00    -0.445 OA
ATOM      5  C   UNL     1       2.427   1.250   0.347  0.00  0.00    +0.115 C 
ATOM      6  C   UNL     1       1.392   2.037  -0.000  0.00  0.00    +0.046 C 
ATOM      7  C   UNL     1       1.588   3.378  -0.382  0.00  0.00    +0.163 C 
ATOM      8  O   UNL     1       0.629   4.053  -0.701  0.00  0.00    -0.292 OA
ATOM      9  C   UNL     1       2.962   3.991  -0.400  0.00  0.00    +0.080 C 
ATOM     10  C   UNL     1       3.837   3.277   0.636  0.00  0.00    +0.016 C 
ATOM     11  C   UNL     1       3.842   1.781   0.318  0.00  0.00    +0.075 C 
ENDROOT
BRANCH   1  15
ATOM     12  C   UNL     1      -2.035   2.871   3.527  0.00  0.00    +0.214 A 
ATOM     13  C   UNL     1      -2.521   3.208   2.269  0.00  0.00    +0.166 A 
ATOM     14  C   UNL     1      -1.864   2.761   1.132  0.00  0.00    +0.054 A 
ATOM     15  C   UNL     1      -0.728   1.982   1.249  0.00  0.00    -0.027 A 
ATOM     16  C   UNL     1      -0.245   1.641   2.498  0.00  0.00    +0.054 A 
ATOM     17  C   UNL     1      -0.892   2.087   3.640  0.00  0.00    +0.166 A 
BRANCH  17  18
ATOM     18  O   UNL     1      -0.413   1.755   4.868  0.00  0.00    -0.491 OA
ATOM     19  C   UNL     1       0.765   0.947   4.908  0.00  0.00    +0.277 C 
ENDBRANCH  17  18
BRANCH  13  20
ATOM     20  O   UNL     1      -3.638   3.974   2.153  0.00  0.00    -0.491 OA
ATOM     21  C   UNL     1      -4.080   4.281   0.829  0.00  0.00    +0.277 C 
ENDBRANCH  13  20
BRANCH  12  22
ATOM     22  O   UNL     1      -2.676   3.308   4.645  0.00  0.00    -0.419 OA
BRANCH  22  24
ATOM     23  C   UNL     1      -4.393   2.935   6.380  0.00  0.00    +0.136 C 
ATOM     24  C   UNL     1      -3.639   2.517   5.143  0.00  0.00    +0.309 C 
ATOM     25  O   UNL     1      -3.903   1.467   4.598  0.00  0.00    -0.251 OA
ENDBRANCH  22  24
ENDBRANCH  12  22
ENDBRANCH   1  15
BRANCH   3  26
ATOM     26  N   UNL     1       1.120  -2.049   0.337  0.00  0.00    -0.328 N 
ATOM     27  H   UNL     1       0.319  -2.528   0.072  0.00  0.00    +0.145 HD
ATOM     28  H   UNL     1       1.917  -2.540   0.589  0.00  0.00    +0.145 HD
ENDBRANCH   3  26
BRANCH   2  29
ATOM     29  C   UNL     1      -1.171  -0.730  -0.382  0.00  0.00    +0.101 C 
ATOM     30  N   UNL     1      -2.102  -1.306  -0.686  0.00  0.00    -0.191 NA
ENDBRANCH   2  29
TORSDOF 7
