REMARK  Name = ZINC24860047
REMARK  6 active torsions:
REMARK  status: ('A' for Active; 'I' for Inactive)
REMARK    1  A    between atoms: C_1  and  C_2
REMARK    2  A    between atoms: C_2  and  C_3
REMARK    3  A    between atoms: C_2  and  C_4
REMARK    4  A    between atoms: C_5  and  C_16
REMARK    5  A    between atoms: N_8  and  C_9
REMARK    6  A    between atoms: N_18  and  C_19
REMARK                            x       y       z     vdW  Elec       q    Type
REMARK                         _______ _______ _______ _____ _____    ______ ____
ROOT
ATOM      1  C   UNL     1      -2.813   8.027  -0.019  0.00  0.00    +0.060 A 
ATOM      2  C   UNL     1      -1.789   7.171   0.335  0.00  0.00    +0.078 A 
ATOM      3  C   UNL     1      -0.574   7.836   0.054  0.00  0.00    +0.148 A 
ATOM      4  N   UNL     1      -0.859   9.013  -0.432  0.00  0.00    -0.174 NA
ATOM      5  N   UNL     1      -2.250   9.157  -0.484  0.00  0.00    -0.236 N 
ENDROOT
BRANCH   5   6
ATOM      6  C   UNL     1      -2.940  10.286  -0.948  0.00  0.00    +0.066 A 
ATOM      7  C   UNL     1      -4.028  10.135  -1.797  0.00  0.00    +0.030 A 
ATOM      8  C   UNL     1      -4.710  11.248  -2.248  0.00  0.00    +0.040 A 
ATOM      9  C   UNL     1      -4.303  12.514  -1.863  0.00  0.00    +0.124 A 
ATOM     10  C   UNL     1      -3.215  12.667  -1.020  0.00  0.00    +0.040 A 
ATOM     11  C   UNL     1      -2.534  11.556  -0.562  0.00  0.00    +0.030 A 
ATOM     12  F   UNL     1      -4.968  13.602  -2.309  0.00  0.00    -0.205 F 
ENDBRANCH   5   6
BRANCH   2  13
ATOM     13  C   UNL     1      -1.935   5.816   0.896  0.00  0.00    +0.252 C 
ATOM     14  O   UNL     1      -3.041   5.322   1.013  0.00  0.00    -0.270 OA
ATOM     15  N   UNL     1      -0.844   5.124   1.279  0.00  0.00    -0.280 N 
ATOM     16  H   UNL     1       0.148   5.597   1.244  0.00  0.00    +0.155 HD
BRANCH  15  17
ATOM     17  C   UNL     1      -0.974   3.802   1.720  0.00  0.00    +0.059 A 
ATOM     18  C   UNL     1      -2.107   3.406   2.407  0.00  0.00    +0.025 A 
ATOM     19  C   UNL     1      -2.244   2.095   2.843  0.00  0.00    +0.003 A 
ATOM     20  C   UNL     1      -1.262   1.176   2.613  0.00  0.00    +0.011 A 
ATOM     21  C   UNL     1      -0.102   1.550   1.919  0.00  0.00    +0.021 A 
ATOM     22  C   UNL     1       0.042   2.874   1.470  0.00  0.00    +0.087 A 
ATOM     23  N   UNL     1       1.256   2.944   0.836  0.00  0.00    -0.275 N 
ATOM     24  H   UNL     1       1.593   3.894   0.395  0.00  0.00    +0.189 HD
ATOM     25  N   UNL     1       1.851   1.677   0.895  0.00  0.00    -0.181 NA
ATOM     26  C   UNL     1       1.066   0.853   1.526  0.00  0.00    +0.142 A 
ENDBRANCH  15  17
ENDBRANCH   2  13
BRANCH   1  28
ATOM     27  C   UNL     1      -4.653   6.550  -0.783  0.00  0.00    +0.014 C 
ATOM     28  C   UNL     1      -4.290   7.747   0.097  0.00  0.00    +0.032 C 
ATOM     29  C   UNL     1      -4.636   7.434   1.554  0.00  0.00    +0.014 C 
ENDBRANCH   1  28
TORSDOF 4
