REMARK  Name = ZINC08941461
REMARK  5 active torsions:
REMARK  status: ('A' for Active; 'I' for Inactive)
REMARK    1  A    between atoms: C_4  and  S_7
REMARK    2  A    between atoms: S_7  and  C_10
REMARK    3  A    between atoms: C_12  and  C_23
REMARK    4  A    between atoms: C_23  and  C_25
REMARK    5  A    between atoms: C_30  and  O_31
REMARK                            x       y       z     vdW  Elec       q    Type
REMARK                         _______ _______ _______ _____ _____    ______ ____
ROOT
ATOM      1  C   UNL     1      -0.254   5.867  -1.722  0.00  0.00    +0.137 A 
ATOM      2  C   UNL     1      -1.308   6.558  -2.217  0.00  0.00    +0.044 A 
ATOM      3  C   UNL     1      -1.204   7.178  -3.489  0.00  0.00    +0.041 A 
ATOM      4  C   UNL     1      -0.034   7.072  -4.207  0.00  0.00    +0.105 A 
ATOM      5  N   UNL     1       1.020   6.377  -3.706  0.00  0.00    -0.297 N 
ATOM      6  C   UNL     1       0.941   5.774  -2.474  0.00  0.00    +0.164 A 
ATOM      7  N   UNL     1       2.089   5.171  -2.209  0.00  0.00    -0.226 NA
ATOM      8  C   UNL     1       2.948   5.355  -3.231  0.00  0.00    +0.090 A 
ATOM      9  C   UNL     1       2.284   6.120  -4.207  0.00  0.00    +0.073 A 
ATOM     10  C   UNL     1       2.944   6.474  -5.374  0.00  0.00    +0.028 A 
ATOM     11  C   UNL     1       4.242   6.055  -5.580  0.00  0.00    +0.002 A 
ATOM     12  C   UNL     1       4.895   5.292  -4.622  0.00  0.00    +0.002 A 
ATOM     13  C   UNL     1       4.266   4.942  -3.462  0.00  0.00    +0.030 A 
ENDROOT
BRANCH   1  14
ATOM     14  S   UNL     1      -0.368   5.091  -0.144  0.00  0.00    +0.029 S 
ATOM     15  O   UNL     1      -1.680   5.346   0.340  0.00  0.00    -0.164 OA
ATOM     16  O   UNL     1       0.796   5.466   0.578  0.00  0.00    -0.164 OA
BRANCH  14  20
ATOM     17  C   UNL     1      -0.085   0.625  -0.826  0.00  0.00    +0.000 A 
ATOM     18  C   UNL     1      -1.318   1.250  -0.842  0.00  0.00    +0.002 A 
ATOM     19  C   UNL     1      -1.405   2.612  -0.628  0.00  0.00    +0.027 A 
ATOM     20  C   UNL     1      -0.258   3.352  -0.409  0.00  0.00    +0.094 A 
ATOM     21  C   UNL     1       0.975   2.728  -0.399  0.00  0.00    +0.027 A 
ATOM     22  C   UNL     1       1.062   1.365  -0.607  0.00  0.00    +0.002 A 
ENDBRANCH  14  20
ENDBRANCH   1  14
BRANCH   3  23
ATOM     23  C   UNL     1      -2.344   7.934  -4.039  0.00  0.00    +0.198 C 
ATOM     24  O   UNL     1      -2.555   7.929  -5.237  0.00  0.00    -0.286 OA
BRANCH  23  25
ATOM     25  C   UNL     1      -3.228   8.696  -3.138  0.00  0.00    +0.064 A 
ATOM     26  C   UNL     1      -2.912   8.820  -1.782  0.00  0.00    +0.015 A 
ATOM     27  C   UNL     1      -3.740   9.537  -0.946  0.00  0.00    +0.001 A 
ATOM     28  C   UNL     1      -4.891  10.128  -1.442  0.00  0.00    +0.004 A 
ATOM     29  C   UNL     1      -5.218  10.010  -2.778  0.00  0.00    +0.046 A 
ATOM     30  C   UNL     1      -4.394   9.296  -3.635  0.00  0.00    +0.128 A 
BRANCH  30  31
ATOM     31  O   UNL     1      -4.714   9.178  -4.948  0.00  0.00    -0.506 OA
ATOM     32  H   UNL     1      -5.262   8.408  -5.151  0.00  0.00    +0.292 HD
ENDBRANCH  30  31
ENDBRANCH  23  25
ENDBRANCH   3  23
TORSDOF 5
