REMARK  Name = ZINC60864288
REMARK  4 active torsions:
REMARK  status: ('A' for Active; 'I' for Inactive)
REMARK    1  A    between atoms: C_1  and  C_2
REMARK    2  A    between atoms: C_4  and  N_14
REMARK    3  A    between atoms: N_5  and  C_7
REMARK    4  A    between atoms: N_14  and  C_15
REMARK                            x       y       z     vdW  Elec       q    Type
REMARK                         _______ _______ _______ _____ _____    ______ ____
ROOT
ATOM      1  N   UNL     1       0.109  -3.228  -1.548  0.00  0.00    -0.305 N 
ATOM      2  H   UNL     1       0.324  -4.091  -1.161  0.00  0.00    +0.153 HD
ENDROOT
BRANCH   1   3
ATOM      3  C   UNL     1       0.031  -3.092  -2.889  0.00  0.00    +0.091 C 
ATOM      4  C   UNL     1       0.147  -4.202  -3.705  0.00  0.00    +0.113 C 
ATOM      5  C   UNL     1       0.166  -5.567  -3.148  0.00  0.00    +0.256 C 
ATOM      6  O   UNL     1       0.079  -5.754  -1.949  0.00  0.00    -0.270 OA
ATOM      7  N   UNL     1       0.281  -6.603  -4.004  0.00  0.00    -0.263 N 
ATOM      8  C   UNL     1       0.377  -6.411  -5.327  0.00  0.00    +0.143 C 
ATOM      9  S   UNL     1       0.520  -7.786  -6.338  0.00  0.00    -0.018 S 
ATOM     10  N   UNL     1       0.367  -5.200  -5.902  0.00  0.00    -0.263 N 
ATOM     11  C   UNL     1       0.251  -4.074  -5.169  0.00  0.00    +0.256 C 
ATOM     12  O   UNL     1       0.237  -2.980  -5.703  0.00  0.00    -0.270 OA
ATOM     13  H   UNL     1       0.295  -7.508  -3.654  0.00  0.00    +0.157 HD
ATOM     14  H   UNL     1       0.440  -5.133  -6.867  0.00  0.00    +0.157 HD
ENDBRANCH   1   3
BRANCH   1  18
ATOM     15  C   UNL     1      -0.918   1.392   0.029  0.00  0.00    +0.067 C 
ATOM     16  C   UNL     1      -0.575  -0.075   0.014  0.00  0.00    +0.062 A 
ATOM     17  C   UNL     1      -0.429  -0.868  -1.128  0.00  0.00    +0.068 A 
ATOM     18  C   UNL     1      -0.119  -2.131  -0.723  0.00  0.00    +0.126 A 
ATOM     19  N   UNL     1      -0.074  -2.123   0.638  0.00  0.00    -0.218 N 
ATOM     20  N   UNL     1      -0.360  -0.821   1.068  0.00  0.00    -0.170 NA
BRANCH  19  21
ATOM     21  C   UNL     1       0.211  -3.221   1.461  0.00  0.00    +0.068 A 
ATOM     22  C   UNL     1      -0.207  -4.493   1.094  0.00  0.00    +0.029 A 
ATOM     23  C   UNL     1       0.075  -5.573   1.907  0.00  0.00    +0.022 A 
ATOM     24  C   UNL     1       0.774  -5.389   3.087  0.00  0.00    +0.041 A 
ATOM     25  C   UNL     1       1.191  -4.122   3.456  0.00  0.00    +0.022 A 
ATOM     26  C   UNL     1       0.917  -3.039   2.643  0.00  0.00    +0.029 A 
ATOM     27 CL   UNL     1       1.127  -6.748   4.107  0.00  0.00    -0.084 Cl
ENDBRANCH  19  21
ENDBRANCH   1  18
TORSDOF 3
