REMARK  Name = ZINC21658683
REMARK  8 active torsions:
REMARK  status: ('A' for Active; 'I' for Inactive)
REMARK    1  A    between atoms: C_1  and  O_2
REMARK    2  A    between atoms: O_2  and  C_3
REMARK    3  A    between atoms: C_6  and  C_11
REMARK    4  A    between atoms: C_8  and  O_9
REMARK    5  A    between atoms: O_9  and  C_10
REMARK    6  A    between atoms: C_14  and  C_20
REMARK    7  A    between atoms: N_16  and  C_17
REMARK    8  A    between atoms: C_17  and  N_19
REMARK                            x       y       z     vdW  Elec       q    Type
REMARK                         _______ _______ _______ _____ _____    ______ ____
ROOT
ATOM      1  C   UNL     1      -1.118   7.126   1.854  0.00  0.00    +0.136 C 
ATOM      2  C   UNL     1       0.217   7.718   2.349  0.00  0.00    +0.087 C 
ATOM      3  C   UNL     1       0.621   8.672   1.244  0.00  0.00    +0.069 C 
ATOM      4  N   UNL     1      -0.268   8.653   0.311  0.00  0.00    -0.182 NA
ATOM      5  N   UNL     1      -1.331   7.787   0.556  0.00  0.00    -0.197 N 
ENDROOT
BRANCH   3   6
ATOM      6  C   UNL     1       1.843   9.497   1.237  0.00  0.00    +0.002 A 
ATOM      7  C   UNL     1       2.734   9.438   2.312  0.00  0.00    +0.013 A 
ATOM      8  C   UNL     1       3.878  10.207   2.301  0.00  0.00    +0.050 A 
ATOM      9  C   UNL     1       4.145  11.049   1.231  0.00  0.00    +0.166 A 
ATOM     10  C   UNL     1       3.257  11.117   0.157  0.00  0.00    +0.167 A 
ATOM     11  C   UNL     1       2.111  10.345   0.159  0.00  0.00    +0.059 A 
ATOM     12  O   UNL     1       3.744  12.009  -0.754  0.00  0.00    -0.453 OA
ATOM     13  C   UNL     1       4.724  12.788  -0.044  0.00  0.00    +0.466 C 
ATOM     14  O   UNL     1       5.185  11.899   0.990  0.00  0.00    -0.453 OA
ENDBRANCH   3   6
BRANCH   1  18
ATOM     15  C   UNL     1      -0.787   2.893   1.346  0.00  0.00    +0.162 A 
ATOM     16  C   UNL     1      -0.259   3.751   0.395  0.00  0.00    +0.050 A 
ATOM     17  C   UNL     1      -0.368   5.119   0.562  0.00  0.00    +0.009 A 
ATOM     18  C   UNL     1      -1.003   5.634   1.677  0.00  0.00    -0.021 A 
ATOM     19  C   UNL     1      -1.532   4.784   2.629  0.00  0.00    +0.055 A 
ATOM     20  C   UNL     1      -1.432   3.411   2.465  0.00  0.00    +0.162 A 
BRANCH  15  22
ATOM     21  C   UNL     1      -0.013   1.086   0.008  0.00  0.00    +0.277 C 
ATOM     22  O   UNL     1      -0.682   1.547   1.184  0.00  0.00    -0.491 OA
ENDBRANCH  15  22
BRANCH  20  23
ATOM     23  O   UNL     1      -1.957   2.573   3.399  0.00  0.00    -0.491 OA
ATOM     24  C   UNL     1      -2.603   3.176   4.521  0.00  0.00    +0.277 C 
ENDBRANCH  20  23
ENDBRANCH   1  18
BRANCH   5  25
ATOM     25  C   UNL     1      -2.384   7.587  -0.262  0.00  0.00    +0.151 C 
ATOM     26  S   UNL     1      -3.615   6.484   0.183  0.00  0.00    -0.017 S 
BRANCH  25  27
ATOM     27  N   UNL     1      -2.466   8.255  -1.429  0.00  0.00    -0.339 N 
ATOM     28  H   UNL     1      -3.325   8.091  -2.097  0.00  0.00    +0.144 HD
ATOM     29  H   UNL     1      -1.675   8.963  -1.715  0.00  0.00    +0.144 HD
ENDBRANCH  25  27
ENDBRANCH   5  25
TORSDOF 6
