REMARK  Name = ZINC36610066
REMARK  12 active torsions:
REMARK  status: ('A' for Active; 'I' for Inactive)
REMARK    1  A    between atoms: C_1  and  C_2
REMARK    2  A    between atoms: C_2  and  C_3
REMARK    3  A    between atoms: C_3  and  C_4
REMARK    4  A    between atoms: C_4  and  N_5
REMARK    5  A    between atoms: C_6  and  C_8
REMARK    6  A    between atoms: C_8  and  C_10
REMARK    7  A    between atoms: C_8  and  N_20
REMARK    8  A    between atoms: C_13  and  C_16
REMARK    9  A    between atoms: N_20  and  C_21
REMARK   10  A    between atoms: C_27  and  C_29
REMARK   11  A    between atoms: C_30  and  O_36
REMARK   12  A    between atoms: C_34  and  O_35
REMARK                            x       y       z     vdW  Elec       q    Type
REMARK                         _______ _______ _______ _____ _____    ______ ____
ROOT
ATOM      1  C   UNL     1       2.113  -4.619   3.901  0.00  0.00    +0.197 C 
ENDROOT
BRANCH   1   2
ATOM      2  C   UNL     1       1.195  -4.522   5.093  0.00  0.00    -0.018 A 
ATOM      3  C   UNL     1       0.238  -5.495   5.309  0.00  0.00    +0.006 A 
ATOM      4  C   UNL     1      -0.604  -5.407   6.402  0.00  0.00    +0.013 A 
ATOM      5  C   UNL     1      -0.488  -4.345   7.279  0.00  0.00    +0.055 A 
ATOM      6  C   UNL     1       0.470  -3.372   7.064  0.00  0.00    +0.013 A 
ATOM      7  C   UNL     1       1.314  -3.463   5.973  0.00  0.00    +0.006 A 
BRANCH   5   8
ATOM      8  C   UNL     1      -1.407  -4.248   8.470  0.00  0.00    +0.417 C 
ATOM      9  F   UNL     1      -0.828  -4.907   9.559  0.00  0.00    -0.166 F 
ATOM     10  F   UNL     1      -1.609  -2.902   8.794  0.00  0.00    -0.166 F 
ATOM     11  F   UNL     1      -2.634  -4.843   8.162  0.00  0.00    -0.166 F 
ENDBRANCH   5   8
ENDBRANCH   1   2
BRANCH   1  13
ATOM     12  N   UNL     1       0.553  -3.446   2.381  0.00  0.00    -0.313 N 
ATOM     13  C   UNL     1       1.301  -4.538   2.634  0.00  0.00    +0.238 C 
ATOM     14  O   UNL     1       1.321  -5.457   1.842  0.00  0.00    -0.273 OA
ATOM     15  H   UNL     1       0.537  -2.712   3.015  0.00  0.00    +0.149 HD
BRANCH  12  16
ATOM     16  C   UNL     1      -0.236  -3.368   1.149  0.00  0.00    +0.104 C 
BRANCH  16  17
ATOM     17  C   UNL     1      -0.987  -2.035   1.108  0.00  0.00    +0.018 C 
BRANCH  17  19
ATOM     18  C   UNL     1      -2.562  -0.621  -0.219  0.00  0.00    +0.004 C 
ATOM     19  C   UNL     1      -1.811  -1.954  -0.178  0.00  0.00    -0.002 C 
ENDBRANCH  17  19
ENDBRANCH  16  17
ENDBRANCH  12  16
ENDBRANCH   1  13
BRANCH   1  20
ATOM     20  N   UNL     1       2.831  -5.895   3.941  0.00  0.00    -0.251 N 
ATOM     21  C   UNL     1       3.808  -6.146   3.047  0.00  0.00    +0.259 C 
ATOM     22  O   UNL     1       4.031  -5.354   2.151  0.00  0.00    -0.269 OA
BRANCH  20  23
ATOM     23  C   UNL     1       2.504  -6.852   4.906  0.00  0.00    +0.038 A 
ATOM     24  C   UNL     1       1.909  -8.048   4.525  0.00  0.00    +0.023 A 
ATOM     25  C   UNL     1       1.586  -8.992   5.481  0.00  0.00    +0.002 A 
ATOM     26  C   UNL     1       1.855  -8.747   6.815  0.00  0.00    +0.000 A 
ATOM     27  C   UNL     1       2.447  -7.557   7.197  0.00  0.00    +0.002 A 
ATOM     28  C   UNL     1       2.777  -6.612   6.246  0.00  0.00    +0.023 A 
ENDBRANCH  20  23
BRANCH  21  29
ATOM     29  C   UNL     1       4.606  -7.378   3.155  0.00  0.00    +0.120 A 
ATOM     30  C   UNL     1       4.273  -8.505   2.389  0.00  0.00    +0.133 A 
ATOM     31  C   UNL     1       5.031  -9.659   2.499  0.00  0.00    +0.046 A 
ATOM     32  C   UNL     1       6.113  -9.703   3.359  0.00  0.00    +0.007 A 
ATOM     33  C   UNL     1       6.450  -8.598   4.119  0.00  0.00    +0.046 A 
ATOM     34  C   UNL     1       5.709  -7.432   4.021  0.00  0.00    +0.133 A 
BRANCH  34  35
ATOM     35  O   UNL     1       6.045  -6.347   4.763  0.00  0.00    -0.506 OA
ATOM     36  H   UNL     1       5.617  -6.316   5.630  0.00  0.00    +0.292 HD
ENDBRANCH  34  35
BRANCH  30  37
ATOM     37  O   UNL     1       3.212  -8.464   1.545  0.00  0.00    -0.506 OA
ATOM     38  H   UNL     1       3.432  -8.168   0.651  0.00  0.00    +0.292 HD
ENDBRANCH  30  37
ENDBRANCH  21  29
ENDBRANCH   1  20
TORSDOF 11
