REMARK  Name = ZINC10709589
REMARK  12 active torsions:
REMARK  status: ('A' for Active; 'I' for Inactive)
REMARK    1  A    between atoms: C_1  and  C_2
REMARK    2  A    between atoms: C_2  and  O_3
REMARK    3  A    between atoms: O_3  and  C_4
REMARK    4  A    between atoms: C_4  and  C_6
REMARK    5  A    between atoms: C_7  and  C_28
REMARK    6  A    between atoms: C_8  and  C_27
REMARK    7  A    between atoms: C_10  and  N_11
REMARK    8  A    between atoms: C_12  and  C_14
REMARK    9  A    between atoms: C_14  and  S_15
REMARK   10  A    between atoms: S_15  and  C_16
REMARK   11  A    between atoms: C_19  and  C_22
REMARK   12  A    between atoms: N_20  and  C_21
REMARK                            x       y       z     vdW  Elec       q    Type
REMARK                         _______ _______ _______ _____ _____    ______ ____
ROOT
ATOM      1  C   UNL     1       4.081  14.364   0.003  0.00  0.00    +0.095 A 
ATOM      2  C   UNL     1       5.231  15.222   0.215  0.00  0.00    +0.008 A 
ATOM      3  C   UNL     1       6.396  14.610   0.549  0.00  0.00    -0.003 A 
ATOM      4  S   UNL     1       5.955  12.885   0.589  0.00  0.00    -0.077 S 
ATOM      5  C   UNL     1       4.279  13.000   0.172  0.00  0.00    +0.087 A 
ATOM      6  C   UNL     1       7.738  15.238   0.822  0.00  0.00    +0.052 C 
ENDROOT
BRANCH   2   7
ATOM      7  C   UNL     1       5.141  16.694   0.068  0.00  0.00    -0.016 A 
ATOM      8  C   UNL     1       4.343  17.437   0.936  0.00  0.00    +0.008 A 
ATOM      9  C   UNL     1       4.268  18.808   0.798  0.00  0.00    +0.001 A 
ATOM     10  C   UNL     1       4.973  19.444  -0.207  0.00  0.00    +0.000 A 
ATOM     11  C   UNL     1       5.763  18.712  -1.076  0.00  0.00    +0.001 A 
ATOM     12  C   UNL     1       5.850  17.341  -0.944  0.00  0.00    +0.008 A 
ENDBRANCH   2   7
BRANCH   5  13
ATOM     13  N   UNL     1       3.356  11.976   0.035  0.00  0.00    -0.279 N 
ATOM     14  C   UNL     1       3.734  10.697   0.235  0.00  0.00    +0.228 C 
ATOM     15  O   UNL     1       4.882  10.444   0.535  0.00  0.00    -0.275 OA
ATOM     16  H   UNL     1       2.439  12.178  -0.205  0.00  0.00    +0.155 HD
BRANCH  14  17
ATOM     17  C   UNL     1       2.731   9.583   0.085  0.00  0.00    +0.173 C 
BRANCH  17  18
ATOM     18  S   UNL     1       3.538   7.997   0.415  0.00  0.00    -0.077 S 
BRANCH  18  19
ATOM     19  C   UNL     1       2.175   6.905   0.176  0.00  0.00    +0.192 A 
ATOM     20  N   UNL     1       0.950   7.248  -0.151  0.00  0.00    -0.122 NA
ATOM     21  N   UNL     1       0.209   6.203  -0.249  0.00  0.00    -0.128 NA
ATOM     22  C   UNL     1       0.914   5.126   0.019  0.00  0.00    +0.171 A 
ATOM     23  N   UNL     1       2.197   5.543   0.297  0.00  0.00    -0.305 N 
ATOM     24  C   UNL     1       3.345   4.703   0.646  0.00  0.00    +0.153 C 
BRANCH  22  25
ATOM     25  C   UNL     1       0.426   3.737   0.017  0.00  0.00    +0.056 A 
ATOM     26  C   UNL     1      -0.866   3.275   0.026  0.00  0.00    +0.019 A 
ATOM     27  C   UNL     1      -1.081   1.915   0.017  0.00  0.00    +0.008 A 
ATOM     28  C   UNL     1      -0.013   1.076   0.008  0.00  0.00    +0.046 A 
ATOM     29  S   UNL     1       1.361   2.216   0.001  0.00  0.00    -0.094 S 
ENDBRANCH  22  25
ENDBRANCH  18  19
ENDBRANCH  17  18
ENDBRANCH  14  17
ENDBRANCH   5  13
BRANCH   1  30
ATOM     30  C   UNL     1       2.775  14.910  -0.367  0.00  0.00    +0.342 C 
ATOM     31  O   UNL     1       1.981  15.227   0.498  0.00  0.00    -0.245 OA
BRANCH  30  32
ATOM     32  O   UNL     1       2.451  15.061  -1.668  0.00  0.00    -0.461 OA
BRANCH  32  34
ATOM     33  C   UNL     1       0.953  15.705  -3.477  0.00  0.00    +0.048 C 
ATOM     34  C   UNL     1       1.138  15.608  -1.961  0.00  0.00    +0.229 C 
ENDBRANCH  32  34
ENDBRANCH  30  32
ENDBRANCH   1  30
TORSDOF 9
