REMARK  Name = ZINC66047834
REMARK  10 active torsions:
REMARK  status: ('A' for Active; 'I' for Inactive)
REMARK    1  A    between atoms: C_1  and  C_2
REMARK    2  A    between atoms: C_5  and  C_9
REMARK    3  A    between atoms: C_6  and  O_8
REMARK    4  A    between atoms: N_11  and  N_12
REMARK    5  A    between atoms: C_13  and  C_15
REMARK    6  A    between atoms: C_15  and  C_17
REMARK    7  A    between atoms: C_20  and  C_23
REMARK    8  A    between atoms: C_23  and  C_24
REMARK    9  A    between atoms: C_23  and  C_25
REMARK   10  A    between atoms: C_23  and  C_26
REMARK                            x       y       z     vdW  Elec       q    Type
REMARK                         _______ _______ _______ _____ _____    ______ ____
ROOT
ATOM      1  N   UNL     1       0.215  -6.310  -1.239  0.00  0.00    -0.227 N 
ATOM      2  C   UNL     1      -0.002  -6.983  -2.387  0.00  0.00    +0.300 C 
ATOM      3  O   UNL     1      -0.280  -6.378  -3.401  0.00  0.00    -0.265 OA
ATOM      4  H   UNL     1       0.437  -6.793  -0.428  0.00  0.00    +0.173 HD
ENDROOT
BRANCH   1   7
ATOM      5  C   UNL     1       0.335  -4.240  -0.070  0.00  0.00    +0.264 C 
ATOM      6  O   UNL     1       0.614  -4.846   0.947  0.00  0.00    -0.269 OA
ATOM      7  N   UNL     1       0.119  -4.913  -1.218  0.00  0.00    -0.230 N 
ATOM      8  H   UNL     1      -0.103  -4.429  -2.029  0.00  0.00    +0.173 HD
BRANCH   5  13
ATOM      9  C   UNL     1      -0.062   1.502   0.012  0.00  0.00    +0.044 C 
ATOM     10  C   UNL     1       0.043  -0.001  -0.006  0.00  0.00    -0.047 A 
ATOM     11  C   UNL     1      -0.179  -0.693  -1.186  0.00  0.00    +0.004 A 
ATOM     12  C   UNL     1      -0.085  -2.068  -1.214  0.00  0.00    +0.017 A 
ATOM     13  C   UNL     1       0.234  -2.768  -0.048  0.00  0.00    +0.079 A 
ATOM     14  C   UNL     1       0.458  -2.064   1.143  0.00  0.00    +0.129 A 
ATOM     15  C   UNL     1       0.365  -0.680   1.152  0.00  0.00    +0.049 A 
BRANCH  14  16
ATOM     16  O   UNL     1       0.769  -2.733   2.282  0.00  0.00    -0.506 OA
ATOM     17  H   UNL     1       1.718  -2.865   2.414  0.00  0.00    +0.292 HD
ENDBRANCH  14  16
ENDBRANCH   5  13
ENDBRANCH   1   7
BRANCH   2  18
ATOM     18  C   UNL     1       0.101  -8.472  -2.409  0.00  0.00    +0.249 C 
ATOM     19  O   UNL     1       0.273  -9.085  -1.376  0.00  0.00    -0.282 OA
BRANCH  18  20
ATOM     20  C   UNL     1      -0.008  -9.199  -3.687  0.00  0.00    +0.027 A 
ATOM     21  C   UNL     1      -0.018  -8.496  -4.897  0.00  0.00    +0.012 A 
ATOM     22  C   UNL     1      -0.119  -9.183  -6.088  0.00  0.00    +0.005 A 
ATOM     23  C   UNL     1      -0.211 -10.565  -6.089  0.00  0.00    -0.042 A 
ATOM     24  C   UNL     1      -0.201 -11.267  -4.896  0.00  0.00    +0.005 A 
ATOM     25  C   UNL     1      -0.095 -10.595  -3.697  0.00  0.00    +0.012 A 
BRANCH  23  26
ATOM     26  C   UNL     1      -0.321 -11.308  -7.395  0.00  0.00    -0.013 C 
ATOM     27  C   UNL     1       0.911 -11.016  -8.254  0.00  0.00    +0.015 C 
ATOM     28  C   UNL     1      -0.408 -12.811  -7.121  0.00  0.00    +0.015 C 
ATOM     29  C   UNL     1      -1.579 -10.851  -8.136  0.00  0.00    +0.015 C 
ENDBRANCH  23  26
ENDBRANCH  18  20
ENDBRANCH   2  18
TORSDOF 6
