REMARK  Name = ZINC18200262
REMARK  9 active torsions:
REMARK  status: ('A' for Active; 'I' for Inactive)
REMARK    1  A    between atoms: C_1  and  O_2
REMARK    2  A    between atoms: O_2  and  C_3
REMARK    3  A    between atoms: C_5  and  C_13
REMARK    4  A    between atoms: C_7  and  O_11
REMARK    5  A    between atoms: C_8  and  O_9
REMARK    6  A    between atoms: O_9  and  C_10
REMARK    7  A    between atoms: O_11  and  C_12
REMARK    8  A    between atoms: C_22  and  N_26
REMARK    9  A    between atoms: C_23  and  C_24
REMARK                            x       y       z     vdW  Elec       q    Type
REMARK                         _______ _______ _______ _____ _____    ______ ____
ROOT
ATOM      1  C   UNL     1      -0.074   5.636   0.032  0.00  0.00    +0.098 C 
ATOM      2  C   UNL     1      -0.774   6.120   1.275  0.00  0.00    +0.008 A 
ATOM      3  C   UNL     1      -0.111   6.103   2.484  0.00  0.00    +0.013 A 
ATOM      4  C   UNL     1      -0.739   6.536   3.644  0.00  0.00    -0.026 A 
ATOM      5  C   UNL     1      -2.059   6.971   3.596  0.00  0.00    +0.040 A 
ATOM      6  C   UNL     1      -2.717   7.023   2.375  0.00  0.00    +0.017 A 
ATOM      7  C   UNL     1      -2.072   6.591   1.215  0.00  0.00    +0.139 A 
ATOM      8  O   UNL     1      -2.742   6.644   0.037  0.00  0.00    -0.441 OA
ATOM      9  C   UNL     1      -2.062   6.598  -1.121  0.00  0.00    +0.199 C 
ATOM     10  C   UNL     1      -0.796   6.131  -1.190  0.00  0.00    +0.098 C 
ATOM     11  C   UNL     1      -4.119   7.543   2.217  0.00  0.00    +0.042 C 
ATOM     12  C   UNL     1      -4.709   8.019   3.536  0.00  0.00    +0.024 C 
ATOM     13  C   UNL     1      -4.165   7.160   4.676  0.00  0.00    +0.105 C 
ATOM     14  N   UNL     1      -2.713   7.359   4.765  0.00  0.00    -0.329 N 
ATOM     15  C   UNL     1      -2.187   6.663   5.947  0.00  0.00    +0.105 C 
ATOM     16  C   UNL     1      -0.709   7.018   6.108  0.00  0.00    +0.024 C 
ATOM     17  C   UNL     1       0.070   6.499   4.910  0.00  0.00    +0.038 C 
ENDROOT
BRANCH   1  20
ATOM     18  C   UNL     1      -1.228   2.037   0.019  0.00  0.00    +0.165 A 
ATOM     19  C   UNL     1      -1.243   3.424   0.032  0.00  0.00    +0.054 A 
ATOM     20  C   UNL     1      -0.054   4.129   0.024  0.00  0.00    -0.028 A 
ATOM     21  C   UNL     1       1.153   3.456   0.010  0.00  0.00    +0.054 A 
ATOM     22  C   UNL     1       1.177   2.070   0.002  0.00  0.00    +0.165 A 
ATOM     23  C   UNL     1      -0.016   1.357   0.009  0.00  0.00    +0.204 A 
BRANCH  18  25
ATOM     24  C   UNL     1      -3.605   2.109   0.030  0.00  0.00    +0.277 C 
ATOM     25  O   UNL     1      -2.398   1.344   0.020  0.00  0.00    -0.491 OA
ENDBRANCH  18  25
BRANCH  23  26
ATOM     26  O   UNL     1       0.002  -0.004   0.002  0.00  0.00    -0.488 OA
ATOM     27  C   UNL     1       0.023  -0.660   1.272  0.00  0.00    +0.277 C 
ENDBRANCH  23  26
BRANCH  22  28
ATOM     28  O   UNL     1       2.365   1.409  -0.013  0.00  0.00    -0.491 OA
ATOM     29  C   UNL     1       3.551   2.206  -0.020  0.00  0.00    +0.277 C 
ENDBRANCH  22  28
ENDBRANCH   1  20
BRANCH   9  30
ATOM     30  N   UNL     1      -2.673   7.040  -2.269  0.00  0.00    -0.328 N 
ATOM     31  H   UNL     1      -3.582   7.377  -2.236  0.00  0.00    +0.145 HD
ATOM     32  H   UNL     1      -2.196   7.013  -3.113  0.00  0.00    +0.145 HD
ENDBRANCH   9  30
BRANCH  10  33
ATOM     33  C   UNL     1      -0.128   6.108  -2.457  0.00  0.00    +0.101 C 
ATOM     34  N   UNL     1       0.401   6.090  -3.461  0.00  0.00    -0.191 NA
ENDBRANCH  10  33
TORSDOF 6
