REMARK  Name = ZINC07145331
REMARK  4 active torsions:
REMARK  status: ('A' for Active; 'I' for Inactive)
REMARK    1  A    between atoms: C_6  and  C_7
REMARK    2  A    between atoms: C_10  and  S_12
REMARK    3  A    between atoms: S_12  and  C_13
REMARK    4  A    between atoms: C_13  and  C_14
REMARK                            x       y       z     vdW  Elec       q    Type
REMARK                         _______ _______ _______ _____ _____    ______ ____
ROOT
ATOM      1  S   UNL     1      -0.860   1.669   1.497  0.00  0.00    -0.058 S 
ENDROOT
BRANCH   1   5
ATOM      2  C   UNL     1       1.027   0.378   4.632  0.00  0.00    +0.249 A 
ATOM      3  N   UNL     1       1.750  -0.120   3.659  0.00  0.00    -0.106 NA
ATOM      4  N   UNL     1       1.243   0.227   2.528  0.00  0.00    -0.101 NA
ATOM      5  C   UNL     1       0.174   0.961   2.735  0.00  0.00    +0.278 A 
ATOM      6  O   UNL     1       0.017   1.077   4.068  0.00  0.00    -0.411 OA
BRANCH   2  12
ATOM      7  C   UNL     1       0.419   0.806   7.009  0.00  0.00    +0.014 A 
ATOM      8  C   UNL     1       0.651   0.642   8.358  0.00  0.00    +0.016 A 
ATOM      9  C   UNL     1       1.736  -0.102   8.791  0.00  0.00    +0.018 A 
ATOM     10  C   UNL     1       2.590  -0.690   7.874  0.00  0.00    +0.016 A 
ATOM     11  C   UNL     1       2.365  -0.538   6.522  0.00  0.00    +0.014 A 
ATOM     12  C   UNL     1       1.273   0.211   6.079  0.00  0.00    +0.039 A 
ATOM     13 BR   UNL     1       2.051  -0.316  10.644  0.00  0.00    -0.050 Br
ENDBRANCH   2  12
ENDBRANCH   1   5
BRANCH   1  14
ATOM     14  C   UNL     1      -0.013   1.086   0.008  0.00  0.00    +0.155 C 
BRANCH  14  15
ATOM     15  C   UNL     1      -0.742   1.585  -1.213  0.00  0.00    +0.146 A 
ATOM     16  N   UNL     1      -1.705   0.857  -1.749  0.00  0.00    -0.199 NA
ATOM     17  C   UNL     1      -2.354   1.296  -2.825  0.00  0.00    +0.217 A 
ATOM     18  N   UNL     1      -2.026   2.465  -3.365  0.00  0.00    -0.181 NA
ATOM     19  C   UNL     1      -1.053   3.192  -2.826  0.00  0.00    +0.217 A 
ATOM     20  N   UNL     1      -0.412   2.748  -1.748  0.00  0.00    -0.199 NA
ATOM     21  N   UNL     1      -0.708   4.405  -3.385  0.00  0.00    -0.327 N 
ATOM     22  N   UNL     1      -3.364   0.537  -3.380  0.00  0.00    -0.327 N 
ATOM     23  H   UNL     1       0.003   4.936  -2.991  0.00  0.00    +0.145 HD
ATOM     24  H   UNL     1      -1.175   4.728  -4.171  0.00  0.00    +0.145 HD
ATOM     25  H   UNL     1      -3.834   0.857  -4.166  0.00  0.00    +0.145 HD
ATOM     26  H   UNL     1      -3.603  -0.315  -2.985  0.00  0.00    +0.145 HD
ENDBRANCH  14  15
ENDBRANCH   1  14
TORSDOF 4
