REMARK  Name = ZINC35853283
REMARK  10 active torsions:
REMARK  status: ('A' for Active; 'I' for Inactive)
REMARK    1  A    between atoms: C_1  and  C_2
REMARK    2  A    between atoms: C_5  and  S_8
REMARK    3  A    between atoms: S_8  and  N_11
REMARK    4  A    between atoms: N_11  and  C_12
REMARK    5  A    between atoms: N_11  and  C_19
REMARK    6  A    between atoms: N_22  and  C_25
REMARK    7  A    between atoms: C_25  and  C_26
REMARK    8  A    between atoms: C_29  and  O_33
REMARK    9  A    between atoms: C_30  and  O_32
REMARK   10  A    between atoms: O_33  and  C_34
REMARK                            x       y       z     vdW  Elec       q    Type
REMARK                         _______ _______ _______ _____ _____    ______ ____
ROOT
ATOM      1  N   UNL     1       1.651  -4.999  -0.034  0.00  0.00    -0.200 N 
ENDROOT
BRANCH   1   2
ATOM      2  C   UNL     1       2.305  -5.120   1.196  0.00  0.00    +0.052 A 
ATOM      3  C   UNL     1       3.455  -4.383   1.447  0.00  0.00    +0.027 A 
ATOM      4  C   UNL     1       4.100  -4.504   2.662  0.00  0.00    +0.040 A 
ATOM      5  C   UNL     1       3.600  -5.359   3.630  0.00  0.00    +0.124 A 
ATOM      6  C   UNL     1       2.454  -6.095   3.382  0.00  0.00    +0.040 A 
ATOM      7  C   UNL     1       1.803  -5.973   2.170  0.00  0.00    +0.027 A 
ATOM      8  F   UNL     1       4.232  -5.476   4.818  0.00  0.00    -0.205 F 
ENDBRANCH   1   2
BRANCH   1   9
ATOM      9  C   UNL     1       1.998  -5.895  -1.140  0.00  0.00    +0.095 C 
ATOM     10  C   UNL     1       3.493  -5.770  -1.450  0.00  0.00    +0.006 C 
ATOM     11  C   UNL     1       3.865  -6.765  -2.552  0.00  0.00    -0.077 C 
ATOM     12  N   UNL     1       3.570  -8.131  -2.102  0.00  0.00    +0.382 N 
ATOM     13  C   UNL     1       2.127  -8.279  -1.871  0.00  0.00    -0.077 C 
ATOM     14  C   UNL     1       1.689  -7.342  -0.744  0.00  0.00    +0.006 C 
ATOM     15  H   UNL     1       4.067  -8.316  -1.244  0.00  0.00    -0.081 HD
BRANCH  12  16
ATOM     16  C   UNL     1       4.000  -9.087  -3.131  0.00  0.00    -0.043 C 
BRANCH  16  17
ATOM     17  C   UNL     1       3.811 -10.493  -2.621  0.00  0.00    -0.060 A 
ATOM     18  C   UNL     1       4.832 -11.119  -1.931  0.00  0.00    +0.005 A 
ATOM     19  C   UNL     1       4.664 -12.409  -1.461  0.00  0.00    +0.049 A 
ATOM     20  C   UNL     1       3.469 -13.075  -1.681  0.00  0.00    +0.161 A 
ATOM     21  C   UNL     1       2.441 -12.444  -2.374  0.00  0.00    +0.159 A 
ATOM     22  C   UNL     1       2.614 -11.150  -2.838  0.00  0.00    +0.051 A 
BRANCH  21  23
ATOM     23  O   UNL     1       1.266 -13.094  -2.592  0.00  0.00    -0.503 OA
ATOM     24  H   UNL     1       0.609 -12.964  -1.894  0.00  0.00    +0.292 HD
ENDBRANCH  21  23
BRANCH  20  25
ATOM     25  O   UNL     1       3.302 -14.344  -1.219  0.00  0.00    -0.491 OA
ATOM     26  C   UNL     1       4.400 -14.928  -0.516  0.00  0.00    +0.277 C 
ENDBRANCH  20  25
ENDBRANCH  16  17
ENDBRANCH  12  16
ENDBRANCH   1   9
BRANCH   1  27
ATOM     27  S   UNL     1       0.483  -3.844  -0.241  0.00  0.00    +0.075 S 
ATOM     28  O   UNL     1      -0.087  -3.609   1.040  0.00  0.00    -0.150 OA
ATOM     29  O   UNL     1      -0.295  -4.248  -1.359  0.00  0.00    -0.150 OA
BRANCH  27  34
ATOM     30  C   UNL     1       3.280   1.257  -1.843  0.00  0.00    +0.044 C 
ATOM     31  C   UNL     1       2.582  -0.017  -1.443  0.00  0.00    -0.050 A 
ATOM     32  C   UNL     1       2.162  -0.909  -2.412  0.00  0.00    +0.005 A 
ATOM     33  C   UNL     1       1.521  -2.078  -2.045  0.00  0.00    +0.029 A 
ATOM     34  C   UNL     1       1.301  -2.355  -0.709  0.00  0.00    +0.109 A 
ATOM     35  C   UNL     1       1.721  -1.463   0.261  0.00  0.00    +0.029 A 
ATOM     36  C   UNL     1       2.366  -0.296  -0.106  0.00  0.00    +0.005 A 
ENDBRANCH  27  34
ENDBRANCH   1  27
TORSDOF 8
