REMARK  Name = ZINC08206031
REMARK  5 active torsions:
REMARK  status: ('A' for Active; 'I' for Inactive)
REMARK    1  A    between atoms: C_3  and  C_10
REMARK    2  A    between atoms: C_5  and  N_7
REMARK    3  A    between atoms: N_12  and  C_13
REMARK    4  A    between atoms: C_13  and  C_14
REMARK    5  A    between atoms: N_16  and  C_17
REMARK                            x       y       z     vdW  Elec       q    Type
REMARK                         _______ _______ _______ _____ _____    ______ ____
ROOT
ATOM      1  C   UNL     1      -0.071   5.323   0.020  0.00  0.00    +0.245 C 
ATOM      2  O   UNL     1      -1.131   5.917   0.024  0.00  0.00    -0.270 OA
ATOM      3  N   UNL     1       1.087   6.013   0.019  0.00  0.00    -0.303 N 
ATOM      4  H   UNL     1       1.934   5.539   0.016  0.00  0.00    +0.150 HD
ENDROOT
BRANCH   1   7
ATOM      5  C   UNL     1       1.177   1.781   0.009  0.00  0.00    +0.003 A 
ATOM      6  C   UNL     1       1.165   3.161   0.012  0.00  0.00    +0.013 A 
ATOM      7  C   UNL     1      -0.051   3.845   0.017  0.00  0.00    +0.039 A 
ATOM      8  C   UNL     1      -1.248   3.128   0.018  0.00  0.00    +0.045 A 
ATOM      9  C   UNL     1      -1.223   1.749   0.009  0.00  0.00    +0.127 A 
ATOM     10  C   UNL     1      -0.013   1.076   0.010  0.00  0.00    +0.033 A 
BRANCH   9  11
ATOM     11  N   UNL     1      -2.492   0.987   0.004  0.00  0.00    +0.056 N 
ATOM     12  O   UNL     1      -2.471  -0.231   0.002  0.00  0.00    -0.126 OA
ATOM     13  O   UNL     1      -3.557   1.577   0.004  0.00  0.00    -0.126 OA
ENDBRANCH   9  11
ENDBRANCH   1   7
BRANCH   3  14
ATOM     14  C   UNL     1       1.067   7.478   0.023  0.00  0.00    +0.200 C 
BRANCH  14  15
ATOM     15  C   UNL     1       2.482   7.999   0.021  0.00  0.00    +0.234 C 
ATOM     16  O   UNL     1       3.414   7.224   0.017  0.00  0.00    -0.274 OA
ATOM     17  N   UNL     1       2.710   9.328   0.024  0.00  0.00    -0.284 N 
ATOM     18  H   UNL     1       1.967   9.947  -0.041  0.00  0.00    +0.155 HD
BRANCH  17  19
ATOM     19  C   UNL     1       4.019   9.812   0.119  0.00  0.00    +0.034 A 
ATOM     20  C   UNL     1       4.277  10.987   0.815  0.00  0.00    +0.023 A 
ATOM     21  C   UNL     1       5.571  11.460   0.911  0.00  0.00    +0.003 A 
ATOM     22  C   UNL     1       6.608  10.772   0.309  0.00  0.00    +0.015 A 
ATOM     23  C   UNL     1       6.354   9.605  -0.389  0.00  0.00    +0.020 A 
ATOM     24  C   UNL     1       5.062   9.123  -0.485  0.00  0.00    +0.038 A 
ATOM     25 BR   UNL     1       7.775   8.668  -1.212  0.00  0.00    -0.050 Br
ENDBRANCH  17  19
ENDBRANCH  14  15
ENDBRANCH   3  14
TORSDOF 5
