REMARK  Name = ZINC39488113
REMARK  11 active torsions:
REMARK  status: ('A' for Active; 'I' for Inactive)
REMARK    1  A    between atoms: C_1  and  C_2
REMARK    2  A    between atoms: C_2  and  O_3
REMARK    3  A    between atoms: O_3  and  N_4
REMARK    4  A    between atoms: C_6  and  C_30
REMARK    5  A    between atoms: C_6  and  C_31
REMARK    6  A    between atoms: N_7  and  C_10
REMARK    7  A    between atoms: C_10  and  C_11
REMARK    8  A    between atoms: C_11  and  C_24
REMARK    9  A    between atoms: N_14  and  C_17
REMARK   10  A    between atoms: C_17  and  C_18
REMARK   11  A    between atoms: C_36  and  O_37
REMARK                            x       y       z     vdW  Elec       q    Type
REMARK                         _______ _______ _______ _____ _____    ______ ____
ROOT
ATOM      1  C   UNL     1      -1.494  -5.363  -0.823  0.00  0.00    -0.014 C 
ATOM      2  C   UNL     1      -0.641  -5.700   0.403  0.00  0.00    -0.010 C 
ATOM      3  C   UNL     1       0.189  -4.475   0.793  0.00  0.00    -0.078 C 
ATOM      4  N   UNL     1      -0.705  -3.354   1.110  0.00  0.00    +0.382 N 
ATOM      5  C   UNL     1      -1.475  -2.979  -0.082  0.00  0.00    -0.078 C 
ATOM      6  C   UNL     1      -2.369  -4.147  -0.506  0.00  0.00    -0.010 C 
ATOM      7  H   UNL     1      -1.339  -3.629   1.845  0.00  0.00    -0.081 HD
ENDROOT
BRANCH   1   8
ATOM      8  C   UNL     1      -2.385  -6.557  -1.172  0.00  0.00    -0.003 C 
ATOM      9  C   UNL     1      -3.377  -6.151  -2.265  0.00  0.00    +0.004 C 
ATOM     10  C   UNL     1      -4.268  -7.344  -2.614  0.00  0.00    +0.000 C 
ATOM     11  C   UNL     1      -5.036  -7.789  -1.368  0.00  0.00    +0.000 C 
ATOM     12  C   UNL     1      -4.044  -8.195  -0.275  0.00  0.00    +0.000 C 
ATOM     13  C   UNL     1      -3.153  -7.002   0.074  0.00  0.00    +0.004 C 
ENDBRANCH   1   8
BRANCH   1  14
ATOM     14  C   UNL     1      -0.582  -5.041  -2.009  0.00  0.00    +0.117 C 
BRANCH  14  18
ATOM     15  N   UNL     1       0.455  -8.261  -3.374  0.00  0.00    -0.162 N 
ATOM     16  C   UNL     1       1.762  -7.934  -2.785  0.00  0.00    +0.172 C 
ATOM     17  C   UNL     1       1.538  -6.557  -2.131  0.00  0.00    +0.083 C 
ATOM     18  N   UNL     1       0.128  -6.255  -2.421  0.00  0.00    -0.272 N 
ATOM     19  C   UNL     1      -0.402  -7.262  -3.127  0.00  0.00    +0.329 C 
ATOM     20  O   UNL     1      -1.557  -7.270  -3.507  0.00  0.00    -0.250 OA
ATOM     21  C   UNL     1       1.771  -6.635  -0.621  0.00  0.00    +0.039 C 
BRANCH  17  22
ATOM     22  C   UNL     1       2.440  -5.522  -2.754  0.00  0.00    +0.019 A 
ATOM     23  C   UNL     1       1.897  -4.478  -3.478  0.00  0.00    +0.009 A 
ATOM     24  C   UNL     1       2.724  -3.529  -4.049  0.00  0.00    +0.001 A 
ATOM     25  C   UNL     1       4.096  -3.622  -3.898  0.00  0.00    +0.004 A 
ATOM     26  C   UNL     1       4.643  -4.664  -3.175  0.00  0.00    +0.046 A 
ATOM     27  C   UNL     1       3.815  -5.615  -2.596  0.00  0.00    +0.122 A 
BRANCH  27  28
ATOM     28  O   UNL     1       4.350  -6.638  -1.880  0.00  0.00    -0.506 OA
ATOM     29  H   UNL     1       4.557  -7.422  -2.407  0.00  0.00    +0.292 HD
ENDBRANCH  27  28
ENDBRANCH  17  22
BRANCH  15  30
ATOM     30  O   UNL     1       0.152  -9.443  -4.093  0.00  0.00    -0.276 OA
BRANCH  30  32
ATOM     31  C   UNL     1       0.240 -10.747  -6.126  0.00  0.00    +0.036 C 
ATOM     32  C   UNL     1       0.494  -9.384  -5.479  0.00  0.00    +0.187 C 
ENDBRANCH  30  32
ENDBRANCH  15  30
ENDBRANCH  14  18
ENDBRANCH   1  14
BRANCH   4  33
ATOM     33  C   UNL     1       0.092  -2.205   1.558  0.00  0.00    -0.043 C 
BRANCH  33  34
ATOM     34  C   UNL     1      -0.828  -1.105   2.022  0.00  0.00    -0.064 A 
ATOM     35  C   UNL     1      -1.323  -0.189   1.113  0.00  0.00    +0.002 A 
ATOM     36  C   UNL     1      -2.167   0.819   1.538  0.00  0.00    +0.000 A 
ATOM     37  C   UNL     1      -2.516   0.912   2.873  0.00  0.00    +0.000 A 
ATOM     38  C   UNL     1      -2.021  -0.005   3.781  0.00  0.00    +0.000 A 
ATOM     39  C   UNL     1      -1.181  -1.016   3.355  0.00  0.00    +0.002 A 
ENDBRANCH  33  34
ENDBRANCH   4  33
TORSDOF 9
