REMARK  Name = ZINC46617824
REMARK  5 active torsions:
REMARK  status: ('A' for Active; 'I' for Inactive)
REMARK    1  A    between atoms: C_4  and  S_20
REMARK    2  A    between atoms: C_5  and  N_7
REMARK    3  A    between atoms: N_7  and  C_8
REMARK    4  A    between atoms: C_8  and  C_9
REMARK    5  A    between atoms: S_20  and  C_23
REMARK                            x       y       z     vdW  Elec       q    Type
REMARK                         _______ _______ _______ _____ _____    ______ ____
ROOT
ATOM      1  N   UNL     1       1.238  -2.077  -0.021  0.00  0.00    -0.338 N 
ATOM      2  H   UNL     1       2.086  -2.549  -0.032  0.00  0.00    +0.146 HD
ENDROOT
BRANCH   1   7
ATOM      3  C   UNL     1      -0.017   1.377   0.010  0.00  0.00    +0.002 A 
ATOM      4  C   UNL     1       1.171   2.086   0.002  0.00  0.00    +0.002 A 
ATOM      5  C   UNL     1       2.380   1.416  -0.013  0.00  0.00    +0.029 A 
ATOM      6  C   UNL     1       2.406   0.035  -0.021  0.00  0.00    +0.118 A 
ATOM      7  C   UNL     1       1.215  -0.681  -0.013  0.00  0.00    +0.053 A 
ATOM      8  C   UNL     1       0.002  -0.004   0.002  0.00  0.00    +0.025 A 
BRANCH   6   9
ATOM      9  S   UNL     1       3.947  -0.818  -0.042  0.00  0.00    +0.093 S 
ATOM     10  O   UNL     1       3.835  -1.744  -1.113  0.00  0.00    -0.161 OA
ATOM     11  O   UNL     1       4.930   0.208  -0.071  0.00  0.00    -0.161 OA
BRANCH   9  12
ATOM     12  C   UNL     1       4.013  -1.701   1.542  0.00  0.00    +0.526 C 
ATOM     13  F   UNL     1       2.933  -2.586   1.628  0.00  0.00    -0.150 F 
ATOM     14  F   UNL     1       5.211  -2.418   1.627  0.00  0.00    -0.150 F 
ATOM     15  F   UNL     1       3.945  -0.779   2.592  0.00  0.00    -0.150 F 
ENDBRANCH   9  12
ENDBRANCH   6   9
ENDBRANCH   1   7
BRANCH   1  16
ATOM     16  C   UNL     1      -0.019  -2.830  -0.012  0.00  0.00    +0.138 C 
BRANCH  16  17
ATOM     17  C   UNL     1       0.281  -4.307  -0.023  0.00  0.00    -0.014 A 
ATOM     18  C   UNL     1       0.414  -4.987  -1.227  0.00  0.00    +0.010 A 
ATOM     19  C   UNL     1       0.688  -6.342  -1.193  0.00  0.00    +0.042 A 
ATOM     20  C   UNL     1       0.821  -6.975   0.040  0.00  0.00    +0.099 A 
ATOM     21  N   UNL     1       0.687  -6.291   1.165  0.00  0.00    -0.349 N 
ATOM     22  C   UNL     1       0.431  -4.997   1.163  0.00  0.00    +0.089 A 
ATOM     23  N   UNL     1       1.097  -8.336   0.089  0.00  0.00    -0.317 N 
ATOM     24  C   UNL     1       1.277  -9.216  -1.075  0.00  0.00    +0.106 C 
ATOM     25  C   UNL     1       1.537 -10.639  -0.537  0.00  0.00    +0.020 C 
ATOM     26  C   UNL     1       0.929 -10.588   0.889  0.00  0.00    +0.020 C 
ATOM     27  C   UNL     1       1.264  -9.135   1.316  0.00  0.00    +0.106 C 
ATOM     28  H   UNL     1       0.784  -6.753   2.013  0.00  0.00    +0.167 HD
ENDBRANCH  16  17
ENDBRANCH   1  16
TORSDOF 5
