REMARK  Name = ZINC38800533
REMARK  9 active torsions:
REMARK  status: ('A' for Active; 'I' for Inactive)
REMARK    1  A    between atoms: C_1  and  C_2
REMARK    2  A    between atoms: C_5  and  N_9
REMARK    3  A    between atoms: C_10  and  C_29
REMARK    4  A    between atoms: C_13  and  C_16
REMARK    5  A    between atoms: C_14  and  C_15
REMARK    6  A    between atoms: C_16  and  C_18
REMARK    7  A    between atoms: C_18  and  S_19
REMARK    8  A    between atoms: S_19  and  C_20
REMARK    9  A    between atoms: C_24  and  C_26
REMARK                            x       y       z     vdW  Elec       q    Type
REMARK                         _______ _______ _______ _____ _____    ______ ____
ROOT
ATOM      1  N   UNL     1       0.051  -4.170  -0.022  0.00  0.00    -0.300 N 
ATOM      2  C   UNL     1       0.170  -5.019   1.170  0.00  0.00    +0.080 C 
ATOM      3  C   UNL     1       0.151  -6.457   0.617  0.00  0.00    +0.062 C 
ATOM      4  C   UNL     1       0.019  -6.264  -0.879  0.00  0.00    +0.015 C 
ATOM      5  C   UNL     1      -0.034  -4.941  -1.133  0.00  0.00    +0.015 C 
ATOM      6  C   UNL     1      -0.172  -4.373  -2.522  0.00  0.00    +0.061 C 
ATOM      7  C   UNL     1       1.487  -4.740   1.897  0.00  0.00    +0.029 C 
ENDROOT
BRANCH   1  12
ATOM      8  C   UNL     1      -0.063   1.502   0.024  0.00  0.00    +0.047 C 
ATOM      9  C   UNL     1      -0.032  -0.005   0.011  0.00  0.00    -0.015 A 
ATOM     10  C   UNL     1      -1.056  -0.721   0.603  0.00  0.00    +0.008 A 
ATOM     11  C   UNL     1      -1.031  -2.101   0.594  0.00  0.00    +0.024 A 
ATOM     12  C   UNL     1       0.024  -2.773  -0.012  0.00  0.00    +0.037 A 
ATOM     13  C   UNL     1       1.051  -2.053  -0.607  0.00  0.00    +0.062 A 
ATOM     14  C   UNL     1       1.019  -0.669  -0.599  0.00  0.00    +0.128 A 
ATOM     15  F   UNL     1       2.015   0.033  -1.181  0.00  0.00    -0.205 F 
ENDBRANCH   1  12
BRANCH   4  16
ATOM     16  C   UNL     1      -0.043  -7.287  -1.836  0.00  0.00    +0.171 C 
ATOM     17  O   UNL     1      -0.149  -7.010  -3.015  0.00  0.00    -0.291 OA
BRANCH  16  18
ATOM     18  C   UNL     1       0.023  -8.729  -1.404  0.00  0.00    +0.156 C 
BRANCH  18  19
ATOM     19  S   UNL     1      -0.081  -9.803  -2.862  0.00  0.00    -0.079 S 
BRANCH  19  20
ATOM     20  C   UNL     1       0.008 -11.432  -2.198  0.00  0.00    +0.185 A 
ATOM     21  N   UNL     1      -0.024 -12.583  -2.906  0.00  0.00    -0.254 N 
ATOM     22  H   UNL     1      -0.099 -12.671  -3.869  0.00  0.00    +0.191 HD
ATOM     23  N   UNL     1       0.074 -13.625  -1.970  0.00  0.00    -0.157 NA
ATOM     24  C   UNL     1       0.157 -13.072  -0.790  0.00  0.00    +0.155 A 
ATOM     25  N   UNL     1       0.123 -11.746  -0.925  0.00  0.00    -0.205 NA
BRANCH  24  26
ATOM     26  C   UNL     1       0.279 -13.815   0.516  0.00  0.00    +0.059 C 
ATOM     27  C   UNL     1       0.511 -15.325   0.451  0.00  0.00    +0.012 C 
ATOM     28  C   UNL     1      -0.850 -14.779   0.888  0.00  0.00    +0.012 C 
ENDBRANCH  24  26
ENDBRANCH  19  20
ENDBRANCH  18  19
ENDBRANCH  16  18
ENDBRANCH   4  16
TORSDOF 6
