REMARK  Name = ZINC28913572
REMARK  8 active torsions:
REMARK  status: ('A' for Active; 'I' for Inactive)
REMARK    1  A    between atoms: C_1  and  C_2
REMARK    2  A    between atoms: C_4  and  C_27
REMARK    3  A    between atoms: C_5  and  C_26
REMARK    4  A    between atoms: C_6  and  S_9
REMARK    5  A    between atoms: C_7  and  C_8
REMARK    6  A    between atoms: S_9  and  N_12
REMARK    7  A    between atoms: N_12  and  N_13
REMARK    8  A    between atoms: C_14  and  C_16
REMARK                            x       y       z     vdW  Elec       q    Type
REMARK                         _______ _______ _______ _____ _____    ______ ____
ROOT
ATOM      1  N   UNL     1       1.308  -3.087   3.336  0.00  0.00    -0.108 NA
ATOM      2  H   UNL     1       1.560  -4.005   3.525  0.00  0.00    +0.172 HD
ENDROOT
BRANCH   1   3
ATOM      3  N   UNL     1       2.243  -2.057   3.497  0.00  0.00    -0.227 N 
ATOM      4  C   UNL     1       2.873  -1.898   4.678  0.00  0.00    +0.277 C 
ATOM      5  O   UNL     1       2.630  -2.648   5.602  0.00  0.00    -0.267 OA
ATOM      6  H   UNL     1       2.437  -1.458   2.759  0.00  0.00    +0.171 HD
BRANCH   4   7
ATOM      7  C   UNL     1       3.863  -0.807   4.849  0.00  0.00    +0.127 A 
ATOM      8  C   UNL     1       4.513  -0.659   6.083  0.00  0.00    +0.034 A 
ATOM      9  C   UNL     1       5.427   0.341   6.253  0.00  0.00    +0.012 A 
ATOM     10  C   UNL     1       5.686   1.198   5.168  0.00  0.00    +0.000 A 
ATOM     11  C   UNL     1       6.614   2.247   5.273  0.00  0.00    +0.010 A 
ATOM     12  C   UNL     1       6.839   3.057   4.202  0.00  0.00    +0.001 A 
ATOM     13  C   UNL     1       6.160   2.860   2.999  0.00  0.00    +0.002 A 
ATOM     14  C   UNL     1       5.255   1.854   2.861  0.00  0.00    +0.028 A 
ATOM     15  C   UNL     1       4.994   0.995   3.946  0.00  0.00    +0.072 A 
ATOM     16  N   UNL     1       4.115  -0.001   3.836  0.00  0.00    -0.242 NA
ENDBRANCH   4   7
ENDBRANCH   1   3
BRANCH   1  17
ATOM     17  S   UNL     1      -0.228  -2.739   2.822  0.00  0.00    +0.074 S 
ATOM     18  O   UNL     1      -0.735  -1.747   3.704  0.00  0.00    -0.152 OA
ATOM     19  O   UNL     1      -0.880  -3.985   2.620  0.00  0.00    -0.152 OA
BRANCH  17  25
ATOM     20  C   UNL     1       0.408  -3.018  -2.359  0.00  0.00    +0.044 C 
ATOM     21  C   UNL     1       0.207  -2.167  -1.131  0.00  0.00    -0.045 A 
ATOM     22  C   UNL     1       0.134  -0.791  -1.248  0.00  0.00    +0.007 A 
ATOM     23  C   UNL     1      -0.050  -0.011  -0.122  0.00  0.00    -0.045 A 
ATOM     24  C   UNL     1      -0.160  -0.606   1.121  0.00  0.00    -0.021 A 
ATOM     25  C   UNL     1      -0.087  -1.981   1.238  0.00  0.00    +0.113 A 
ATOM     26  C   UNL     1       0.092  -2.762   0.111  0.00  0.00    -0.021 A 
ATOM     27  C   UNL     1       0.166  -4.262   0.238  0.00  0.00    +0.046 C 
ATOM     28  C   UNL     1      -0.359   0.245   2.348  0.00  0.00    +0.046 C 
ATOM     29  C   UNL     1      -0.129   1.489  -0.250  0.00  0.00    +0.044 C 
ENDBRANCH  17  25
ENDBRANCH   1  17
TORSDOF 4
