REMARK  Name = ZINC16528840
REMARK  8 active torsions:
REMARK  status: ('A' for Active; 'I' for Inactive)
REMARK    1  A    between atoms: C_1  and  C_2
REMARK    2  A    between atoms: C_2  and  N_3
REMARK    3  A    between atoms: N_3  and  C_4
REMARK    4  A    between atoms: C_4  and  C_5
REMARK    5  A    between atoms: C_15  and  C_17
REMARK    6  A    between atoms: C_25  and  C_27
REMARK    7  A    between atoms: C_30  and  O_33
REMARK    8  A    between atoms: O_33  and  C_34
REMARK                            x       y       z     vdW  Elec       q    Type
REMARK                         _______ _______ _______ _____ _____    ______ ____
ROOT
ATOM      1  C   UNL     1       0.520   2.508  -0.045  0.00  0.00    +0.234 C 
ATOM      2  O   UNL     1      -0.406   3.260   0.173  0.00  0.00    -0.274 OA
ATOM      3  N   UNL     1       1.770   2.997  -0.169  0.00  0.00    -0.289 N 
ATOM      4  C   UNL     1       2.901   2.095  -0.433  0.00  0.00    +0.114 C 
ATOM      5  C   UNL     1       3.470   2.439  -1.824  0.00  0.00    +0.062 C 
ATOM      6  C   UNL     1       3.544   3.926  -1.956  0.00  0.00    -0.003 A 
ATOM      7  C   UNL     1       2.921   4.865  -1.194  0.00  0.00    -0.012 A 
ATOM      8  C   UNL     1       3.151   6.198  -1.531  0.00  0.00    +0.013 A 
ATOM      9  C   UNL     1       3.962   6.503  -2.570  0.00  0.00    +0.046 A 
ATOM     10  S   UNL     1       4.454   4.883  -3.140  0.00  0.00    -0.101 S 
ATOM     11  C   UNL     1       2.023   4.438  -0.034  0.00  0.00    +0.139 C 
ENDROOT
BRANCH  11  12
ATOM     12  C   UNL     1       2.715   4.715   1.276  0.00  0.00    -0.004 A 
ATOM     13  C   UNL     1       4.080   4.935   1.303  0.00  0.00    +0.008 A 
ATOM     14  C   UNL     1       4.714   5.194   2.503  0.00  0.00    +0.020 A 
ATOM     15  C   UNL     1       3.986   5.223   3.679  0.00  0.00    +0.042 A 
ATOM     16  C   UNL     1       2.621   4.998   3.653  0.00  0.00    +0.040 A 
ATOM     17  C   UNL     1       1.986   4.744   2.451  0.00  0.00    +0.048 A 
ATOM     18 CL   UNL     1       0.273   4.461   2.417  0.00  0.00    -0.083 Cl
ATOM     19 CL   UNL     1       4.784   5.543   5.188  0.00  0.00    -0.083 Cl
ENDBRANCH  11  12
BRANCH   1  20
ATOM     20  C   UNL     1       0.273   1.028  -0.185  0.00  0.00    +0.204 C 
BRANCH  20  21
ATOM     21  N   UNL     1      -1.155   0.753  -0.011  0.00  0.00    -0.289 N 
ATOM     22  C   UNL     1      -1.646   0.490   1.216  0.00  0.00    +0.247 C 
ATOM     23  O   UNL     1      -0.916   0.543   2.187  0.00  0.00    -0.270 OA
BRANCH  22  24
ATOM     24  C   UNL     1      -3.070   0.139   1.382  0.00  0.00    +0.037 A 
ATOM     25  C   UNL     1      -3.790  -0.392   0.309  0.00  0.00    +0.016 A 
ATOM     26  C   UNL     1      -5.117  -0.724   0.469  0.00  0.00    +0.046 A 
ATOM     27  C   UNL     1      -5.743  -0.521   1.693  0.00  0.00    +0.120 A 
ATOM     28  C   UNL     1      -5.032   0.012   2.762  0.00  0.00    +0.046 A 
ATOM     29  C   UNL     1      -3.703   0.341   2.611  0.00  0.00    +0.016 A 
BRANCH  27  30
ATOM     30  O   UNL     1      -7.052  -0.844   1.846  0.00  0.00    -0.495 OA
ATOM     31  C   UNL     1      -7.723  -1.387   0.707  0.00  0.00    +0.277 C 
ENDBRANCH  27  30
ENDBRANCH  22  24
BRANCH  21  33
ATOM     32  C   UNL     1      -1.830  -0.506  -1.997  0.00  0.00    +0.024 C 
ATOM     33  C   UNL     1      -2.050   0.763  -1.171  0.00  0.00    +0.105 C 
ENDBRANCH  21  33
ENDBRANCH  20  21
ENDBRANCH   1  20
TORSDOF 6
