REMARK  Name = ZINC63351481
REMARK  4 active torsions:
REMARK  status: ('A' for Active; 'I' for Inactive)
REMARK    1  A    between atoms: C_8  and  C_16
REMARK    2  A    between atoms: N_22  and  C_25
REMARK    3  A    between atoms: C_25  and  C_26
REMARK    4  A    between atoms: C_26  and  C_27
REMARK                            x       y       z     vdW  Elec       q    Type
REMARK                         _______ _______ _______ _____ _____    ______ ____
ROOT
ATOM      1  C   UNL     1       5.136  -3.149  -0.956  0.00  0.00    +0.100 A 
ATOM      2  H   UNL     1       7.982  -2.524  -2.370  0.00  0.00    +0.173 HD
ATOM      3  C   UNL     1       6.011  -2.647  -1.873  0.00  0.00    +0.263 A 
ATOM      4  N   UNL     1       7.355  -2.879  -1.721  0.00  0.00    -0.274 N 
ATOM      5  C   UNL     1       7.809  -3.597  -0.677  0.00  0.00    +0.332 A 
ATOM      6  O   UNL     1       9.003  -3.793  -0.559  0.00  0.00    -0.246 OA
ATOM      7  N   UNL     1       6.960  -4.101   0.238  0.00  0.00    -0.260 N 
ATOM      8  C   UNL     1       5.634  -3.891   0.130  0.00  0.00    +0.265 A 
ATOM      9  O   UNL     1       4.870  -4.345   0.964  0.00  0.00    -0.267 OA
ATOM     10  O   UNL     1       5.560  -1.927  -2.921  0.00  0.00    -0.267 OA
ENDROOT
BRANCH   1  17
ATOM     11  C   UNL     1      -0.016   1.347   0.009  0.00  0.00    +0.001 A 
ATOM     12  C   UNL     1       1.165   2.101   0.002  0.00  0.00    +0.002 A 
ATOM     13  C   UNL     1       2.390   1.534  -0.009  0.00  0.00    +0.026 A 
ATOM     14  C   UNL     1       2.530   0.120  -0.013  0.00  0.00    +0.043 A 
ATOM     15  N   UNL     1       3.592  -0.653  -0.049  0.00  0.00    -0.376 N 
ATOM     16  C   UNL     1       3.157  -2.042   0.059  0.00  0.00    +0.128 C 
ATOM     17  C   UNL     1       3.655  -2.907  -1.102  0.00  0.00    +0.121 C 
ATOM     18  N   UNL     1       2.937  -4.191  -1.064  0.00  0.00    -0.307 NA
ATOM     19  C   UNL     1       1.505  -4.060  -1.352  0.00  0.00    +0.086 C 
ATOM     20  C   UNL     1       0.815  -3.246  -0.242  0.00  0.00    +0.048 C 
ATOM     21  C   UNL     1       1.640  -1.996  -0.034  0.00  0.00    -0.035 C 
ATOM     22  C   UNL     1       1.294  -0.703  -0.015  0.00  0.00    -0.001 A 
ATOM     23  C   UNL     1       0.002  -0.004   0.002  0.00  0.00    +0.010 A 
ATOM     24  H   UNL     1       3.369  -4.865  -1.677  0.00  0.00    +0.123 HD
ATOM     25  H   UNL     1       4.510  -0.351  -0.132  0.00  0.00    +0.160 HD
ENDBRANCH   1  17
BRANCH   7  26
ATOM     26  C   UNL     1       7.484  -4.878   1.364  0.00  0.00    +0.134 C 
BRANCH  26  27
ATOM     27  C   UNL     1       7.788  -3.941   2.534  0.00  0.00    +0.052 C 
BRANCH  27  28
ATOM     28  C   UNL     1       8.326  -4.741   3.692  0.00  0.00    -0.072 C 
ATOM     29  C   UNL     1       9.611  -4.830   3.824  0.00  0.00    -0.028 C 
ATOM     30  C   UNL     1      10.293  -5.598   4.917  0.00  0.00    +0.027 C 
ATOM     31  C   UNL     1       9.309  -5.883   6.054  0.00  0.00    +0.004 C 
ATOM     32  C   UNL     1       8.028  -6.471   5.450  0.00  0.00    +0.005 C 
ATOM     33  C   UNL     1       7.339  -5.380   4.625  0.00  0.00    +0.030 C 
ENDBRANCH  27  28
ENDBRANCH  26  27
ENDBRANCH   7  26
TORSDOF 4
