REMARK  Name = ZINC34657459
REMARK  14 active torsions:
REMARK  status: ('A' for Active; 'I' for Inactive)
REMARK    1  A    between atoms: C_1  and  C_2
REMARK    2  A    between atoms: C_6  and  C_34
REMARK    3  A    between atoms: C_8  and  O_11
REMARK    4  A    between atoms: O_11  and  C_12
REMARK    5  A    between atoms: C_12  and  C_14
REMARK    6  A    between atoms: C_14  and  O_15
REMARK    7  A    between atoms: O_15  and  C_16
REMARK    8  A    between atoms: C_16  and  C_18
REMARK    9  A    between atoms: C_20  and  N_25
REMARK   10  A    between atoms: C_23  and  O_24
REMARK   11  A    between atoms: N_25  and  S_26
REMARK   12  A    between atoms: S_26  and  C_29
REMARK   13  A    between atoms: C_34  and  C_35
REMARK   14  A    between atoms: C_34  and  C_36
REMARK                            x       y       z     vdW  Elec       q    Type
REMARK                         _______ _______ _______ _____ _____    ______ ____
ROOT
ATOM      1  C   UNL     1       7.504  -3.554   4.058  0.00  0.00    +0.102 A 
ATOM      2  C   UNL     1       7.958  -3.180   2.791  0.00  0.00    +0.043 A 
ATOM      3  C   UNL     1       8.958  -3.911   2.174  0.00  0.00    +0.049 A 
ATOM      4  C   UNL     1       9.510  -5.017   2.813  0.00  0.00    +0.028 A 
ATOM      5  C   UNL     1       9.066  -5.393   4.065  0.00  0.00    +0.048 A 
ATOM      6  C   UNL     1       8.069  -4.665   4.698  0.00  0.00    +0.131 A 
ENDROOT
BRANCH   1   7
ATOM      7  C   UNL     1       6.439  -2.781   4.722  0.00  0.00    +0.343 C 
ATOM      8  O   UNL     1       6.049  -3.106   5.826  0.00  0.00    -0.245 OA
BRANCH   7   9
ATOM      9  O   UNL     1       5.897  -1.713   4.104  0.00  0.00    -0.450 OA
BRANCH   9  10
ATOM     10  C   UNL     1       4.869  -1.010   4.805  0.00  0.00    +0.352 C 
BRANCH  10  11
ATOM     11  C   UNL     1       4.388   0.145   3.965  0.00  0.00    +0.346 C 
ATOM     12  O   UNL     1       4.874   0.345   2.878  0.00  0.00    -0.247 OA
BRANCH  11  13
ATOM     13  O   UNL     1       3.418   0.951   4.426  0.00  0.00    -0.459 OA
BRANCH  13  19
ATOM     14  C   UNL     1       4.273   5.650   3.265  0.00  0.00    +0.007 C 
ATOM     15  C   UNL     1       3.423   4.413   2.966  0.00  0.00    -0.011 C 
ATOM     16  C   UNL     1       1.949   4.734   3.221  0.00  0.00    +0.004 C 
ATOM     17  C   UNL     1       1.100   3.497   2.922  0.00  0.00    +0.007 C 
ATOM     18  C   UNL     1       1.536   2.346   3.831  0.00  0.00    +0.032 C 
ATOM     19  C   UNL     1       3.010   2.026   3.576  0.00  0.00    +0.180 C 
ATOM     20  C   UNL     1       3.860   3.263   3.876  0.00  0.00    +0.048 C 
BRANCH  18  21
ATOM     21  C   UNL     1       0.686   1.109   3.532  0.00  0.00    -0.011 C 
ATOM     22  C   UNL     1      -0.769   1.386   3.914  0.00  0.00    +0.007 C 
ATOM     23  C   UNL     1       0.769   0.783   2.039  0.00  0.00    +0.007 C 
ENDBRANCH  18  21
ENDBRANCH  13  19
ENDBRANCH  11  13
ENDBRANCH  10  11
ENDBRANCH   9  10
ENDBRANCH   7   9
ENDBRANCH   1   7
BRANCH   6  24
ATOM     24  O   UNL     1       7.639  -5.033   5.931  0.00  0.00    -0.506 OA
ATOM     25  H   UNL     1       6.904  -5.662   5.920  0.00  0.00    +0.292 HD
ENDBRANCH   6  24
BRANCH   3  26
ATOM     26  N   UNL     1       9.415  -3.538   0.905  0.00  0.00    -0.216 N 
ATOM     27  H   UNL     1       8.874  -3.724   0.121  0.00  0.00    +0.174 HD
BRANCH  26  28
ATOM     28  S   UNL     1      10.877  -2.780   0.741  0.00  0.00    +0.079 S 
ATOM     29  O   UNL     1      11.823  -3.561   1.458  0.00  0.00    -0.149 OA
ATOM     30  O   UNL     1      11.027  -2.481  -0.640  0.00  0.00    -0.149 OA
BRANCH  28  31
ATOM     31  C   UNL     1      10.761  -1.235   1.581  0.00  0.00    +0.146 A 
ATOM     32  C   UNL     1      10.962  -0.959   2.892  0.00  0.00    +0.036 A 
ATOM     33  C   UNL     1      10.814   0.342   3.334  0.00  0.00    +0.010 A 
ATOM     34  C   UNL     1      10.471   1.304   2.443  0.00  0.00    +0.047 A 
ATOM     35  S   UNL     1      10.353   0.374   0.923  0.00  0.00    -0.077 S 
ENDBRANCH  28  31
ENDBRANCH  26  28
ENDBRANCH   3  26
TORSDOF 11
