REMARK  Name = ZINC60455947
REMARK  7 active torsions:
REMARK  status: ('A' for Active; 'I' for Inactive)
REMARK    1  A    between atoms: C_1  and  C_2
REMARK    2  A    between atoms: C_6  and  C_23
REMARK    3  A    between atoms: C_7  and  N_8
REMARK    4  A    between atoms: C_9  and  C_13
REMARK    5  A    between atoms: C_13  and  N_14
REMARK    6  A    between atoms: N_14  and  C_15
REMARK    7  A    between atoms: C_19  and  C_21
REMARK                            x       y       z     vdW  Elec       q    Type
REMARK                         _______ _______ _______ _____ _____    ______ ____
ROOT
ATOM      1  N   UNL     1      -0.567  -0.228   2.578  0.00  0.00    -0.195 N 
ATOM      2  C   UNL     1      -0.019  -0.748   3.698  0.00  0.00    +0.173 A 
ATOM      3  N   UNL     1       0.264   0.252   4.492  0.00  0.00    -0.111 NA
ATOM      4  N   UNL     1      -0.068   1.368   3.951  0.00  0.00    -0.023 NA
ATOM      5  N   UNL     1      -0.575   1.163   2.783  0.00  0.00    -0.039 NA
ENDROOT
BRANCH   1  12
ATOM      6  C   UNL     1       1.350  -1.567   0.955  0.00  0.00    +0.046 C 
ATOM      7  C   UNL     1      -0.122  -1.592   0.633  0.00  0.00    -0.025 A 
ATOM      8  C   UNL     1      -0.576  -2.284  -0.473  0.00  0.00    +0.005 A 
ATOM      9  C   UNL     1      -1.927  -2.307  -0.770  0.00  0.00    +0.001 A 
ATOM     10  C   UNL     1      -2.826  -1.638   0.040  0.00  0.00    +0.005 A 
ATOM     11  C   UNL     1      -2.378  -0.945   1.147  0.00  0.00    -0.025 A 
ATOM     12  C   UNL     1      -1.024  -0.925   1.451  0.00  0.00    +0.075 A 
ATOM     13  C   UNL     1      -3.360  -0.217   2.029  0.00  0.00    +0.046 C 
ENDBRANCH   1  12
BRANCH   2  14
ATOM     14  C   UNL     1       0.221  -2.208   3.980  0.00  0.00    +0.180 C 
BRANCH  14  15
ATOM     15  N   UNL     1       1.659  -2.486   3.924  0.00  0.00    -0.337 N 
ATOM     16  H   UNL     1       2.289  -1.758   3.810  0.00  0.00    +0.147 HD
BRANCH  15  17
ATOM     17  C   UNL     1       2.121  -3.800   4.036  0.00  0.00    +0.029 A 
ATOM     18  C   UNL     1       1.216  -4.844   4.194  0.00  0.00    +0.023 A 
ATOM     19  C   UNL     1       1.668  -6.146   4.305  0.00  0.00    +0.003 A 
ATOM     20  C   UNL     1       3.020  -6.418   4.260  0.00  0.00    +0.019 A 
ATOM     21  C   UNL     1       3.937  -5.377   4.101  0.00  0.00    +0.054 A 
ATOM     22  C   UNL     1       3.481  -4.063   3.983  0.00  0.00    +0.041 A 
BRANCH  21  23
ATOM     23  C   UNL     1       5.341  -5.656   4.054  0.00  0.00    +0.099 C 
ATOM     24  N   UNL     1       6.454  -5.878   4.016  0.00  0.00    -0.191 NA
ENDBRANCH  21  23
ENDBRANCH  15  17
ENDBRANCH  14  15
ENDBRANCH   2  14
TORSDOF 5
