REMARK  Name = ZINC04251976
REMARK  8 active torsions:
REMARK  status: ('A' for Active; 'I' for Inactive)
REMARK    1  A    between atoms: C_1  and  C_2
REMARK    2  A    between atoms: C_3  and  C_29
REMARK    3  A    between atoms: C_11  and  C_13
REMARK    4  A    between atoms: C_13  and  C_15
REMARK    5  A    between atoms: C_13  and  S_16
REMARK    6  A    between atoms: S_16  and  C_17
REMARK    7  A    between atoms: C_19  and  C_23
REMARK    8  A    between atoms: N_21  and  N_22
REMARK                            x       y       z     vdW  Elec       q    Type
REMARK                         _______ _______ _______ _____ _____    ______ ____
ROOT
ATOM      1  C   UNL     1      -1.807   4.977   0.046  0.00  0.00    +0.117 C 
ATOM      2  C   UNL     1      -2.256   5.219   1.489  0.00  0.00    +0.027 C 
ENDROOT
BRANCH   1  13
ATOM      3  C   UNL     1       3.748   1.225  -0.027  0.00  0.00    +0.045 C 
ATOM      4  C   UNL     1       2.260   0.993  -0.014  0.00  0.00    -0.026 A 
ATOM      5  C   UNL     1       1.767  -0.256  -0.016  0.00  0.00    -0.008 A 
ATOM      6  S   UNL     1       0.002  -0.004   0.002  0.00  0.00    -0.073 S 
ATOM      7  C   UNL     1      -0.022   1.770   0.012  0.00  0.00    +0.116 A 
ATOM      8  C   UNL     1       1.341   2.116   0.001  0.00  0.00    +0.075 A 
ATOM      9  C   UNL     1       1.623   3.521   0.005  0.00  0.00    +0.260 A 
ATOM     10  O   UNL     1       2.775   3.921  -0.004  0.00  0.00    -0.267 OA
ATOM     11  N   UNL     1       0.597   4.392   0.020  0.00  0.00    -0.309 N 
ATOM     12  H   UNL     1       0.787   5.373   0.023  0.00  0.00    +0.170 HD
ATOM     13  C   UNL     1      -0.692   3.964   0.030  0.00  0.00    +0.124 A 
ATOM     14  N   UNL     1      -0.981   2.691   0.031  0.00  0.00    -0.225 NA
ATOM     15  C   UNL     1       2.524  -1.559  -0.031  0.00  0.00    +0.052 C 
ENDBRANCH   1  13
BRANCH   1  16
ATOM     16  S   UNL     1      -3.203   4.353  -0.923  0.00  0.00    -0.075 S 
BRANCH  16  17
ATOM     17  C   UNL     1      -4.268   5.755  -0.864  0.00  0.00    +0.187 A 
ATOM     18  N   UNL     1      -4.011   6.884  -0.248  0.00  0.00    -0.221 NA
ATOM     19  C   UNL     1      -5.056   7.732  -0.420  0.00  0.00    +0.092 A 
ATOM     20  C   UNL     1      -5.993   7.093  -1.164  0.00  0.00    +0.138 A 
ATOM     21  N   UNL     1      -5.496   5.844  -1.446  0.00  0.00    -0.251 N 
BRANCH  19  22
ATOM     22  C   UNL     1      -5.159   9.111   0.116  0.00  0.00    +0.002 A 
ATOM     23  C   UNL     1      -6.296   9.877  -0.137  0.00  0.00    +0.010 A 
ATOM     24  C   UNL     1      -6.388  11.158   0.369  0.00  0.00    +0.001 A 
ATOM     25  C   UNL     1      -5.350  11.685   1.116  0.00  0.00    +0.000 A 
ATOM     26  C   UNL     1      -4.218  10.932   1.366  0.00  0.00    +0.001 A 
ATOM     27  C   UNL     1      -4.117   9.648   0.870  0.00  0.00    +0.010 A 
ENDBRANCH  19  22
BRANCH  21  28
ATOM     28  N   UNL     1      -6.119   4.870  -2.174  0.00  0.00    -0.296 N 
ATOM     29  H   UNL     1      -6.680   4.278  -1.581  0.00  0.00    +0.163 HD
ATOM     30  H   UNL     1      -6.675   5.272  -2.914  0.00  0.00    +0.163 HD
ENDBRANCH  21  28
ENDBRANCH  16  17
ENDBRANCH   1  16
TORSDOF 5
