REMARK  Name = ZINC41511061
REMARK  4 active torsions:
REMARK  status: ('A' for Active; 'I' for Inactive)
REMARK    1  A    between atoms: C_6  and  C_7
REMARK    2  A    between atoms: C_14  and  O_25
REMARK    3  A    between atoms: C_15  and  C_18
REMARK    4  A    between atoms: C_18  and  N_19
REMARK                            x       y       z     vdW  Elec       q    Type
REMARK                         _______ _______ _______ _____ _____    ______ ____
ROOT
ATOM      1  C   UNL     1      -1.258  -0.760   0.011  0.00  0.00    +0.058 C 
ATOM      2  C   UNL     1      -1.239  -2.111  -0.099  0.00  0.00    +0.176 C 
ATOM      3  C   UNL     1      -2.413  -2.991  -0.215  0.00  0.00    +0.231 C 
ATOM      4  O   UNL     1      -3.588  -2.668  -0.233  0.00  0.00    -0.283 OA
ATOM      5  C   UNL     1      -1.849  -4.350  -0.305  0.00  0.00    +0.068 A 
ATOM      6  C   UNL     1      -2.424  -5.615  -0.430  0.00  0.00    +0.019 A 
ATOM      7  C   UNL     1      -1.626  -6.723  -0.490  0.00  0.00    +0.046 A 
ATOM      8  C   UNL     1      -0.241  -6.591  -0.427  0.00  0.00    +0.122 A 
ATOM      9  C   UNL     1       0.343  -5.341  -0.303  0.00  0.00    +0.020 A 
ATOM     10  C   UNL     1      -0.454  -4.205  -0.241  0.00  0.00    +0.144 A 
ATOM     11  O   UNL     1      -0.137  -2.896  -0.128  0.00  0.00    -0.451 OA
ENDROOT
BRANCH   1  17
ATOM     12  C   UNL     1      -0.017   1.395  -0.016  0.00  0.00    +0.009 A 
ATOM     13  C   UNL     1       1.169   2.098  -0.023  0.00  0.00    +0.022 A 
ATOM     14  C   UNL     1       2.378   1.422  -0.014  0.00  0.00    +0.059 A 
ATOM     15  C   UNL     1       2.406   0.036   0.003  0.00  0.00    +0.060 A 
ATOM     16  C   UNL     1       1.228  -0.680   0.011  0.00  0.00    +0.029 A 
ATOM     17  C   UNL     1       0.002  -0.004   0.002  0.00  0.00    -0.020 A 
ATOM     18 CL   UNL     1       3.928  -0.800   0.015  0.00  0.00    -0.082 Cl
ATOM     19 CL   UNL     1       3.867   2.316  -0.024  0.00  0.00    -0.082 Cl
ENDBRANCH   1  17
BRANCH   8  20
ATOM     20  O   UNL     1       0.543  -7.697  -0.486  0.00  0.00    -0.506 OA
ATOM     21  H   UNL     1       0.804  -7.947  -1.383  0.00  0.00    +0.292 HD
ENDBRANCH   8  20
BRANCH   9  22
ATOM     22  C   UNL     1       1.843  -5.214  -0.235  0.00  0.00    -0.036 C 
BRANCH  22  23
ATOM     23  N   UNL     1       2.383  -5.060  -1.593  0.00  0.00    +0.383 N 
ATOM     24  C   UNL     1       1.903  -3.798  -2.169  0.00  0.00    -0.078 C 
ATOM     25  C   UNL     1       2.396  -3.672  -3.612  0.00  0.00    -0.019 C 
ATOM     26  C   UNL     1       3.928  -3.692  -3.626  0.00  0.00    -0.004 C 
ATOM     27  C   UNL     1       4.418  -4.978  -2.956  0.00  0.00    -0.019 C 
ATOM     28  C   UNL     1       3.850  -5.056  -1.537  0.00  0.00    -0.078 C 
ATOM     29  H   UNL     1       2.071  -5.829  -2.167  0.00  0.00    -0.081 HD
ENDBRANCH  22  23
ENDBRANCH   9  22
TORSDOF 4
