REMARK  Name = ZINC45781334
REMARK  9 active torsions:
REMARK  status: ('A' for Active; 'I' for Inactive)
REMARK    1  A    between atoms: C_1  and  C_2
REMARK    2  A    between atoms: C_2  and  C_4
REMARK    3  A    between atoms: C_2  and  N_15
REMARK    4  A    between atoms: C_9  and  N_10
REMARK    5  A    between atoms: N_10  and  S_11
REMARK    6  A    between atoms: S_11  and  C_14
REMARK    7  A    between atoms: C_16  and  C_18
REMARK    8  A    between atoms: C_18  and  C_19
REMARK    9  A    between atoms: C_24  and  N_25
REMARK                            x       y       z     vdW  Elec       q    Type
REMARK                         _______ _______ _______ _____ _____    ______ ____
ROOT
ATOM      1  N   UNL     1      -2.001  -0.733  -0.438  0.00  0.00    -0.308 N 
ATOM      2  C   UNL     1      -2.466  -0.830   0.823  0.00  0.00    +0.218 C 
ATOM      3  O   UNL     1      -1.736  -0.585   1.760  0.00  0.00    -0.275 OA
ATOM      4  H   UNL     1      -2.586  -0.929  -1.187  0.00  0.00    +0.149 HD
ENDROOT
BRANCH   1   6
ATOM      5  C   UNL     1      -0.517   1.195  -0.681  0.00  0.00    +0.033 C 
ATOM      6  C   UNL     1      -0.613  -0.332  -0.678  0.00  0.00    +0.102 C 
BRANCH   6   7
ATOM      7  C   UNL     1      -0.158  -0.867  -2.011  0.00  0.00    -0.003 A 
ATOM      8  C   UNL     1      -1.084  -1.135  -3.001  0.00  0.00    +0.007 A 
ATOM      9  C   UNL     1      -0.668  -1.626  -4.224  0.00  0.00    +0.000 A 
ATOM     10  C   UNL     1       0.676  -1.850  -4.462  0.00  0.00    +0.002 A 
ATOM     11  C   UNL     1       1.607  -1.584  -3.478  0.00  0.00    +0.027 A 
ATOM     12  C   UNL     1       1.192  -1.085  -2.249  0.00  0.00    +0.079 A 
BRANCH  12  13
ATOM     13  N   UNL     1       2.132  -0.810  -1.253  0.00  0.00    -0.103 NA
BRANCH  13  14
ATOM     14  S   UNL     1       3.742  -1.071  -1.538  0.00  0.00    +0.059 S 
ATOM     15  O   UNL     1       3.853  -2.474  -1.733  0.00  0.00    -0.154 OA
ATOM     16  O   UNL     1       4.077  -0.167  -2.582  0.00  0.00    -0.154 OA
ATOM     17  C   UNL     1       4.573  -0.586  -0.001  0.00  0.00    +0.220 C 
ENDBRANCH  13  14
ENDBRANCH  12  13
ENDBRANCH   6   7
ENDBRANCH   1   6
BRANCH   2  18
ATOM     18  C   UNL     1      -3.894  -1.243   1.070  0.00  0.00    +0.133 C 
BRANCH  18  19
ATOM     19  C   UNL     1      -4.159  -1.274   2.553  0.00  0.00    -0.008 A 
ATOM     20  C   UNL     1      -4.158  -2.479   3.231  0.00  0.00    +0.006 A 
ATOM     21  C   UNL     1      -4.401  -2.507   4.591  0.00  0.00    +0.000 A 
ATOM     22  C   UNL     1      -4.645  -1.330   5.274  0.00  0.00    +0.002 A 
ATOM     23  C   UNL     1      -4.645  -0.125   4.597  0.00  0.00    +0.033 A 
ATOM     24  C   UNL     1      -4.398  -0.097   3.237  0.00  0.00    +0.130 A 
BRANCH  24  25
ATOM     25  N   UNL     1      -4.393   1.194   2.513  0.00  0.00    +0.057 N 
ATOM     26  O   UNL     1      -4.708   2.211   3.087  0.00  0.00    -0.126 OA
ATOM     27  O   UNL     1      -4.073   1.232   1.347  0.00  0.00    -0.126 OA
ENDBRANCH  24  25
ENDBRANCH  18  19
ENDBRANCH   2  18
TORSDOF 7
