REMARK  Name = ZINC03552025
REMARK  7 active torsions:
REMARK  status: ('A' for Active; 'I' for Inactive)
REMARK    1  A    between atoms: C_1  and  C_2
REMARK    2  A    between atoms: C_2  and  C_3
REMARK    3  A    between atoms: C_2  and  C_4
REMARK    4  A    between atoms: C_4  and  N_5
REMARK    5  A    between atoms: C_9  and  C_11
REMARK    6  A    between atoms: C_11  and  S_12
REMARK    7  A    between atoms: S_12  and  C_13
REMARK                            x       y       z     vdW  Elec       q    Type
REMARK                         _______ _______ _______ _____ _____    ______ ____
ROOT
ATOM      1  C   UNL     1      -8.300  -0.358  -5.693  0.00  0.00    +0.191 A 
ATOM      2  N   UNL     1      -7.535   0.343  -6.522  0.00  0.00    -0.207 NA
ATOM      3  C   UNL     1      -8.021   0.920  -7.608  0.00  0.00    +0.129 A 
ATOM      4  C   UNL     1      -9.408   0.790  -7.903  0.00  0.00    +0.051 A 
ATOM      5  C   UNL     1     -10.158   1.339  -9.036  0.00  0.00    -0.025 A 
ATOM      6  C   UNL     1     -11.477   1.068  -9.084  0.00  0.00    -0.004 A 
ATOM      7  S   UNL     1     -11.800   0.080  -7.648  0.00  0.00    -0.073 S 
ATOM      8  C   UNL     1     -10.157   0.034  -6.981  0.00  0.00    +0.115 A 
ATOM      9  N   UNL     1      -9.596  -0.516  -5.921  0.00  0.00    -0.214 NA
ATOM     10  C   UNL     1     -12.457   1.509 -10.129  0.00  0.00    +0.043 C 
ATOM     11  C   UNL     1     -11.814   2.635 -10.951  0.00  0.00    +0.005 C 
ATOM     12  C   UNL     1     -10.400   2.203 -11.353  0.00  0.00    +0.005 C 
ATOM     13  C   UNL     1      -9.495   2.182 -10.121  0.00  0.00    +0.037 C 
ATOM     14  N   UNL     1      -7.193   1.642  -8.447  0.00  0.00    -0.343 N 
ATOM     15  H   UNL     1      -6.230   1.539  -8.385  0.00  0.00    +0.144 HD
ATOM     16  H   UNL     1      -7.574   2.251  -9.099  0.00  0.00    +0.144 HD
ENDROOT
BRANCH   1  17
ATOM     17  S   UNL     1      -7.576  -1.096  -4.266  0.00  0.00    -0.077 S 
BRANCH  17  18
ATOM     18  C   UNL     1      -5.827  -0.623  -4.366  0.00  0.00    +0.173 C 
BRANCH  18  23
ATOM     19  N   UNL     1      -1.773  -1.266  -1.864  0.00  0.00    -0.299 N 
ATOM     20  C   UNL     1      -3.095  -1.489  -2.000  0.00  0.00    +0.306 C 
ATOM     21  O   UNL     1      -3.688  -2.155  -1.173  0.00  0.00    -0.252 OA
ATOM     22  N   UNL     1      -3.761  -0.975  -3.053  0.00  0.00    -0.240 N 
ATOM     23  C   UNL     1      -5.083  -1.198  -3.189  0.00  0.00    +0.231 C 
ATOM     24  O   UNL     1      -5.674  -1.862  -2.364  0.00  0.00    -0.274 OA
ATOM     25  H   UNL     1      -1.301  -0.735  -2.524  0.00  0.00    +0.150 HD
ATOM     26  H   UNL     1      -3.288  -0.444  -3.713  0.00  0.00    +0.159 HD
BRANCH  19  27
ATOM     27  C   UNL     1      -1.050  -1.825  -0.719  0.00  0.00    +0.108 C 
BRANCH  27  29
ATOM     28  C   UNL     1       0.551   0.092  -0.660  0.00  0.00    +0.009 C 
ATOM     29  C   UNL     1       0.425  -1.426  -0.803  0.00  0.00    -0.000 C 
ATOM     30  C   UNL     1       1.204  -2.111   0.321  0.00  0.00    +0.009 C 
ENDBRANCH  27  29
ENDBRANCH  19  27
ENDBRANCH  18  23
ENDBRANCH  17  18
ENDBRANCH   1  17
TORSDOF 5
