REMARK  Name = ZINC13428163
REMARK  4 active torsions:
REMARK  status: ('A' for Active; 'I' for Inactive)
REMARK    1  A    between atoms: C_2  and  C_13
REMARK    2  A    between atoms: C_14  and  C_15
REMARK    3  A    between atoms: N_17  and  C_18
REMARK    4  A    between atoms: C_23  and  C_24
REMARK                            x       y       z     vdW  Elec       q    Type
REMARK                         _______ _______ _______ _____ _____    ______ ____
ROOT
ATOM      1  C   UNL     1       1.697   8.231  -4.478  0.00  0.00    +0.241 C 
ATOM      2  O   UNL     1       1.372   9.194  -3.808  0.00  0.00    -0.270 OA
ATOM      3  N   UNL     1       2.362   8.409  -5.636  0.00  0.00    -0.281 N 
ATOM      4  H   UNL     1       2.677   7.641  -6.138  0.00  0.00    +0.155 HD
ENDROOT
BRANCH   3   5
ATOM      5  C   UNL     1       2.598   9.696  -6.113  0.00  0.00    +0.052 A 
ATOM      6  C   UNL     1       2.852  10.731  -5.225  0.00  0.00    +0.073 A 
ATOM      7  C   UNL     1       3.090  12.008  -5.704  0.00  0.00    +0.164 A 
ATOM      8  C   UNL     1       3.065  12.264  -7.073  0.00  0.00    +0.163 A 
ATOM      9  C   UNL     1       2.809  11.247  -7.967  0.00  0.00    +0.066 A 
ATOM     10  C   UNL     1       2.573   9.950  -7.494  0.00  0.00    +0.088 A 
ATOM     11  O   UNL     1       3.295  13.532  -7.525  0.00  0.00    -0.488 OA
ATOM     12  C   UNL     1       4.624  14.026  -7.351  0.00  0.00    +0.232 C 
ATOM     13  C   UNL     1       4.804  14.611  -5.958  0.00  0.00    +0.082 C 
ATOM     14  C   UNL     1       4.671  13.559  -4.868  0.00  0.00    +0.232 C 
ATOM     15  O   UNL     1       3.345  13.027  -4.835  0.00  0.00    -0.488 OA
BRANCH  10  16
ATOM     16  C   UNL     1       2.299   8.858  -8.441  0.00  0.00    +0.388 C 
ATOM     17  O   UNL     1       1.997   7.756  -8.026  0.00  0.00    -0.241 OA
ATOM     18  O   UNL     1       2.382   9.079  -9.768  0.00  0.00    -0.241 OA
ENDBRANCH  10  16
ENDBRANCH   3   5
BRANCH   1  20
ATOM     19  C   UNL     1       0.698   6.702  -2.865  0.00  0.00    +0.013 C 
ATOM     20  C   UNL     1       1.365   6.881  -4.026  0.00  0.00    +0.068 C 
BRANCH  19  22
ATOM     21  C   UNL     1      -0.328   5.158  -1.207  0.00  0.00    +0.057 A 
ATOM     22  C   UNL     1       0.364   5.345  -2.411  0.00  0.00    -0.020 A 
ATOM     23  C   UNL     1       0.737   4.237  -3.179  0.00  0.00    +0.031 A 
ATOM     24  C   UNL     1       0.423   2.963  -2.751  0.00  0.00    +0.087 A 
ATOM     25  C   UNL     1      -0.263   2.783  -1.558  0.00  0.00    +0.180 A 
ATOM     26  C   UNL     1      -0.637   3.880  -0.789  0.00  0.00    +0.164 A 
ATOM     27  O   UNL     1      -1.312   3.685   0.381  0.00  0.00    -0.488 OA
ATOM     28  C   UNL     1      -0.570   3.067   1.435  0.00  0.00    +0.232 C 
ATOM     29  C   UNL     1      -0.598   1.553   1.296  0.00  0.00    +0.082 C 
ATOM     30  C   UNL     1       0.109   1.073   0.038  0.00  0.00    +0.232 C 
ATOM     31  O   UNL     1      -0.576   1.525  -1.131  0.00  0.00    -0.487 OA
ATOM     32 CL   UNL     1       0.886   1.588  -3.704  0.00  0.00    -0.080 Cl
ENDBRANCH  19  22
ENDBRANCH   1  20
TORSDOF 4
