REMARK  Name = ZINC39884036
REMARK  7 active torsions:
REMARK  status: ('A' for Active; 'I' for Inactive)
REMARK    1  A    between atoms: C_1  and  C_2
REMARK    2  A    between atoms: C_2  and  C_3
REMARK    3  A    between atoms: C_2  and  O_4
REMARK    4  A    between atoms: O_4  and  C_5
REMARK    5  A    between atoms: C_5  and  C_7
REMARK    6  A    between atoms: C_7  and  N_8
REMARK    7  A    between atoms: C_26  and  C_36
REMARK                            x       y       z     vdW  Elec       q    Type
REMARK                         _______ _______ _______ _____ _____    ______ ____
ROOT
ATOM      1  N   UNL     1      -2.921  -3.544  -1.329  0.00  0.00    -0.231 N 
ATOM      2  C   UNL     1      -3.111  -3.671  -2.688  0.00  0.00    +0.226 C 
ATOM      3  O   UNL     1      -3.039  -2.810  -3.538  0.00  0.00    -0.275 OA
ATOM      4  C   UNL     1      -3.426  -5.121  -2.866  0.00  0.00    +0.091 C 
ATOM      5  C   UNL     1      -3.035  -5.937  -4.127  0.00  0.00    +0.007 C 
ATOM      6  C   UNL     1      -1.618  -6.544  -3.753  0.00  0.00    +0.010 C 
ATOM      7  C   UNL     1      -2.005  -6.982  -2.253  0.00  0.00    +0.015 C 
ATOM      8  C   UNL     1      -2.326  -5.604  -1.833  0.00  0.00    +0.092 C 
ATOM      9  C   UNL     1      -2.699  -4.764  -0.710  0.00  0.00    +0.226 C 
ATOM     10  O   UNL     1      -2.794  -5.055   0.464  0.00  0.00    -0.275 OA
ATOM     11  C   UNL     1      -3.148  -7.914  -2.643  0.00  0.00    +0.061 C 
ATOM     12  C   UNL     1      -3.903  -7.152  -3.787  0.00  0.00    +0.019 C 
ATOM     13  C   UNL     1      -4.753  -7.975  -4.649  0.00  0.00    +0.063 C 
ATOM     14  C   UNL     1      -5.755  -8.680  -3.763  0.00  0.00    +0.032 A 
ATOM     15  C   UNL     1      -5.772  -8.812  -2.419  0.00  0.00    +0.087 A 
ATOM     16  N   UNL     1      -6.862  -9.486  -1.921  0.00  0.00    -0.311 N 
ATOM     17  H   UNL     1      -6.963  -9.604  -0.964  0.00  0.00    +0.170 HD
ATOM     18  C   UNL     1      -7.789  -9.985  -2.761  0.00  0.00    +0.289 A 
ATOM     19  O   UNL     1      -8.800 -10.607  -2.487  0.00  0.00    -0.260 OA
ATOM     20  S   UNL     1      -7.217  -9.540  -4.279  0.00  0.00    -0.030 S 
ATOM     21  S   UNL     1      -4.399  -8.220  -1.369  0.00  0.00    -0.103 S 
ENDROOT
BRANCH  13  22
ATOM     22  C   UNL     1      -5.474  -7.100  -5.642  0.00  0.00    -0.039 A 
ATOM     23  C   UNL     1      -6.319  -6.100  -5.197  0.00  0.00    +0.006 A 
ATOM     24  C   UNL     1      -6.979  -5.298  -6.108  0.00  0.00    +0.020 A 
ATOM     25  C   UNL     1      -6.796  -5.495  -7.465  0.00  0.00    +0.041 A 
ATOM     26  C   UNL     1      -5.950  -6.496  -7.909  0.00  0.00    +0.020 A 
ATOM     27  C   UNL     1      -5.285  -7.294  -6.998  0.00  0.00    +0.006 A 
ATOM     28 CL   UNL     1      -7.626  -4.487  -8.609  0.00  0.00    -0.084 Cl
ENDBRANCH  13  22
BRANCH   1  29
ATOM     29  C   UNL     1      -2.946  -2.263  -0.619  0.00  0.00    +0.236 C 
BRANCH  29  30
ATOM     30  C   UNL     1      -1.558  -1.678  -0.590  0.00  0.00    +0.325 C 
ATOM     31  O   UNL     1      -0.641  -2.271  -1.109  0.00  0.00    -0.249 OA
BRANCH  30  32
ATOM     32  O   UNL     1      -1.339  -0.499   0.012  0.00  0.00    -0.461 OA
BRANCH  32  34
ATOM     33  C   UNL     1      -0.019   1.526   0.010  0.00  0.00    +0.052 C 
ATOM     34  C   UNL     1       0.002  -0.004   0.002  0.00  0.00    +0.170 C 
ATOM     35  C   UNL     1       0.742  -0.511   1.242  0.00  0.00    +0.052 C 
ENDBRANCH  32  34
ENDBRANCH  30  32
ENDBRANCH  29  30
ENDBRANCH   1  29
TORSDOF 5
