REMARK  Name = ZINC09455699
REMARK  10 active torsions:
REMARK  status: ('A' for Active; 'I' for Inactive)
REMARK    1  A    between atoms: C_1  and  C_2
REMARK    2  A    between atoms: C_2  and  C_3
REMARK    3  A    between atoms: C_3  and  N_4
REMARK    4  A    between atoms: C_13  and  C_15
REMARK    5  A    between atoms: C_15  and  O_17
REMARK    6  A    between atoms: O_17  and  C_18
REMARK    7  A    between atoms: C_18  and  C_19
REMARK    8  A    between atoms: N_21  and  C_22
REMARK    9  A    between atoms: C_27  and  S_28
REMARK   10  A    between atoms: S_28  and  C_29
REMARK                            x       y       z     vdW  Elec       q    Type
REMARK                         _______ _______ _______ _____ _____    ______ ____
ROOT
ATOM      1  C   UNL     1       3.211   6.123   4.615  0.00  0.00    +0.328 C 
ENDROOT
BRANCH   1   2
ATOM      2  C   UNL     1       4.195   5.057   5.022  0.00  0.00    +0.255 C 
ATOM      3  O   UNL     1       3.807   3.933   5.262  0.00  0.00    -0.272 OA
ATOM      4  N   UNL     1       5.506   5.352   5.120  0.00  0.00    -0.282 N 
ATOM      5  H   UNL     1       5.827   6.230   4.858  0.00  0.00    +0.155 HD
BRANCH   4   6
ATOM      6  C   UNL     1       6.407   4.392   5.601  0.00  0.00    +0.047 A 
ATOM      7  C   UNL     1       6.137   3.042   5.436  0.00  0.00    +0.024 A 
ATOM      8  C   UNL     1       7.027   2.097   5.910  0.00  0.00    +0.002 A 
ATOM      9  C   UNL     1       8.188   2.493   6.549  0.00  0.00    +0.001 A 
ATOM     10  C   UNL     1       8.466   3.836   6.718  0.00  0.00    +0.017 A 
ATOM     11  C   UNL     1       7.580   4.792   6.240  0.00  0.00    +0.034 A 
BRANCH  11  12
ATOM     12  S   UNL     1       7.934   6.506   6.447  0.00  0.00    -0.088 S 
BRANCH  12  13
ATOM     13  C   UNL     1       8.450   7.031   4.846  0.00  0.00    +0.013 A 
ATOM     14  C   UNL     1       8.614   6.100   3.827  0.00  0.00    +0.015 A 
ATOM     15  C   UNL     1       9.012   6.516   2.572  0.00  0.00    +0.001 A 
ATOM     16  C   UNL     1       9.258   7.855   2.331  0.00  0.00    +0.000 A 
ATOM     17  C   UNL     1       9.101   8.784   3.344  0.00  0.00    +0.001 A 
ATOM     18  C   UNL     1       8.698   8.376   4.600  0.00  0.00    +0.015 A 
ENDBRANCH  12  13
ENDBRANCH  11  12
ENDBRANCH   4   6
ENDBRANCH   1   2
BRANCH   1  19
ATOM     19  O   UNL     1       1.873   5.559   4.584  0.00  0.00    -0.451 OA
BRANCH  19  20
ATOM     20  C   UNL     1       0.868   6.388   4.236  0.00  0.00    +0.360 C 
ATOM     21  O   UNL     1       1.104   7.549   3.966  0.00  0.00    -0.243 OA
BRANCH  20  31
ATOM     22  N   UNL     1      -1.952   4.120   4.448  0.00  0.00    -0.228 N 
ATOM     23  C   UNL     1      -3.062   4.811   4.115  0.00  0.00    +0.275 A 
ATOM     24  O   UNL     1      -4.152   4.271   4.105  0.00  0.00    -0.266 OA
ATOM     25  C   UNL     1      -2.924   6.233   3.771  0.00  0.00    +0.050 A 
ATOM     26  C   UNL     1      -4.006   7.034   3.419  0.00  0.00    +0.014 A 
ATOM     27  C   UNL     1      -3.792   8.359   3.104  0.00  0.00    +0.001 A 
ATOM     28  C   UNL     1      -2.513   8.898   3.135  0.00  0.00    +0.001 A 
ATOM     29  C   UNL     1      -1.427   8.120   3.480  0.00  0.00    +0.011 A 
ATOM     30  C   UNL     1      -1.621   6.782   3.802  0.00  0.00    +0.021 A 
ATOM     31  C   UNL     1      -0.517   5.885   4.182  0.00  0.00    +0.176 A 
ATOM     32  N   UNL     1      -0.781   4.633   4.471  0.00  0.00    -0.161 NA
BRANCH  22  33
ATOM     33  C   UNL     1      -2.096   2.704   4.795  0.00  0.00    +0.147 C 
BRANCH  33  35
ATOM     34  C   UNL     1      -2.111   0.373   3.895  0.00  0.00    +0.005 C 
ATOM     35  C   UNL     1      -1.961   1.852   3.532  0.00  0.00    +0.020 C 
ENDBRANCH  33  35
ENDBRANCH  22  33
ENDBRANCH  20  31
ENDBRANCH  19  20
ENDBRANCH   1  19
TORSDOF 9
