REMARK  Name = ZINC44300574
REMARK  11 active torsions:
REMARK  status: ('A' for Active; 'I' for Inactive)
REMARK    1  A    between atoms: C_1  and  C_2
REMARK    2  A    between atoms: C_2  and  C_3
REMARK    3  A    between atoms: C_2  and  C_4
REMARK    4  A    between atoms: C_2  and  O_5
REMARK    5  A    between atoms: O_5  and  C_6
REMARK    6  A    between atoms: N_8  and  CA_9
REMARK    7  A    between atoms: CA_9  and  C_11
REMARK    8  A    between atoms: CA_9  and  C_27
REMARK    9  A    between atoms: C_11  and  C_12
REMARK   10  A    between atoms: C_15  and  C_17
REMARK   11  A    between atoms: C_22  and  N_23
REMARK                            x       y       z     vdW  Elec       q    Type
REMARK                         _______ _______ _______ _____ _____    ______ ____
ROOT
ATOM      1  C   UNL     1       4.824  -2.415  -2.783  0.00  0.00    +0.108 A 
ATOM      2  C   UNL     1       3.905  -3.397  -2.870  0.00  0.00    +0.045 A 
ATOM      3  C   UNL     1       4.355  -4.457  -2.057  0.00  0.00    +0.050 A 
ATOM      4  C   UNL     1       5.536  -4.058  -1.512  0.00  0.00    +0.137 A 
ATOM      5  O   UNL     1       5.811  -2.821  -1.966  0.00  0.00    -0.460 OA
ENDROOT
BRANCH   4   6
ATOM      6  C   UNL     1       6.375  -4.849  -0.588  0.00  0.00    +0.047 A 
ATOM      7  C   UNL     1       5.804  -5.449   0.537  0.00  0.00    +0.015 A 
ATOM      8  C   UNL     1       6.592  -6.186   1.396  0.00  0.00    +0.021 A 
ATOM      9  C   UNL     1       7.947  -6.331   1.146  0.00  0.00    +0.043 A 
ATOM     10  C   UNL     1       8.518  -5.737   0.033  0.00  0.00    +0.053 A 
ATOM     11  C   UNL     1       7.739  -5.003  -0.838  0.00  0.00    +0.138 A 
ATOM     12 CL   UNL     1       8.932  -7.259   2.232  0.00  0.00    -0.083 Cl
BRANCH  11  13
ATOM     13  N   UNL     1       8.350  -4.376  -2.031  0.00  0.00    +0.057 N 
ATOM     14  O   UNL     1       9.532  -4.511  -2.246  0.00  0.00    -0.126 OA
ATOM     15  O   UNL     1       7.667  -3.729  -2.790  0.00  0.00    -0.126 OA
ENDBRANCH  11  13
ENDBRANCH   4   6
BRANCH   1  16
ATOM     16  C   UNL     1       4.759  -1.086  -3.489  0.00  0.00    +0.108 C 
BRANCH  16  17
ATOM     17  CA  UNL     1       4.035  -0.071  -2.601  0.00  0.00    +0.196 C 
BRANCH  17  20
ATOM     18  C   UNL     1       1.952  -0.085  -1.337  0.00  0.00    +0.401 C 
ATOM     19  O   UNL     1       2.488   0.619  -0.503  0.00  0.00    -0.226 OA
ATOM     20  N   UNL     1       2.641  -0.485  -2.424  0.00  0.00    -0.267 N 
ATOM     21  H   UNL     1       2.213  -1.047  -3.089  0.00  0.00    +0.153 HD
BRANCH  18  22
ATOM     22  O   UNL     1       0.671  -0.465  -1.174  0.00  0.00    -0.445 OA
BRANCH  22  24
ATOM     23  C   UNL     1      -0.019   1.526   0.010  0.00  0.00    +0.055 C 
ATOM     24  C   UNL     1       0.002  -0.004   0.002  0.00  0.00    +0.107 C 
ATOM     25  C   UNL     1       0.742  -0.511   1.242  0.00  0.00    +0.055 C 
ATOM     26  C   UNL     1      -1.433  -0.534   0.013  0.00  0.00    +0.055 C 
ENDBRANCH  22  24
ENDBRANCH  18  22
ENDBRANCH  17  20
BRANCH  17  27
ATOM     27  C   UNL     1       4.077   1.287  -3.253  0.00  0.00    +0.376 C 
ATOM     28  O   UNL     1       5.001   2.047  -3.018  0.00  0.00    -0.244 OA
ATOM     29  OXT UNL     1       3.187   1.625  -4.015  0.00  0.00    -0.244 OA
ENDBRANCH  17  27
ENDBRANCH  16  17
ENDBRANCH   1  16
TORSDOF 8
