REMARK  Name = ZINC11423295
REMARK  12 active torsions:
REMARK  status: ('A' for Active; 'I' for Inactive)
REMARK    1  A    between atoms: C_1  and  C_2
REMARK    2  A    between atoms: C_2  and  C_29
REMARK    3  A    between atoms: C_4  and  N_9
REMARK    4  A    between atoms: C_6  and  C_7
REMARK    5  A    between atoms: C_6  and  C_8
REMARK    6  A    between atoms: C_10  and  C_12
REMARK    7  A    between atoms: C_12  and  C_13
REMARK    8  A    between atoms: C_13  and  N_14
REMARK    9  A    between atoms: N_14  and  S_15
REMARK   10  A    between atoms: S_15  and  C_18
REMARK   11  A    between atoms: C_21  and  O_24
REMARK   12  A    between atoms: O_24  and  C_25
REMARK                            x       y       z     vdW  Elec       q    Type
REMARK                         _______ _______ _______ _____ _____    ______ ____
ROOT
ATOM      1  C   UNL     1       1.280   1.980   0.001  0.00  0.00    +0.112 C 
ENDROOT
BRANCH   1   3
ATOM      2  N   UNL     1      -1.191   1.867   0.018  0.00  0.00    -0.313 N 
ATOM      3  C   UNL     1      -0.014   1.209   0.009  0.00  0.00    +0.215 C 
ATOM      4  O   UNL     1       0.002  -0.004   0.002  0.00  0.00    -0.276 OA
ATOM      5  H   UNL     1      -1.204   2.837   0.023  0.00  0.00    +0.149 HD
BRANCH   2   9
ATOM      6  C   UNL     1      -4.873   0.160   1.732  0.00  0.00    -0.010 C 
ATOM      7  C   UNL     1      -4.882   1.230   0.634  0.00  0.00    -0.072 C 
ATOM      8  C   UNL     1      -3.551   1.978   0.639  0.00  0.00    +0.009 C 
ATOM      9  C   UNL     1      -2.452   1.115   0.020  0.00  0.00    +0.070 C 
ATOM     10  C   UNL     1      -2.845   0.788  -1.421  0.00  0.00    +0.009 C 
ATOM     11  C   UNL     1      -4.167   0.024  -1.450  0.00  0.00    -0.072 C 
ATOM     12  C   UNL     1      -3.931  -1.425  -1.006  0.00  0.00    -0.010 C 
ATOM     13  C   UNL     1      -4.646  -0.021  -2.918  0.00  0.00    -0.010 C 
ATOM     14  C   UNL     1      -5.988   2.246   0.995  0.00  0.00    -0.010 C 
ATOM     15  N   UNL     1      -5.273   0.656  -0.682  0.00  0.00    +0.386 N 
ATOM     16  H   UNL     1      -5.666   1.412  -1.254  0.00  0.00    -0.084 HD
ATOM     17  H   UNL     1      -5.993  -0.057  -0.516  0.00  0.00    -0.084 HD
ENDBRANCH   2   9
ENDBRANCH   1   3
BRANCH   1  18
ATOM     18  C   UNL     1       2.457   1.002  -0.016  0.00  0.00    +0.115 C 
BRANCH  18  19
ATOM     19  N   UNL     1       3.715   1.751  -0.024  0.00  0.00    -0.189 NA
ATOM     20  H   UNL     1       3.715   2.698  -0.236  0.00  0.00    +0.148 HD
BRANCH  19  21
ATOM     21  S   UNL     1       5.139   0.983   0.330  0.00  0.00    +0.058 S 
ATOM     22  O   UNL     1       6.166   1.958   0.214  0.00  0.00    -0.153 OA
ATOM     23  O   UNL     1       4.918   0.248   1.525  0.00  0.00    -0.153 OA
BRANCH  21  24
ATOM     24  C   UNL     1       5.422  -0.201  -0.944  0.00  0.00    +0.105 A 
ATOM     25  C   UNL     1       4.937  -1.489  -0.810  0.00  0.00    +0.032 A 
ATOM     26  C   UNL     1       5.153  -2.417  -1.810  0.00  0.00    +0.048 A 
ATOM     27  C   UNL     1       5.867  -2.060  -2.944  0.00  0.00    +0.130 A 
ATOM     28  C   UNL     1       6.357  -0.769  -3.074  0.00  0.00    +0.048 A 
ATOM     29  C   UNL     1       6.134   0.158  -2.074  0.00  0.00    +0.032 A 
BRANCH  27  30
ATOM     30  O   UNL     1       6.085  -2.973  -3.927  0.00  0.00    -0.406 OA
BRANCH  30  31
ATOM     31  C   UNL     1       5.551  -4.283  -3.725  0.00  0.00    +0.575 C 
ATOM     32  F   UNL     1       4.161  -4.204  -3.588  0.00  0.00    -0.133 F 
ATOM     33  F   UNL     1       5.865  -5.089  -4.825  0.00  0.00    -0.133 F 
ATOM     34  F   UNL     1       6.104  -4.839  -2.567  0.00  0.00    -0.133 F 
ENDBRANCH  30  31
ENDBRANCH  27  30
ENDBRANCH  21  24
ENDBRANCH  19  21
ENDBRANCH  18  19
ENDBRANCH   1  18
TORSDOF 8
