REMARK  Name = ZINC63400594
REMARK  11 active torsions:
REMARK  status: ('A' for Active; 'I' for Inactive)
REMARK    1  A    between atoms: C_1  and  C_2
REMARK    2  A    between atoms: C_2  and  N_3
REMARK    3  A    between atoms: N_3  and  C_4
REMARK    4  A    between atoms: C_4  and  C_5
REMARK    5  A    between atoms: C_6  and  C_8
REMARK    6  A    between atoms: C_8  and  S_9
REMARK    7  A    between atoms: S_9  and  C_10
REMARK    8  A    between atoms: C_16  and  N_20
REMARK    9  A    between atoms: C_21  and  C_23
REMARK   10  A    between atoms: C_23  and  S_24
REMARK   11  A    between atoms: S_24  and  C_25
REMARK                            x       y       z     vdW  Elec       q    Type
REMARK                         _______ _______ _______ _____ _____    ______ ____
ROOT
ATOM      1  C   UNL     1      -1.356  -0.554   5.559  0.00  0.00    +0.193 C 
ATOM      2  N   UNL     1      -0.895   0.828   5.368  0.00  0.00    -0.323 N 
ATOM      3  C   UNL     1       0.483   1.047   5.314  0.00  0.00    +0.042 A 
ATOM      4  C   UNL     1       1.106   2.295   5.137  0.00  0.00    +0.026 A 
ATOM      5  C   UNL     1       2.475   2.410   5.096  0.00  0.00    +0.025 A 
ATOM      6  C   UNL     1       3.291   1.295   5.228  0.00  0.00    +0.035 A 
ATOM      7  C   UNL     1       2.700   0.048   5.403  0.00  0.00    +0.040 A 
ATOM      8  C   UNL     1       1.329  -0.059   5.443  0.00  0.00    +0.033 A 
ATOM      9  S   UNL     1       0.243  -1.454   5.648  0.00  0.00    -0.090 S 
ATOM     10  H   UNL     1      -1.525   1.561   5.283  0.00  0.00    +0.148 HD
ENDROOT
BRANCH   6  11
ATOM     11  N   UNL     1       4.686   1.422   5.185  0.00  0.00    -0.285 N 
ATOM     12  C   UNL     1       5.438   0.432   4.664  0.00  0.00    +0.227 C 
ATOM     13  O   UNL     1       4.904  -0.526   4.146  0.00  0.00    -0.275 OA
ATOM     14  H   UNL     1       5.110   2.224   5.530  0.00  0.00    +0.155 HD
BRANCH  12  15
ATOM     15  C   UNL     1       6.941   0.516   4.726  0.00  0.00    +0.169 C 
BRANCH  15  16
ATOM     16  S   UNL     1       7.661  -0.956   3.947  0.00  0.00    -0.106 S 
BRANCH  16  17
ATOM     17  C   UNL     1       9.451  -0.703   4.102  0.00  0.00    +0.236 C 
ATOM     18  N   UNL     1       9.814  -0.522   5.513  0.00  0.00    -0.355 N 
ATOM     19  C   UNL     1      10.351   0.658   5.630  0.00  0.00    +0.061 A 
ATOM     20  C   UNL     1      10.902   1.395   6.775  0.00  0.00    +0.027 A 
ATOM     21  C   UNL     1      11.403   2.633   6.590  0.00  0.00    +0.002 A 
ATOM     22  C   UNL     1      11.423   3.263   5.333  0.00  0.00    +0.002 A 
ATOM     23  C   UNL     1      10.943   2.676   4.218  0.00  0.00    +0.027 A 
ATOM     24  C   UNL     1      10.371   1.324   4.299  0.00  0.00    +0.061 A 
ATOM     25  N   UNL     1       9.847   0.530   3.411  0.00  0.00    -0.355 N 
ATOM     26  H   UNL     1       9.679  -1.165   6.227  0.00  0.00    +0.162 HD
ATOM     27  H   UNL     1       9.739   0.719   2.466  0.00  0.00    +0.162 HD
ENDBRANCH  16  17
ENDBRANCH  15  16
ENDBRANCH  12  15
ENDBRANCH   6  11
BRANCH   1  28
ATOM     28  S   UNL     1      -2.343  -1.114   4.143  0.00  0.00    -0.118 S 
BRANCH  28  29
ATOM     29  C   UNL     1      -1.239  -0.885   2.722  0.00  0.00    +0.167 C 
BRANCH  29  31
ATOM     30  N   UNL     1      -1.315  -1.237   0.275  0.00  0.00    -0.301 N 
ATOM     31  C   UNL     1      -1.945  -1.318   1.463  0.00  0.00    +0.225 C 
ATOM     32  O   UNL     1      -3.081  -1.740   1.519  0.00  0.00    -0.275 OA
BRANCH  30  34
ATOM     33  C   UNL     1       0.029   0.789   0.006  0.00  0.00    +0.024 C 
ATOM     34  C   UNL     1       0.057  -0.728   0.206  0.00  0.00    +0.104 C 
ENDBRANCH  30  34
BRANCH  30  35
ATOM     35  C   UNL     1      -2.001  -1.659  -0.949  0.00  0.00    +0.104 C 
ATOM     36  C   UNL     1      -1.734  -3.144  -1.198  0.00  0.00    +0.024 C 
ENDBRANCH  30  35
ENDBRANCH  29  31
ENDBRANCH  28  29
ENDBRANCH   1  28
TORSDOF 9
