REMARK  Name = ZINC35640762
REMARK  10 active torsions:
REMARK  status: ('A' for Active; 'I' for Inactive)
REMARK    1  A    between atoms: C_1  and  C_2
REMARK    2  A    between atoms: C_2  and  N_3
REMARK    3  A    between atoms: C_4  and  C_23
REMARK    4  A    between atoms: C_5  and  C_18
REMARK    5  A    between atoms: C_6  and  C_11
REMARK    6  A    between atoms: C_16  and  C_17
REMARK    7  A    between atoms: C_18  and  O_20
REMARK    8  A    between atoms: O_20  and  C_21
REMARK    9  A    between atoms: C_21  and  C_22
REMARK   10  A    between atoms: C_23  and  N_24
REMARK                            x       y       z     vdW  Elec       q    Type
REMARK                         _______ _______ _______ _____ _____    ______ ____
ROOT
ATOM      1  N   UNL     1       0.676  -0.398  -1.201  0.00  0.00    -0.258 N 
ATOM      2  C   UNL     1      -0.086  -0.553  -2.323  0.00  0.00    +0.041 C 
ATOM      3  C   UNL     1       0.449  -1.028  -3.469  0.00  0.00    +0.080 C 
ATOM      4  C   UNL     1       1.923  -1.382  -3.465  0.00  0.00    +0.144 C 
ATOM      5  N   UNL     1       2.655  -1.177  -2.204  0.00  0.00    -0.288 N 
ATOM      6  C   UNL     1       1.982  -0.690  -1.143  0.00  0.00    +0.307 C 
ATOM      7  O   UNL     1       2.579  -0.513  -0.099  0.00  0.00    -0.252 OA
ATOM      8  H   UNL     1       3.600  -1.385  -2.140  0.00  0.00    +0.151 HD
ENDROOT
BRANCH   4   9
ATOM      9  C   UNL     1       2.053  -2.834  -3.847  0.00  0.00    -0.020 A 
ATOM     10  C   UNL     1       2.038  -3.810  -2.868  0.00  0.00    +0.006 A 
ATOM     11  C   UNL     1       2.158  -5.142  -3.217  0.00  0.00    +0.000 A 
ATOM     12  C   UNL     1       2.291  -5.498  -4.547  0.00  0.00    +0.000 A 
ATOM     13  C   UNL     1       2.305  -4.522  -5.526  0.00  0.00    +0.004 A 
ATOM     14  C   UNL     1       2.181  -3.190  -5.176  0.00  0.00    -0.045 A 
ATOM     15  C   UNL     1       2.191  -2.127  -6.244  0.00  0.00    +0.044 C 
ENDBRANCH   4   9
BRANCH   1  17
ATOM     16  C   UNL     1       0.124   1.649   0.018  0.00  0.00    +0.025 C 
ATOM     17  C   UNL     1       0.031   0.122   0.007  0.00  0.00    +0.111 C 
ENDBRANCH   1  17
BRANCH   3  18
ATOM     18  C   UNL     1      -0.339  -1.190  -4.632  0.00  0.00    +0.339 C 
ATOM     19  O   UNL     1      -0.771  -2.289  -4.926  0.00  0.00    -0.245 OA
BRANCH  18  20
ATOM     20  O   UNL     1      -0.613  -0.126  -5.415  0.00  0.00    -0.462 OA
BRANCH  20  21
ATOM     21  C   UNL     1      -1.507  -0.339  -6.509  0.00  0.00    +0.229 C 
ATOM     22  C   UNL     1      -1.602   0.938  -7.346  0.00  0.00    +0.048 C 
ENDBRANCH  20  21
ENDBRANCH  18  20
ENDBRANCH   3  18
BRANCH   2  23
ATOM     23  C   UNL     1      -1.548  -0.189  -2.283  0.00  0.00    +0.136 C 
BRANCH  23  24
ATOM     24  N   UNL     1      -2.257  -1.111  -1.385  0.00  0.00    -0.299 NA
ATOM     25  C   UNL     1      -2.186  -2.503  -1.888  0.00  0.00    +0.083 C 
ATOM     26  C   UNL     1      -2.368  -3.443  -0.724  0.00  0.00    -0.004 C 
ATOM     27  C   UNL     1      -3.835  -3.853  -0.518  0.00  0.00    -0.081 C 
ATOM     28  N   UNL     1      -4.773  -2.719  -0.683  0.00  0.00    +0.380 N 
ATOM     29  C   UNL     1      -4.279  -1.508  -0.069  0.00  0.00    -0.067 C 
ATOM     30  C   UNL     1      -3.563  -0.671  -1.146  0.00  0.00    +0.066 C 
ATOM     31  H   UNL     1      -4.915  -2.553  -1.668  0.00  0.00    -0.086 HD
ATOM     32  H   UNL     1      -5.657  -2.962  -0.262  0.00  0.00    -0.086 HD
ENDBRANCH  23  24
ENDBRANCH   2  23
TORSDOF 7
