REMARK  Name = ZINC10431094
REMARK  9 active torsions:
REMARK  status: ('A' for Active; 'I' for Inactive)
REMARK    1  A    between atoms: C_1  and  C_2
REMARK    2  A    between atoms: C_2  and  N_3
REMARK    3  A    between atoms: N_3  and  C_4
REMARK    4  A    between atoms: N_3  and  C_16
REMARK    5  A    between atoms: C_4  and  C_5
REMARK    6  A    between atoms: C_10  and  C_15
REMARK    7  A    between atoms: C_17  and  N_32
REMARK    8  A    between atoms: N_18  and  C_25
REMARK    9  A    between atoms: C_25  and  C_26
REMARK                            x       y       z     vdW  Elec       q    Type
REMARK                         _______ _______ _______ _____ _____    ______ ____
ROOT
ATOM      1  C   UNL     1       1.418   1.864   0.192  0.00  0.00    +0.134 A 
ATOM      2  C   UNL     1       2.666   1.303   0.225  0.00  0.00    +0.127 A 
ATOM      3  N   UNL     1       2.789  -0.058   0.388  0.00  0.00    -0.276 N 
ATOM      4  C   UNL     1       1.695  -0.831   0.513  0.00  0.00    +0.331 A 
ATOM      5  O   UNL     1       1.823  -2.032   0.655  0.00  0.00    -0.246 OA
ATOM      6  N   UNL     1       0.461  -0.296   0.483  0.00  0.00    -0.273 N 
ATOM      7  H   UNL     1      -0.339  -0.889   0.578  0.00  0.00    +0.173 HD
ATOM      8  C   UNL     1       0.292   1.032   0.325  0.00  0.00    +0.277 A 
ATOM      9  O   UNL     1      -0.831   1.508   0.293  0.00  0.00    -0.266 OA
ENDROOT
BRANCH   2  10
ATOM     10  N   UNL     1       3.786   2.092   0.096  0.00  0.00    -0.343 N 
ATOM     11  H   UNL     1       4.668   1.689   0.120  0.00  0.00    +0.144 HD
ATOM     12  H   UNL     1       3.693   3.051  -0.018  0.00  0.00    +0.144 HD
ENDBRANCH   2  10
BRANCH   1  13
ATOM     13  N   UNL     1       1.263   3.260   0.025  0.00  0.00    -0.318 N 
BRANCH  13  15
ATOM     14  C   UNL     1       0.851   5.381   1.178  0.00  0.00    +0.024 C 
ATOM     15  C   UNL     1       0.641   3.866   1.210  0.00  0.00    +0.102 C 
ENDBRANCH  13  15
BRANCH  13  16
ATOM     16  C   UNL     1       0.491   3.563  -1.187  0.00  0.00    +0.160 C 
BRANCH  16  17
ATOM     17  C   UNL     1       1.363   3.364  -2.400  0.00  0.00    +0.066 A 
ATOM     18  C   UNL     1       1.072   2.379  -3.320  0.00  0.00    +0.095 A 
ATOM     19  C   UNL     1       1.891   2.211  -4.437  0.00  0.00    +0.259 A 
ATOM     20  O   UNL     1       1.637   1.340  -5.255  0.00  0.00    -0.267 OA
ATOM     21  N   UNL     1       2.976   3.022  -4.615  0.00  0.00    -0.259 N 
ATOM     22  C   UNL     1       3.871   2.980  -5.657  0.00  0.00    +0.033 A 
ATOM     23  C   UNL     1       4.896   3.830  -5.718  0.00  0.00    +0.070 A 
ATOM     24  S   UNL     1       4.657   4.798  -4.236  0.00  0.00    -0.057 S 
ATOM     25  C   UNL     1       3.191   3.974  -3.654  0.00  0.00    +0.180 A 
ATOM     26  N   UNL     1       2.424   4.141  -2.606  0.00  0.00    -0.226 NA
ATOM     27  C   UNL     1       3.691   1.956  -6.748  0.00  0.00    +0.064 C 
ENDBRANCH  16  17
ENDBRANCH  13  16
ENDBRANCH   1  13
BRANCH   3  28
ATOM     28  C   UNL     1       4.120  -0.669   0.425  0.00  0.00    +0.163 C 
BRANCH  28  29
ATOM     29  C   UNL     1       4.537  -1.050  -0.973  0.00  0.00    -0.028 A 
ATOM     30  C   UNL     1       4.233  -2.306  -1.466  0.00  0.00    +0.005 A 
ATOM     31  C   UNL     1       4.611  -2.654  -2.749  0.00  0.00    +0.000 A 
ATOM     32  C   UNL     1       5.301  -1.750  -3.535  0.00  0.00    +0.000 A 
ATOM     33  C   UNL     1       5.609  -0.497  -3.040  0.00  0.00    +0.000 A 
ATOM     34  C   UNL     1       5.227  -0.147  -1.759  0.00  0.00    +0.005 A 
ENDBRANCH  28  29
ENDBRANCH   3  28
TORSDOF 7
