REMARK  Name = ZINC12378182
REMARK  7 active torsions:
REMARK  status: ('A' for Active; 'I' for Inactive)
REMARK    1  A    between atoms: C_1  and  C_2
REMARK    2  A    between atoms: C_2  and  C_26
REMARK    3  A    between atoms: C_5  and  C_23
REMARK    4  A    between atoms: C_6  and  N_12
REMARK    5  A    between atoms: C_9  and  C_10
REMARK    6  A    between atoms: C_9  and  C_11
REMARK    7  A    between atoms: C_13  and  C_15
REMARK                            x       y       z     vdW  Elec       q    Type
REMARK                         _______ _______ _______ _____ _____    ______ ____
ROOT
ATOM      1  C   UNL     1       6.656   9.079   2.237  0.00  0.00    -0.010 C 
ATOM      2  C   UNL     1       6.876   9.427   0.762  0.00  0.00    -0.069 C 
ATOM      3  C   UNL     1       5.538   9.340   0.017  0.00  0.00    +0.024 C 
ATOM      4  C   UNL     1       5.120   7.876  -0.000  0.00  0.00    -0.026 A 
ATOM      5  C   UNL     1       3.760   7.380   0.005  0.00  0.00    +0.068 A 
ATOM      6  C   UNL     1       3.583   6.001   0.000  0.00  0.00    +0.085 A 
ATOM      7  S   UNL     1       5.206   5.393  -0.019  0.00  0.00    -0.079 S 
ATOM      8  C   UNL     1       6.086   6.928  -0.017  0.00  0.00    -0.016 A 
ATOM      9  C   UNL     1       7.561   7.163  -0.038  0.00  0.00    -0.041 C 
ATOM     10  C   UNL     1       8.229   6.296   1.039  0.00  0.00    -0.005 C 
ATOM     11  C   UNL     1       8.104   6.718  -1.410  0.00  0.00    -0.005 C 
ATOM     12  C   UNL     1       7.362  10.886   0.688  0.00  0.00    -0.010 C 
ATOM     13  N   UNL     1       7.943   8.591   0.153  0.00  0.00    +0.389 N 
ATOM     14  H   UNL     1       8.767   8.626   0.764  0.00  0.00    -0.084 HD
ATOM     15  H   UNL     1       8.180   8.988  -0.764  0.00  0.00    -0.084 HD
ENDROOT
BRANCH   5  16
ATOM     16  C   UNL     1       2.606   8.285   0.014  0.00  0.00    +0.244 C 
ATOM     17  O   UNL     1       2.132   8.656   1.071  0.00  0.00    -0.270 OA
ATOM     18  N   UNL     1       2.071   8.706  -1.149  0.00  0.00    -0.325 N 
ATOM     19  H   UNL     1       2.449   8.410  -1.992  0.00  0.00    +0.145 HD
ATOM     20  H   UNL     1       1.308   9.304  -1.144  0.00  0.00    +0.145 HD
ENDBRANCH   5  16
BRANCH   6  21
ATOM     21  N   UNL     1       2.396   5.287   0.007  0.00  0.00    -0.275 N 
ATOM     22  C   UNL     1       2.420   3.939   0.000  0.00  0.00    +0.250 C 
ATOM     23  O   UNL     1       3.483   3.350  -0.012  0.00  0.00    -0.270 OA
ATOM     24  H   UNL     1       1.548   5.757   0.017  0.00  0.00    +0.156 HD
BRANCH  22  25
ATOM     25  C   UNL     1       1.154   3.178   0.008  0.00  0.00    +0.057 A 
ATOM     26  C   UNL     1      -0.069   3.852   0.022  0.00  0.00    +0.034 A 
ATOM     27  C   UNL     1      -1.248   3.134   0.030  0.00  0.00    +0.042 A 
ATOM     28  C   UNL     1      -1.220   1.749   0.017  0.00  0.00    +0.021 A 
ATOM     29  C   UNL     1      -0.013   1.076   0.008  0.00  0.00    +0.022 A 
ATOM     30  C   UNL     1       1.175   1.781   0.000  0.00  0.00    +0.053 A 
ATOM     31 CL   UNL     1       2.690   0.934  -0.018  0.00  0.00    -0.083 Cl
ATOM     32 CL   UNL     1      -2.770   3.969   0.048  0.00  0.00    -0.084 Cl
ENDBRANCH  22  25
ENDBRANCH   6  21
TORSDOF 3
