REMARK  Name = ZINC04186889
REMARK  6 active torsions:
REMARK  status: ('A' for Active; 'I' for Inactive)
REMARK    1  A    between atoms: C_1  and  C_2
REMARK    2  A    between atoms: C_7  and  C_17
REMARK    3  A    between atoms: C_21  and  O_23
REMARK    4  A    between atoms: C_26  and  C_28
REMARK    5  A    between atoms: C_28  and  O_30
REMARK    6  A    between atoms: O_30  and  C_31
REMARK                            x       y       z     vdW  Elec       q    Type
REMARK                         _______ _______ _______ _____ _____    ______ ____
ROOT
ATOM      1  C   UNL     1       2.834   5.604   0.011  0.00  0.00    +0.009 C 
ATOM      2  C   UNL     1       2.778   4.075   0.055  0.00  0.00    +0.013 C 
ATOM      3  C   UNL     1       3.391   3.571   1.365  0.00  0.00    +0.055 C 
ATOM      4  C   UNL     1       2.625   4.136   2.550  0.00  0.00    +0.017 C 
ATOM      5  C   UNL     1       1.307   4.377   2.455  0.00  0.00    +0.037 C 
ATOM      6  C   UNL     1       0.428   4.940   3.547  0.00  0.00    +0.136 C 
ATOM      7  N   UNL     1       1.050   4.980   4.852  0.00  0.00    -0.331 N 
ATOM      8  C   UNL     1       2.160   5.786   5.092  0.00  0.00    +0.049 A 
ATOM      9  C   UNL     1       2.087   6.881   5.940  0.00  0.00    +0.025 A 
ATOM     10  C   UNL     1       3.190   7.702   6.089  0.00  0.00    +0.002 A 
ATOM     11  C   UNL     1       4.360   7.437   5.400  0.00  0.00    +0.002 A 
ATOM     12  C   UNL     1       4.445   6.331   4.570  0.00  0.00    +0.025 A 
ATOM     13  C   UNL     1       3.348   5.499   4.436  0.00  0.00    +0.052 A 
ATOM     14  N   UNL     1       3.378   4.345   3.660  0.00  0.00    -0.316 N 
ATOM     15  C   UNL     1       0.620   4.119   1.245  0.00  0.00    +0.177 C 
ATOM     16  O   UNL     1      -0.578   4.319   1.197  0.00  0.00    -0.291 OA
ATOM     17  C   UNL     1       1.318   3.608   0.020  0.00  0.00    +0.171 C 
ATOM     18  H   UNL     1       0.689   4.438   5.571  0.00  0.00    +0.147 HD
ATOM     19  H   UNL     1       3.982   3.636   3.933  0.00  0.00    +0.152 HD
ENDROOT
BRANCH   6  20
ATOM     20  C   UNL     1       0.028   6.341   3.164  0.00  0.00    -0.019 A 
ATOM     21  C   UNL     1       0.991   7.325   3.037  0.00  0.00    +0.006 A 
ATOM     22  C   UNL     1       0.627   8.611   2.685  0.00  0.00    +0.004 A 
ATOM     23  C   UNL     1      -0.701   8.917   2.459  0.00  0.00    +0.045 A 
ATOM     24  C   UNL     1      -1.670   7.932   2.586  0.00  0.00    +0.117 A 
ATOM     25  C   UNL     1      -1.301   6.641   2.935  0.00  0.00    +0.051 A 
BRANCH  24  26
ATOM     26  O   UNL     1      -2.977   8.230   2.364  0.00  0.00    -0.507 OA
ATOM     27  H   UNL     1      -3.257   8.110   1.447  0.00  0.00    +0.292 HD
ENDBRANCH  24  26
ENDBRANCH   6  20
BRANCH  17  28
ATOM     28  C   UNL     1       1.269   2.102   0.002  0.00  0.00    +0.318 C 
ATOM     29  O   UNL     1       2.295   1.464   0.007  0.00  0.00    -0.250 OA
BRANCH  28  30
ATOM     30  O   UNL     1       0.086   1.469  -0.022  0.00  0.00    -0.467 OA
ATOM     31  C   UNL     1       0.115   0.017  -0.039  0.00  0.00    +0.280 C 
ENDBRANCH  28  30
ENDBRANCH  17  28
TORSDOF 4
