REMARK  Name = ZINC12408573
REMARK  6 active torsions:
REMARK  status: ('A' for Active; 'I' for Inactive)
REMARK    1  A    between atoms: C_1  and  O_2
REMARK    2  A    between atoms: O_2  and  C_3
REMARK    3  A    between atoms: C_6  and  C_11
REMARK    4  A    between atoms: C_7  and  O_9
REMARK    5  A    between atoms: O_9  and  C_10
REMARK    6  A    between atoms: C_16  and  C_21
REMARK                            x       y       z     vdW  Elec       q    Type
REMARK                         _______ _______ _______ _____ _____    ______ ____
ROOT
ATOM      1  C   UNL     1       1.234  -2.566  -1.308  0.00  0.00    +0.141 C 
ATOM      2  C   UNL     1      -0.247  -2.769  -1.557  0.00  0.00    +0.037 C 
ATOM      3  C   UNL     1      -1.305  -2.113  -1.061  0.00  0.00    +0.019 C 
ATOM      4  C   UNL     1      -2.715  -2.445  -1.525  0.00  0.00    +0.059 C 
ATOM      5  C   UNL     1      -2.832  -3.945  -1.788  0.00  0.00    +0.032 C 
ATOM      6  C   UNL     1      -1.829  -4.290  -2.896  0.00  0.00    +0.088 C 
ATOM      7  C   UNL     1      -0.469  -3.832  -2.477  0.00  0.00    +0.163 C 
ATOM      8  O   UNL     1       0.499  -4.396  -2.949  0.00  0.00    -0.292 OA
ATOM      9  N   UNL     1      -1.253  -1.112  -0.137  0.00  0.00    -0.297 N 
ATOM     10  C   UNL     1      -0.319  -0.086  -0.196  0.00  0.00    +0.208 A 
ATOM     11  C   UNL     1       1.103  -0.397  -0.162  0.00  0.00    +0.205 A 
ATOM     12  N   UNL     1       1.772   0.713  -0.157  0.00  0.00    -0.032 NA
ATOM     13  O   UNL     1       0.830   1.775  -0.228  0.00  0.00    -0.239 OA
ATOM     14  N   UNL     1      -0.468   1.197  -0.258  0.00  0.00    -0.032 NA
ATOM     15  N   UNL     1       1.564  -1.713  -0.180  0.00  0.00    -0.312 N 
ATOM     16  H   UNL     1      -1.895  -1.116   0.591  0.00  0.00    +0.153 HD
ATOM     17  H   UNL     1       2.099  -2.055   0.553  0.00  0.00    +0.149 HD
ENDROOT
BRANCH   1  21
ATOM     18  C   UNL     1       2.962  -0.850  -4.824  0.00  0.00    +0.124 A 
ATOM     19  C   UNL     1       1.588  -0.816  -4.634  0.00  0.00    +0.046 A 
ATOM     20  C   UNL     1       1.032  -1.371  -3.498  0.00  0.00    +0.013 A 
ATOM     21  C   UNL     1       1.843  -1.962  -2.547  0.00  0.00    +0.019 A 
ATOM     22  C   UNL     1       3.218  -1.994  -2.730  0.00  0.00    +0.129 A 
ATOM     23  C   UNL     1       3.778  -1.442  -3.873  0.00  0.00    +0.091 A 
BRANCH  18  25
ATOM     24  C   UNL     1       2.607   0.288  -6.881  0.00  0.00    +0.277 C 
ATOM     25  O   UNL     1       3.508  -0.304  -5.943  0.00  0.00    -0.495 OA
ENDBRANCH  18  25
BRANCH  22  26
ATOM     26  O   UNL     1       4.016  -2.570  -1.793  0.00  0.00    -0.495 OA
ATOM     27  C   UNL     1       5.422  -2.567  -2.047  0.00  0.00    +0.277 C 
ENDBRANCH  22  26
ENDBRANCH   1  21
BRANCH   5  28
ATOM     28  C   UNL     1      -4.230  -4.280  -2.238  0.00  0.00    -0.044 A 
ATOM     29  C   UNL     1      -4.746  -3.701  -3.383  0.00  0.00    +0.004 A 
ATOM     30  C   UNL     1      -6.027  -4.012  -3.798  0.00  0.00    +0.000 A 
ATOM     31  C   UNL     1      -6.796  -4.895  -3.064  0.00  0.00    +0.000 A 
ATOM     32  C   UNL     1      -6.283  -5.470  -1.916  0.00  0.00    +0.000 A 
ATOM     33  C   UNL     1      -5.000  -5.162  -1.504  0.00  0.00    +0.004 A 
ENDBRANCH   5  28
TORSDOF 4
