REMARK  Name = ZINC39851825
REMARK  8 active torsions:
REMARK  status: ('A' for Active; 'I' for Inactive)
REMARK    1  A    between atoms: C_1  and  C_2
REMARK    2  A    between atoms: C_6  and  C_7
REMARK    3  A    between atoms: N_9  and  N_10
REMARK    4  A    between atoms: C_11  and  C_13
REMARK    5  A    between atoms: C_16  and  O_19
REMARK    6  A    between atoms: O_19  and  C_20
REMARK    7  A    between atoms: C_22  and  C_26
REMARK    8  A    between atoms: C_22  and  C_27
REMARK                            x       y       z     vdW  Elec       q    Type
REMARK                         _______ _______ _______ _____ _____    ______ ____
ROOT
ATOM      1  C   UNL     1       0.031  -0.394   2.491  0.00  0.00    +0.296 C 
ATOM      2  O   UNL     1       0.016   0.792   2.760  0.00  0.00    -0.265 OA
ATOM      3  N   UNL     1       0.053  -1.309   3.480  0.00  0.00    -0.228 N 
ATOM      4  H   UNL     1       0.065  -2.255   3.266  0.00  0.00    +0.173 HD
ENDROOT
BRANCH   1  10
ATOM      5  C   UNL     1      -0.018   1.503   0.010  0.00  0.00    +0.048 C 
ATOM      6  C   UNL     1       0.002  -0.004   0.002  0.00  0.00    +0.011 A 
ATOM      7  C   UNL     1       0.009  -0.840  -1.125  0.00  0.00    +0.062 A 
ATOM      8  C   UNL     1       0.027  -2.151  -0.662  0.00  0.00    +0.117 A 
ATOM      9  O   UNL     1       0.036  -2.113   0.663  0.00  0.00    -0.454 OA
ATOM     10  C   UNL     1       0.024  -0.829   1.089  0.00  0.00    +0.194 A 
ATOM     11  C   UNL     1       0.032  -3.344  -1.585  0.00  0.00    +0.082 C 
ATOM     12  C   UNL     1      -0.489  -2.920  -2.961  0.00  0.00    -0.021 C 
ATOM     13  C   UNL     1       0.284  -1.704  -3.482  0.00  0.00    +0.086 C 
ATOM     14  C   UNL     1       0.001  -0.526  -2.562  0.00  0.00    +0.167 C 
ATOM     15  O   UNL     1      -0.215   0.592  -2.982  0.00  0.00    -0.292 OA
ATOM     16  C   UNL     1      -1.973  -2.564  -2.850  0.00  0.00    +0.012 C 
ATOM     17  C   UNL     1      -0.322  -4.082  -3.942  0.00  0.00    +0.012 C 
ENDBRANCH   1  10
BRANCH   3  18
ATOM     18  N   UNL     1       0.059  -0.894   4.818  0.00  0.00    -0.230 N 
ATOM     19  C   UNL     1       0.082  -1.809   5.808  0.00  0.00    +0.260 C 
ATOM     20  O   UNL     1       0.097  -2.994   5.539  0.00  0.00    -0.269 OA
ATOM     21  H   UNL     1       0.048   0.052   5.033  0.00  0.00    +0.173 HD
BRANCH  19  22
ATOM     22  C   UNL     1       0.088  -1.371   7.217  0.00  0.00    +0.038 A 
ATOM     23  C   UNL     1       0.066  -0.009   7.528  0.00  0.00    +0.016 A 
ATOM     24  C   UNL     1       0.071   0.395   8.845  0.00  0.00    +0.046 A 
ATOM     25  C   UNL     1       0.100  -0.550   9.864  0.00  0.00    +0.120 A 
ATOM     26  C   UNL     1       0.123  -1.906   9.558  0.00  0.00    +0.046 A 
ATOM     27  C   UNL     1       0.112  -2.318   8.245  0.00  0.00    +0.016 A 
BRANCH  25  28
ATOM     28  O   UNL     1       0.106  -0.148  11.160  0.00  0.00    -0.495 OA
ATOM     29  C   UNL     1       0.136  -1.172  12.156  0.00  0.00    +0.277 C 
ENDBRANCH  25  28
ENDBRANCH  19  22
ENDBRANCH   3  18
TORSDOF 4
