REMARK  Name = ZINC22085208
REMARK  9 active torsions:
REMARK  status: ('A' for Active; 'I' for Inactive)
REMARK    1  A    between atoms: C_1  and  C_2
REMARK    2  A    between atoms: C_2  and  C_4
REMARK    3  A    between atoms: C_2  and  S_18
REMARK    4  A    between atoms: N_6  and  C_7
REMARK    5  A    between atoms: S_18  and  C_19
REMARK    6  A    between atoms: C_22  and  C_25
REMARK    7  A    between atoms: N_23  and  N_24
REMARK    8  A    between atoms: C_25  and  O_26
REMARK    9  A    between atoms: O_26  and  C_27
REMARK                            x       y       z     vdW  Elec       q    Type
REMARK                         _______ _______ _______ _____ _____    ______ ____
ROOT
ATOM      1  S   UNL     1       6.555   3.502  -0.842  0.00  0.00    -0.072 S 
ENDROOT
BRANCH   1   2
ATOM      2  C   UNL     1       7.508   4.149  -2.175  0.00  0.00    +0.209 A 
ATOM      3  N   UNL     1       7.853   3.512  -3.270  0.00  0.00    -0.121 NA
ATOM      4  N   UNL     1       8.543   4.287  -4.028  0.00  0.00    -0.128 NA
ATOM      5  C   UNL     1       8.686   5.453  -3.463  0.00  0.00    +0.189 A 
ATOM      6  N   UNL     1       8.032   5.407  -2.263  0.00  0.00    -0.225 N 
BRANCH   6   7
ATOM      7  N   UNL     1       7.925   6.411  -1.343  0.00  0.00    -0.295 N 
ATOM      8  H   UNL     1       8.397   7.386  -1.536  0.00  0.00    +0.163 HD
ATOM      9  H   UNL     1       7.367   6.245  -0.410  0.00  0.00    +0.163 HD
ENDBRANCH   6   7
BRANCH   5  10
ATOM     10  C   UNL     1       9.434   6.633  -4.028  0.00  0.00    +0.306 C 
BRANCH  10  11
ATOM     11  O   UNL     1      10.799   6.577  -3.608  0.00  0.00    -0.481 OA
BRANCH  11  12
ATOM     12  C   UNL     1      11.617   7.576  -4.034  0.00  0.00    +0.156 A 
ATOM     13  C   UNL     1      11.118   8.585  -4.844  0.00  0.00    +0.048 A 
ATOM     14  C   UNL     1      11.950   9.601  -5.273  0.00  0.00    +0.004 A 
ATOM     15  C   UNL     1      13.283   9.609  -4.903  0.00  0.00    +0.003 A 
ATOM     16  C   UNL     1      13.785   8.603  -4.099  0.00  0.00    +0.042 A 
ATOM     17  C   UNL     1      12.956   7.585  -3.663  0.00  0.00    +0.165 A 
ATOM     18  F   UNL     1      13.447   6.601  -2.879  0.00  0.00    -0.202 F 
ENDBRANCH  11  12
ENDBRANCH  10  11
ENDBRANCH   5  10
ENDBRANCH   1   2
BRANCH   1  20
ATOM     19  C   UNL     1       7.572   1.069  -1.558  0.00  0.00    +0.029 C 
ATOM     20  C   UNL     1       6.247   1.829  -1.459  0.00  0.00    +0.137 C 
BRANCH  20  21
ATOM     21  C   UNL     1       5.323   1.106  -0.513  0.00  0.00    +0.227 C 
ATOM     22  O   UNL     1       5.200   1.496   0.629  0.00  0.00    -0.275 OA
ATOM     23  N   UNL     1       4.635   0.028  -0.935  0.00  0.00    -0.308 N 
ATOM     24  H   UNL     1       4.747  -0.326  -1.971  0.00  0.00    +0.149 HD
BRANCH  23  25
ATOM     25  C   UNL     1       3.737  -0.675  -0.015  0.00  0.00    +0.103 C 
ATOM     26  C   UNL     1       3.600  -2.130  -0.457  0.00  0.00    +0.027 C 
ATOM     27  C   UNL     1       2.499  -2.790   0.382  0.00  0.00    +0.007 C 
ATOM     28  C   UNL     1       1.155  -2.199  -0.036  0.00  0.00    +0.035 C 
ATOM     29  C   UNL     1       1.208  -0.693  -0.013  0.00  0.00    -0.042 A 
ATOM     30  C   UNL     1       2.393   0.007  -0.015  0.00  0.00    -0.024 A 
ATOM     31  C   UNL     1       2.372   1.395  -0.010  0.00  0.00    +0.006 A 
ATOM     32  C   UNL     1       1.174   2.078   0.002  0.00  0.00    +0.000 A 
ATOM     33  C   UNL     1      -0.017   1.376   0.010  0.00  0.00    +0.000 A 
ATOM     34  C   UNL     1       0.002  -0.004   0.002  0.00  0.00    +0.004 A 
ENDBRANCH  23  25
ENDBRANCH  20  21
ENDBRANCH   1  20
TORSDOF 8
