REMARK  Name = ZINC05929885
REMARK  4 active torsions:
REMARK  status: ('A' for Active; 'I' for Inactive)
REMARK    1  A    between atoms: C_1  and  C_2
REMARK    2  A    between atoms: C_5  and  S_8
REMARK    3  A    between atoms: S_8  and  C_11
REMARK    4  A    between atoms: N_20  and  O_21
REMARK                            x       y       z     vdW  Elec       q    Type
REMARK                         _______ _______ _______ _____ _____    ______ ____
ROOT
ATOM      1  C   UNL     1       1.822  -4.974  -0.035  0.00  0.00    +0.183 C 
ATOM      2  C   UNL     1       1.962  -6.495  -0.166  0.00  0.00    +0.033 C 
ATOM      3  C   UNL     1       3.406  -6.806  -0.586  0.00  0.00    +0.002 C 
ATOM      4  C   UNL     1       4.346  -6.555   0.595  0.00  0.00    +0.000 C 
ATOM      5  C   UNL     1       4.608  -5.063   0.750  0.00  0.00    +0.000 C 
ATOM      6  C   UNL     1       4.884  -4.443  -0.626  0.00  0.00    +0.006 C 
ATOM      7  C   UNL     1       3.740  -3.466  -0.954  0.00  0.00    +0.056 C 
ATOM      8  C   UNL     1       2.499  -4.298  -1.194  0.00  0.00    +0.082 C 
ATOM      9  N   UNL     1       2.027  -4.425  -2.376  0.00  0.00    -0.095 NA
ENDROOT
BRANCH   1  10
ATOM     10  S   UNL     1       0.063  -4.530  -0.023  0.00  0.00    +0.005 S 
ATOM     11  O   UNL     1      -0.528  -4.907   1.213  0.00  0.00    -0.169 OA
ATOM     12  O   UNL     1      -0.542  -4.894  -1.256  0.00  0.00    -0.169 OA
BRANCH  10  17
ATOM     13  C   UNL     1      -0.018   1.503   0.010  0.00  0.00    +0.044 C 
ATOM     14  C   UNL     1       0.002  -0.004   0.002  0.00  0.00    -0.050 A 
ATOM     15  C   UNL     1       0.006  -0.689  -1.199  0.00  0.00    +0.005 A 
ATOM     16  C   UNL     1       0.025  -2.071  -1.206  0.00  0.00    +0.027 A 
ATOM     17  C   UNL     1       0.040  -2.768  -0.013  0.00  0.00    +0.089 A 
ATOM     18  C   UNL     1       0.037  -2.084   1.188  0.00  0.00    +0.027 A 
ATOM     19  C   UNL     1       0.023  -0.702   1.195  0.00  0.00    +0.005 A 
ENDBRANCH  10  17
ENDBRANCH   1  10
BRANCH   9  20
ATOM     20  O   UNL     1       2.667  -3.786  -3.466  0.00  0.00    -0.409 OA
ATOM     21  H   UNL     1       2.238  -3.940  -4.319  0.00  0.00    +0.328 HD
ENDBRANCH   9  20
TORSDOF 3
