REMARK  Name = ZINC32825260
REMARK  13 active torsions:
REMARK  status: ('A' for Active; 'I' for Inactive)
REMARK    1  A    between atoms: C_1  and  C_2
REMARK    2  A    between atoms: C_2  and  C_3
REMARK    3  A    between atoms: C_2  and  C_4
REMARK    4  A    between atoms: C_4  and  N_5
REMARK    5  A    between atoms: C_6  and  N_31
REMARK    6  A    between atoms: C_7  and  N_14
REMARK    7  A    between atoms: N_14  and  C_15
REMARK    8  A    between atoms: N_14  and  C_27
REMARK    9  A    between atoms: C_15  and  C_16
REMARK   10  A    between atoms: C_24  and  C_25
REMARK   11  A    between atoms: C_27  and  C_28
REMARK   12  A    between atoms: C_28  and  C_29
REMARK   13  A    between atoms: C_28  and  C_30
REMARK                            x       y       z     vdW  Elec       q    Type
REMARK                         _______ _______ _______ _____ _____    ______ ____
ROOT
ATOM      1  N   UNL     1       2.551   7.106  -1.347  0.00  0.00    -0.318 N 
ENDROOT
BRANCH   1   4
ATOM      2  N   UNL     1       5.464   9.301  -1.756  0.00  0.00    -0.280 N 
ATOM      3  C   UNL     1       4.681   8.169  -1.760  0.00  0.00    +0.127 A 
ATOM      4  C   UNL     1       3.377   8.254  -1.352  0.00  0.00    +0.134 A 
ATOM      5  C   UNL     1       2.870   9.500  -0.943  0.00  0.00    +0.277 A 
ATOM      6  O   UNL     1       1.710   9.601  -0.580  0.00  0.00    -0.266 OA
ATOM      7  N   UNL     1       3.675  10.581  -0.949  0.00  0.00    -0.273 N 
ATOM      8  H   UNL     1       3.288  11.557  -0.621  0.00  0.00    +0.173 HD
ATOM      9  C   UNL     1       4.954  10.480  -1.354  0.00  0.00    +0.331 A 
ATOM     10  O   UNL     1       5.660  11.470  -1.357  0.00  0.00    -0.246 OA
BRANCH   3  11
ATOM     11  N   UNL     1       5.204   6.964  -2.171  0.00  0.00    -0.343 N 
ATOM     12  H   UNL     1       4.573   6.063  -2.172  0.00  0.00    +0.144 HD
ATOM     13  H   UNL     1       6.252   6.903  -2.498  0.00  0.00    +0.144 HD
ENDBRANCH   3  11
BRANCH   2  14
ATOM     14  C   UNL     1       6.861   9.222  -2.191  0.00  0.00    +0.131 C 
BRANCH  14  16
ATOM     15  C   UNL     1       6.506  10.918  -3.991  0.00  0.00    +0.009 C 
ATOM     16  C   UNL     1       6.941   9.481  -3.696  0.00  0.00    +0.003 C 
ATOM     17  C   UNL     1       8.380   9.276  -4.173  0.00  0.00    +0.009 C 
ENDBRANCH  14  16
ENDBRANCH   2  14
ENDBRANCH   1   4
BRANCH   1  18
ATOM     18  C   UNL     1       2.132   6.765   0.019  0.00  0.00    +0.143 C 
BRANCH  18  19
ATOM     19  C   UNL     1       1.466   5.413   0.018  0.00  0.00    +0.006 A 
ATOM     20  C   UNL     1       0.139   5.183   0.029  0.00  0.00    +0.097 A 
ATOM     21  N   UNL     1      -0.092   3.834   0.024  0.00  0.00    -0.321 N 
ATOM     22  C   UNL     1      -1.256   3.116   0.031  0.00  0.00    +0.091 A 
ATOM     23  C   UNL     1      -1.234   1.766   0.018  0.00  0.00    +0.018 A 
ATOM     24  C   UNL     1      -0.013   1.076   0.008  0.00  0.00    +0.003 A 
ATOM     25  C   UNL     1       1.155   1.779   0.001  0.00  0.00    +0.027 A 
ATOM     26  C   UNL     1       1.114   3.181   0.009  0.00  0.00    +0.064 A 
ATOM     27  C   UNL     1       2.123   4.159   0.005  0.00  0.00    +0.082 A 
BRANCH  27  28
ATOM     28  C   UNL     1       3.537   3.932  -0.011  0.00  0.00    +0.102 C 
ATOM     29  N   UNL     1       4.658   3.752  -0.022  0.00  0.00    -0.191 NA
ENDBRANCH  27  28
ENDBRANCH  18  19
ENDBRANCH   1  18
BRANCH   1  30
ATOM     30  C   UNL     1       1.388   7.291  -2.224  0.00  0.00    +0.108 C 
BRANCH  30  31
ATOM     31  C   UNL     1       1.856   7.396  -3.677  0.00  0.00    +0.000 C 
ATOM     32  C   UNL     1       2.481   6.068  -4.108  0.00  0.00    +0.009 C 
ATOM     33  C   UNL     1       0.659   7.713  -4.576  0.00  0.00    +0.009 C 
ENDBRANCH  30  31
ENDBRANCH   1  30
TORSDOF 9
