REMARK  Name = ZINC09036217
REMARK  9 active torsions:
REMARK  status: ('A' for Active; 'I' for Inactive)
REMARK    1  A    between atoms: C_1  and  C_2
REMARK    2  A    between atoms: C_5  and  S_8
REMARK    3  A    between atoms: S_8  and  N_11
REMARK    4  A    between atoms: C_15  and  C_17
REMARK    5  A    between atoms: N_19  and  C_20
REMARK    6  A    between atoms: C_20  and  C_21
REMARK    7  A    between atoms: C_30  and  C_36
REMARK    8  A    between atoms: C_36  and  C_37
REMARK    9  A    between atoms: C_36  and  C_38
REMARK                            x       y       z     vdW  Elec       q    Type
REMARK                         _______ _______ _______ _____ _____    ______ ____
ROOT
ATOM      1  C   UNL     1      -2.199   3.874  -1.994  0.00  0.00    +0.240 C 
ATOM      2  O   UNL     1      -1.638   4.148  -3.033  0.00  0.00    -0.273 OA
ATOM      3  N   UNL     1      -3.259   4.600  -1.587  0.00  0.00    -0.247 N 
ATOM      4  C   UNL     1      -3.772   5.593  -2.405  0.00  0.00    +0.168 A 
ATOM      5  N   UNL     1      -3.365   5.974  -3.593  0.00  0.00    -0.224 NA
ATOM      6  C   UNL     1      -3.968   6.965  -4.284  0.00  0.00    +0.084 A 
ATOM      7  C   UNL     1      -3.635   7.465  -5.565  0.00  0.00    -0.018 A 
ATOM      8  C   UNL     1      -4.353   8.488  -6.126  0.00  0.00    +0.006 A 
ATOM      9  C   UNL     1      -5.427   9.067  -5.465  0.00  0.00    +0.001 A 
ATOM     10  C   UNL     1      -5.782   8.603  -4.212  0.00  0.00    +0.017 A 
ATOM     11  C   UNL     1      -5.067   7.579  -3.642  0.00  0.00    +0.041 A 
ATOM     12  S   UNL     1      -5.154   6.688  -2.107  0.00  0.00    -0.052 S 
ENDROOT
BRANCH   1  17
ATOM     13  N   UNL     1      -1.279   1.606  -2.019  0.00  0.00    -0.165 NA
ATOM     14  C   UNL     1      -0.100   0.969  -1.414  0.00  0.00    +0.110 C 
ATOM     15  C   UNL     1       0.232   1.746  -0.123  0.00  0.00    +0.019 C 
ATOM     16  C   UNL     1      -0.439   3.126  -0.368  0.00  0.00    +0.031 C 
ATOM     17  C   UNL     1      -1.710   2.720  -1.156  0.00  0.00    +0.166 C 
BRANCH  13  18
ATOM     18  S   UNL     1      -2.002   1.147  -3.437  0.00  0.00    +0.062 S 
ATOM     19  O   UNL     1      -2.824   2.233  -3.843  0.00  0.00    -0.153 OA
ATOM     20  O   UNL     1      -0.974   0.619  -4.265  0.00  0.00    -0.153 OA
BRANCH  18  25
ATOM     21  C   UNL     1      -5.707  -3.437  -2.150  0.00  0.00    +0.044 C 
ATOM     22  C   UNL     1      -4.782  -2.292  -2.471  0.00  0.00    -0.050 A 
ATOM     23  C   UNL     1      -5.246  -0.991  -2.416  0.00  0.00    +0.005 A 
ATOM     24  C   UNL     1      -4.397   0.059  -2.711  0.00  0.00    +0.029 A 
ATOM     25  C   UNL     1      -3.084  -0.191  -3.061  0.00  0.00    +0.106 A 
ATOM     26  C   UNL     1      -2.621  -1.492  -3.122  0.00  0.00    +0.029 A 
ATOM     27  C   UNL     1      -3.468  -2.542  -2.822  0.00  0.00    +0.005 A 
ENDBRANCH  18  25
ENDBRANCH  13  18
ENDBRANCH   1  17
BRANCH   7  28
ATOM     28  C   UNL     1      -2.476   6.866  -6.320  0.00  0.00    +0.015 C 
ATOM     29  C   UNL     1      -2.975   6.290  -7.646  0.00  0.00    +0.012 C 
ATOM     30  C   UNL     1      -1.432   7.950  -6.595  0.00  0.00    +0.012 C 
ENDBRANCH   7  28
BRANCH   3  31
ATOM     31  C   UNL     1      -3.868   4.339  -0.280  0.00  0.00    +0.147 C 
BRANCH  31  32
ATOM     32  C   UNL     1      -3.108   5.111   0.800  0.00  0.00    +0.136 C 
ATOM     33  C   UNL     1      -3.757   4.881   2.183  0.00  0.00    +0.035 C 
ATOM     34  C   UNL     1      -3.633   6.251   2.887  0.00  0.00    +0.031 C 
ATOM     35  C   UNL     1      -2.924   7.146   1.847  0.00  0.00    +0.160 C 
ATOM     36  O   UNL     1      -3.216   6.533   0.573  0.00  0.00    -0.375 OA
ENDBRANCH  31  32
ENDBRANCH   3  31
TORSDOF 6
