REMARK  Name = ZINC22844134
REMARK  6 active torsions:
REMARK  status: ('A' for Active; 'I' for Inactive)
REMARK    1  A    between atoms: C_6  and  C_11
REMARK    2  A    between atoms: N_16  and  C_17
REMARK    3  A    between atoms: C_17  and  N_19
REMARK    4  A    between atoms: C_20  and  C_22
REMARK    5  A    between atoms: C_24  and  N_34
REMARK    6  A    between atoms: C_27  and  N_28
REMARK                            x       y       z     vdW  Elec       q    Type
REMARK                         _______ _______ _______ _____ _____    ______ ____
ROOT
ATOM      1  C   UNL     1       7.784  -6.301  -0.212  0.00  0.00    +0.163 C 
ATOM      2  S   UNL     1       9.041  -5.138  -0.210  0.00  0.00    -0.016 S 
ENDROOT
BRANCH   1   8
ATOM      3  C   UNL     1       4.910  -2.701  -0.077  0.00  0.00    +0.055 A 
ATOM      4  C   UNL     1       6.195  -1.986  -0.079  0.00  0.00    +0.074 A 
ATOM      5  S   UNL     1       7.322  -3.233  -0.090  0.00  0.00    -0.060 S 
ATOM      6  C   UNL     1       6.208  -4.624  -0.091  0.00  0.00    +0.162 A 
ATOM      7  N   UNL     1       4.969  -4.038  -0.078  0.00  0.00    -0.335 N 
ATOM      8  N   UNL     1       6.505  -5.908  -0.099  0.00  0.00    -0.169 NA
ATOM      9  H   UNL     1       4.161  -4.574  -0.072  0.00  0.00    +0.168 HD
BRANCH   3  15
ATOM     10  C   UNL     1      -0.020   1.371  -0.039  0.00  0.00    +0.001 A 
ATOM     11  C   UNL     1       1.164   2.102  -0.047  0.00  0.00    +0.001 A 
ATOM     12  C   UNL     1       2.374   1.474  -0.056  0.00  0.00    +0.008 A 
ATOM     13  C   UNL     1       2.431   0.065  -0.058  0.00  0.00    -0.017 A 
ATOM     14  C   UNL     1       3.658  -0.605  -0.066  0.00  0.00    +0.018 A 
ATOM     15  C   UNL     1       3.675  -2.011  -0.067  0.00  0.00    -0.001 A 
ATOM     16  C   UNL     1       2.462  -2.738  -0.059  0.00  0.00    +0.010 A 
ATOM     17  C   UNL     1       1.272  -2.096  -0.051  0.00  0.00    +0.009 A 
ATOM     18  C   UNL     1       1.224  -0.683  -0.050  0.00  0.00    -0.018 A 
ATOM     19  C   UNL     1      -0.001  -0.007  -0.040  0.00  0.00    +0.008 A 
ENDBRANCH   3  15
ENDBRANCH   1   8
BRANCH   1  20
ATOM     20  N   UNL     1       8.079  -7.611  -0.328  0.00  0.00    -0.262 N 
ATOM     21  C   UNL     1       9.363  -8.006  -0.441  0.00  0.00    +0.251 C 
ATOM     22  O   UNL     1      10.255  -7.180  -0.440  0.00  0.00    -0.270 OA
ATOM     23  H   UNL     1       7.367  -8.270  -0.329  0.00  0.00    +0.157 HD
BRANCH  21  24
ATOM     24  C   UNL     1       9.685  -9.438  -0.568  0.00  0.00    +0.060 A 
ATOM     25  C   UNL     1       8.662 -10.391  -0.576  0.00  0.00    +0.047 A 
ATOM     26  C   UNL     1       8.970 -11.729  -0.695  0.00  0.00    +0.127 A 
ATOM     27  C   UNL     1      10.290 -12.136  -0.806  0.00  0.00    +0.034 A 
ATOM     28  C   UNL     1      11.311 -11.209  -0.799  0.00  0.00    +0.026 A 
ATOM     29  C   UNL     1      11.020  -9.854  -0.686  0.00  0.00    +0.042 A 
BRANCH  29  30
ATOM     30  N   UNL     1      12.046  -8.918  -0.685  0.00  0.00    -0.325 N 
ATOM     31  C   UNL     1      12.692  -8.504   0.570  0.00  0.00    +0.133 C 
ATOM     32  C   UNL     1      14.210  -8.623   0.394  0.00  0.00    +0.178 C 
ATOM     33  O   UNL     1      14.604  -7.917  -0.785  0.00  0.00    -0.377 OA
ATOM     34  C   UNL     1      14.045  -8.438  -1.993  0.00  0.00    +0.178 C 
ATOM     35  C   UNL     1      12.522  -8.315  -1.940  0.00  0.00    +0.133 C 
ENDBRANCH  29  30
BRANCH  26  36
ATOM     36  N   UNL     1       7.885 -12.736  -0.703  0.00  0.00    +0.056 N 
ATOM     37  O   UNL     1       6.630 -12.352  -0.597  0.00  0.00    -0.126 OA
ATOM     38  O   UNL     1       8.175 -14.015  -0.816  0.00  0.00    -0.126 OA
ENDBRANCH  26  36
ENDBRANCH  21  24
ENDBRANCH   1  20
TORSDOF 6
