REMARK  Name = ZINC13298905
REMARK  7 active torsions:
REMARK  status: ('A' for Active; 'I' for Inactive)
REMARK    1  A    between atoms: C_1  and  C_2
REMARK    2  A    between atoms: C_5  and  C_34
REMARK    3  A    between atoms: C_10  and  C_12
REMARK    4  A    between atoms: C_12  and  N_62
REMARK    5  A    between atoms: N_15  and  C_18
REMARK    6  A    between atoms: N_21  and  C_26
REMARK    7  A    between atoms: C_31  and  C_32
REMARK                            x       y       z     vdW  Elec       q    Type
REMARK                         _______ _______ _______ _____ _____    ______ ____
ROOT
ATOM      1  C   UNL     1       6.952   8.219  -0.115  0.00  0.00    -0.059 C 
ATOM      2  C   UNL     1       5.623   7.462  -0.060  0.00  0.00    +0.086 C 
ATOM      3  N   UNL     1       5.887   6.020   0.040  0.00  0.00    -0.331 N 
ATOM      4  C   UNL     1       6.672   5.713   1.244  0.00  0.00    +0.086 C 
ATOM      5  C   UNL     1       8.001   6.470   1.189  0.00  0.00    -0.059 C 
ATOM      6  N   UNL     1       7.721   7.920   1.111  0.00  0.00    +0.387 N 
ATOM      7  H   UNL     1       7.167   8.197   1.929  0.00  0.00    -0.081 HD
ENDROOT
BRANCH   3   8
ATOM      8  C   UNL     1       4.706   5.296   0.020  0.00  0.00    +0.074 A 
ATOM      9  C   UNL     1       3.726   5.506   1.014  0.00  0.00    +0.158 A 
ATOM     10  N   UNL     1       2.611   4.830   0.993  0.00  0.00    -0.170 NA
ATOM     11  N   UNL     1       2.364   3.877  -0.001  0.00  0.00    -0.195 N 
ATOM     12  C   UNL     1       3.272   3.645  -0.969  0.00  0.00    +0.292 A 
ATOM     13  O   UNL     1       3.046   2.816  -1.836  0.00  0.00    -0.264 OA
ATOM     14  C   UNL     1       4.477   4.362  -0.974  0.00  0.00    +0.129 A 
ATOM     15 CL   UNL     1       5.663   4.082  -2.210  0.00  0.00    -0.076 Cl
BRANCH  11  16
ATOM     16  C   UNL     1       1.164   3.166   0.007  0.00  0.00    +0.083 A 
ATOM     17  C   UNL     1       1.176   1.778   0.000  0.00  0.00    +0.029 A 
ATOM     18  C   UNL     1      -0.013   1.076   0.008  0.00  0.00    +0.002 A 
ATOM     19  C   UNL     1      -1.224   1.748   0.017  0.00  0.00    +0.001 A 
ATOM     20  C   UNL     1      -1.255   3.126   0.030  0.00  0.00    +0.017 A 
ATOM     21  C   UNL     1      -0.061   3.850   0.022  0.00  0.00    +0.089 A 
BRANCH  21  22
ATOM     22  C   UNL     1      -0.087   5.324   0.030  0.00  0.00    +0.389 C 
ATOM     23  O   UNL     1       0.954   5.951   0.023  0.00  0.00    -0.241 OA
ATOM     24  O   UNL     1      -1.266   5.977   0.044  0.00  0.00    -0.241 OA
ENDBRANCH  21  22
ENDBRANCH  11  16
ENDBRANCH   3   8
BRANCH   6  25
ATOM     25  C   UNL     1       8.989   8.680   1.110  0.00  0.00    +0.019 C 
BRANCH  25  33
ATOM     26  C   UNL     1      12.537  12.194   1.251  0.00  0.00    +0.009 C 
ATOM     27  C   UNL     1      11.743  11.366   2.263  0.00  0.00    +0.004 C 
ATOM     28  C   UNL     1      12.556  11.218   3.552  0.00  0.00    +0.009 C 
ATOM     29  C   UNL     1      11.749  10.417   4.577  0.00  0.00    +0.004 C 
ATOM     30  C   UNL     1      11.469   9.018   4.019  0.00  0.00    +0.111 C 
ATOM     31  N   UNL     1      10.816   9.153   2.710  0.00  0.00    -0.303 N 
ATOM     32  C   UNL     1      11.465   9.973   1.678  0.00  0.00    +0.111 C 
ATOM     33  C   UNL     1       9.646   8.532   2.458  0.00  0.00    +0.199 C 
ATOM     34  O   UNL     1       9.123   7.854   3.317  0.00  0.00    -0.278 OA
ATOM     35  C   UNL     1      12.548  10.299   5.876  0.00  0.00    +0.009 C 
ENDBRANCH  25  33
ENDBRANCH   6  25
TORSDOF 5
