REMARK  Name = ZINC13033711
REMARK  7 active torsions:
REMARK  status: ('A' for Active; 'I' for Inactive)
REMARK    1  A    between atoms: C_4  and  C_7
REMARK    2  A    between atoms: C_7  and  N_66
REMARK    3  A    between atoms: C_8  and  C_9
REMARK    4  A    between atoms: C_8  and  N_66
REMARK    5  A    between atoms: C_25  and  C_26
REMARK    6  A    between atoms: C_25  and  N_66
REMARK    7  A    between atoms: N_30  and  C_31
REMARK                            x       y       z     vdW  Elec       q    Type
REMARK                         _______ _______ _______ _____ _____    ______ ____
ROOT
ATOM      1  N   UNL     1      -0.696  -2.998  -1.673  0.00  0.00    +0.390 N 
ATOM      2  H   UNL     1      -0.194  -2.996  -0.777  0.00  0.00    -0.080 HD
ENDROOT
BRANCH   1   3
ATOM      3  C   UNL     1      -1.648  -4.129  -1.686  0.00  0.00    -0.042 C 
BRANCH   3   7
ATOM      4  C   UNL     1       0.348  -7.622  -0.249  0.00  0.00    +0.000 A 
ATOM      5  C   UNL     1      -0.197  -6.720   0.645  0.00  0.00    +0.000 A 
ATOM      6  C   UNL     1      -0.843  -5.590   0.180  0.00  0.00    +0.002 A 
ATOM      7  C   UNL     1      -0.944  -5.361  -1.179  0.00  0.00    -0.064 A 
ATOM      8  C   UNL     1      -0.403  -6.266  -2.074  0.00  0.00    +0.002 A 
ATOM      9  C   UNL     1       0.248  -7.393  -1.609  0.00  0.00    +0.000 A 
ENDBRANCH   3   7
ENDBRANCH   1   3
BRANCH   1  10
ATOM     10  C   UNL     1       0.281  -3.148  -2.771  0.00  0.00    -0.036 C 
BRANCH  10  11
ATOM     11  C   UNL     1       1.480  -2.285  -2.471  0.00  0.00    +0.001 A 
ATOM     12  C   UNL     1       2.546  -2.813  -1.816  0.00  0.00    +0.017 A 
ATOM     13  C   UNL     1       3.696  -1.952  -1.544  0.00  0.00    +0.002 A 
ATOM     14  C   UNL     1       4.824  -2.442  -0.876  0.00  0.00    +0.059 A 
ATOM     15  C   UNL     1       5.892  -1.605  -0.630  0.00  0.00    +0.163 A 
ATOM     16  C   UNL     1       5.851  -0.271  -1.045  0.00  0.00    +0.164 A 
ATOM     17  C   UNL     1       4.739   0.223  -1.706  0.00  0.00    +0.075 A 
ATOM     18  C   UNL     1       3.655  -0.607  -1.961  0.00  0.00    +0.053 A 
ATOM     19  N   UNL     1       2.538  -0.131  -2.618  0.00  0.00    -0.322 N 
ATOM     20  H   UNL     1       2.511   0.795  -2.904  0.00  0.00    +0.169 HD
ATOM     21  C   UNL     1       1.488  -0.933  -2.867  0.00  0.00    +0.251 A 
ATOM     22  O   UNL     1       0.519  -0.478  -3.450  0.00  0.00    -0.268 OA
ATOM     23  O   UNL     1       6.902   0.561  -0.809  0.00  0.00    -0.485 OA
ATOM     24  C   UNL     1       7.845   0.142   0.182  0.00  0.00    +0.270 C 
ATOM     25  C   UNL     1       8.188  -1.332  -0.072  0.00  0.00    +0.270 C 
ATOM     26  O   UNL     1       6.981  -2.096   0.024  0.00  0.00    -0.485 OA
ENDBRANCH  10  11
ENDBRANCH   1  10
BRANCH   1  27
ATOM     27  C   UNL     1      -1.427  -1.722  -1.817  0.00  0.00    +0.001 C 
BRANCH  27  28
ATOM     28  C   UNL     1      -2.251  -1.490  -0.577  0.00  0.00    +0.135 A 
ATOM     29  N   UNL     1      -3.491  -1.868  -0.380  0.00  0.00    -0.115 NA
ATOM     30  N   UNL     1      -3.841  -1.486   0.800  0.00  0.00    -0.023 NA
ATOM     31  N   UNL     1      -2.854  -0.880   1.363  0.00  0.00    -0.044 NA
ATOM     32  N   UNL     1      -1.858  -0.857   0.543  0.00  0.00    -0.228 N 
BRANCH  32  33
ATOM     33  C   UNL     1      -0.543  -0.259   0.789  0.00  0.00    +0.111 C 
ATOM     34  C   UNL     1      -0.706   1.238   1.061  0.00  0.00    +0.027 C 
ATOM     35  C   UNL     1       0.667   1.862   1.317  0.00  0.00    +0.002 C 
ATOM     36  C   UNL     1       1.314   1.191   2.531  0.00  0.00    +0.000 C 
ATOM     37  C   UNL     1       1.477  -0.306   2.259  0.00  0.00    +0.002 C 
ATOM     38  C   UNL     1       0.104  -0.930   2.002  0.00  0.00    +0.027 C 
ENDBRANCH  32  33
ENDBRANCH  27  28
ENDBRANCH   1  27
TORSDOF 7
