REMARK  Name = ZINC23139390
REMARK  4 active torsions:
REMARK  status: ('A' for Active; 'I' for Inactive)
REMARK    1  A    between atoms: C_1  and  C_2
REMARK    2  A    between atoms: C_9  and  C_14
REMARK    3  A    between atoms: C_14  and  S_15
REMARK    4  A    between atoms: S_15  and  C_16
REMARK                            x       y       z     vdW  Elec       q    Type
REMARK                         _______ _______ _______ _____ _____    ______ ____
ROOT
ATOM      1  C   UNL     1      -4.623   5.384   0.055  0.00  0.00    +0.046 C 
ATOM      2  C   UNL     1      -5.791   4.432   0.054  0.00  0.00    -0.024 A 
ATOM      3  C   UNL     1      -7.079   4.917   0.063  0.00  0.00    +0.005 A 
ATOM      4  C   UNL     1      -8.165   4.052   0.063  0.00  0.00    +0.001 A 
ATOM      5  C   UNL     1      -7.974   2.687   0.054  0.00  0.00    +0.015 A 
ATOM      6  C   UNL     1      -6.679   2.176   0.045  0.00  0.00    +0.065 A 
ATOM      7  C   UNL     1      -5.572   3.053   0.045  0.00  0.00    +0.081 A 
ATOM      8  N   UNL     1      -4.319   2.531   0.041  0.00  0.00    -0.233 NA
ATOM      9  C   UNL     1      -4.116   1.249   0.028  0.00  0.00    +0.121 A 
ATOM     10  N   UNL     1      -5.120   0.333   0.028  0.00  0.00    -0.310 N 
ATOM     11  H   UNL     1      -4.884  -0.741   0.021  0.00  0.00    +0.170 HD
ATOM     12  C   UNL     1      -6.414   0.729   0.036  0.00  0.00    +0.259 A 
ATOM     13  O   UNL     1      -7.323  -0.080   0.036  0.00  0.00    -0.267 OA
ENDROOT
BRANCH   9  14
ATOM     14  C   UNL     1      -2.694   0.751   0.019  0.00  0.00    +0.151 C 
BRANCH  14  15
ATOM     15  S   UNL     1      -1.560   2.162   0.021  0.00  0.00    -0.080 S 
BRANCH  15  16
ATOM     16  C   UNL     1      -0.016   1.313   0.009  0.00  0.00    +0.170 A 
ATOM     17  N   UNL     1       1.146   2.030   0.002  0.00  0.00    -0.301 N 
ATOM     18  H   UNL     1       1.114   3.129   0.008  0.00  0.00    +0.171 HD
ATOM     19  C   UNL     1       2.344   1.417  -0.013  0.00  0.00    +0.260 A 
ATOM     20  O   UNL     1       3.372   2.072  -0.019  0.00  0.00    -0.267 OA
ATOM     21  C   UNL     1       2.395  -0.013  -0.021  0.00  0.00    +0.072 A 
ATOM     22  C   UNL     1       3.552  -0.891  -0.036  0.00  0.00    +0.023 A 
ATOM     23  C   UNL     1       3.366  -2.219  -0.041  0.00  0.00    +0.048 A 
ATOM     24  S   UNL     1       1.591  -2.389  -0.025  0.00  0.00    -0.077 S 
ATOM     25  C   UNL     1       1.150  -0.670  -0.013  0.00  0.00    +0.116 A 
ATOM     26  N   UNL     1       0.002  -0.004   0.002  0.00  0.00    -0.216 NA
ENDBRANCH  15  16
ENDBRANCH  14  15
ENDBRANCH   9  14
TORSDOF 3
