REMARK  Name = ZINC03883422
REMARK  2 active torsions:
REMARK  status: ('A' for Active; 'I' for Inactive)
REMARK    1  A    between atoms: C_6  and  C_7
REMARK    2  A    between atoms: C_8  and  C_9
REMARK                            x       y       z     vdW  Elec       q    Type
REMARK                         _______ _______ _______ _____ _____    ______ ____
ROOT
ATOM      1  C   UNL     1      -1.261  -0.761   0.011  0.00  0.00    +0.010 C 
ATOM      2  C   UNL     1      -1.240  -2.106   0.003  0.00  0.00    +0.028 C 
ENDROOT
BRANCH   1   8
ATOM      3  C   UNL     1      -0.017   1.394   0.010  0.00  0.00    +0.009 A 
ATOM      4  C   UNL     1       1.170   2.096   0.002  0.00  0.00    +0.020 A 
ATOM      5  C   UNL     1       2.378   1.420  -0.013  0.00  0.00    +0.041 A 
ATOM      6  C   UNL     1       2.405   0.035  -0.021  0.00  0.00    +0.020 A 
ATOM      7  C   UNL     1       1.226  -0.680  -0.013  0.00  0.00    +0.009 A 
ATOM      8  C   UNL     1       0.002  -0.004   0.002  0.00  0.00    -0.025 A 
ATOM      9 CL   UNL     1       3.867   2.312  -0.024  0.00  0.00    -0.084 Cl
ENDBRANCH   1   8
BRANCH   2  10
ATOM     10  C   UNL     1      -2.499  -2.861   0.011  0.00  0.00    +0.059 A 
ATOM     11  C   UNL     1      -2.632  -4.236   0.011  0.00  0.00    +0.048 A 
ATOM     12  C   UNL     1      -3.995  -4.528   0.021  0.00  0.00    +0.135 A 
ATOM     13  N   UNL     1      -4.666  -3.404   0.028  0.00  0.00    -0.182 NA
ATOM     14  N   UNL     1      -3.760  -2.336   0.027  0.00  0.00    -0.278 N 
ATOM     15  H   UNL     1      -3.987  -1.393   0.035  0.00  0.00    +0.189 HD
ENDBRANCH   2  10
TORSDOF 2
