REMARK  Name = ZINC07728708
REMARK  9 active torsions:
REMARK  status: ('A' for Active; 'I' for Inactive)
REMARK    1  A    between atoms: C_1  and  C_2
REMARK    2  A    between atoms: C_3  and  C_26
REMARK    3  A    between atoms: C_4  and  C_25
REMARK    4  A    between atoms: C_5  and  S_10
REMARK    5  A    between atoms: C_6  and  C_9
REMARK    6  A    between atoms: C_7  and  C_8
REMARK    7  A    between atoms: S_10  and  N_13
REMARK    8  A    between atoms: N_13  and  N_14
REMARK    9  A    between atoms: C_15  and  C_17
REMARK                            x       y       z     vdW  Elec       q    Type
REMARK                         _______ _______ _______ _____ _____    ______ ____
ROOT
ATOM      1  S   UNL     1       1.765   1.876   2.652  0.00  0.00    +0.074 S 
ATOM      2  O   UNL     1       2.298   2.320   1.412  0.00  0.00    -0.152 OA
ATOM      3  O   UNL     1       2.095   2.494   3.888  0.00  0.00    -0.152 OA
ENDROOT
BRANCH   1   8
ATOM      4  C   UNL     1      -4.241   2.150   2.140  0.00  0.00    +0.044 C 
ATOM      5  C   UNL     1      -2.741   2.081   2.268  0.00  0.00    -0.044 A 
ATOM      6  C   UNL     1      -2.149   2.168   3.514  0.00  0.00    -0.043 A 
ATOM      7  C   UNL     1      -0.773   2.105   3.631  0.00  0.00    -0.021 A 
ATOM      8  C   UNL     1       0.011   1.955   2.502  0.00  0.00    +0.113 A 
ATOM      9  C   UNL     1      -0.581   1.868   1.256  0.00  0.00    -0.021 A 
ATOM     10  C   UNL     1      -1.957   1.936   1.139  0.00  0.00    -0.043 A 
ATOM     11  C   UNL     1      -2.602   1.848  -0.220  0.00  0.00    +0.044 C 
ATOM     12  C   UNL     1       0.273   1.706   0.026  0.00  0.00    +0.046 C 
ATOM     13  C   UNL     1      -0.127   2.200   4.990  0.00  0.00    +0.046 C 
ATOM     14  C   UNL     1      -3.003   2.331   4.745  0.00  0.00    +0.044 C 
ENDBRANCH   1   8
BRANCH   1  15
ATOM     15  N   UNL     1       2.172   0.277   2.797  0.00  0.00    -0.108 NA
ATOM     16  H   UNL     1       2.638  -0.034   3.589  0.00  0.00    +0.172 HD
BRANCH  15  17
ATOM     17  N   UNL     1       1.844  -0.625   1.777  0.00  0.00    -0.232 N 
ATOM     18  C   UNL     1       2.805  -1.381   1.211  0.00  0.00    +0.232 C 
ATOM     19  O   UNL     1       3.955  -1.280   1.585  0.00  0.00    -0.274 OA
ATOM     20  H   UNL     1       0.925  -0.705   1.477  0.00  0.00    +0.171 HD
BRANCH  18  21
ATOM     21  C   UNL     1       2.453  -2.351   0.113  0.00  0.00    +0.099 C 
ATOM     22  C   UNL     1       1.462  -3.400   0.646  0.00  0.00    +0.037 C 
ATOM     23  C   UNL     1       1.342  -4.571  -0.359  0.00  0.00    +0.166 C 
ATOM     24  S   UNL     1       2.985  -4.563  -1.185  0.00  0.00    -0.030 S 
ATOM     25  O   UNL     1       2.807  -4.279  -2.566  0.00  0.00    -0.174 OA
ATOM     26  O   UNL     1       3.704  -5.726  -0.798  0.00  0.00    -0.174 OA
ATOM     27  C   UNL     1       3.733  -3.094  -0.363  0.00  0.00    +0.178 C 
ENDBRANCH  18  21
ENDBRANCH  15  17
ENDBRANCH   1  15
TORSDOF 4
