REMARK  Name = ZINC05144950
REMARK  8 active torsions:
REMARK  status: ('A' for Active; 'I' for Inactive)
REMARK    1  A    between atoms: C_1  and  C_2
REMARK    2  A    between atoms: C_3  and  C_25
REMARK    3  A    between atoms: C_5  and  N_11
REMARK    4  A    between atoms: C_6  and  C_7
REMARK    5  A    between atoms: N_9  and  C_10
REMARK    6  A    between atoms: C_12  and  C_14
REMARK    7  A    between atoms: C_15  and  C_16
REMARK    8  A    between atoms: C_19  and  N_22
REMARK                            x       y       z     vdW  Elec       q    Type
REMARK                         _______ _______ _______ _____ _____    ______ ____
ROOT
ATOM      1  N   UNL     1       1.478   3.441   0.006  0.00  0.00    -0.276 N 
ATOM      2  C   UNL     1       2.752   3.882  -0.004  0.00  0.00    +0.241 C 
ATOM      3  O   UNL     1       3.671   3.085  -0.016  0.00  0.00    -0.270 OA
ATOM      4  H   UNL     1       0.745   4.076   0.016  0.00  0.00    +0.156 HD
ENDROOT
BRANCH   1   9
ATOM      5  C   UNL     1      -1.273  -0.807   0.010  0.00  0.00    +0.045 C 
ATOM      6  C   UNL     1       0.002  -0.004   0.002  0.00  0.00    -0.027 A 
ATOM      7  C   UNL     1       1.207  -0.602  -0.013  0.00  0.00    -0.008 A 
ATOM      8  S   UNL     1       2.345   0.768  -0.016  0.00  0.00    -0.078 S 
ATOM      9  C   UNL     1       1.216   2.081   0.002  0.00  0.00    +0.085 A 
ATOM     10  C   UNL     1      -0.018   1.439   0.010  0.00  0.00    +0.068 A 
ATOM     11  C   UNL     1       1.519  -2.076  -0.024  0.00  0.00    +0.052 C 
BRANCH  10  12
ATOM     12  C   UNL     1      -1.276   2.191   0.020  0.00  0.00    +0.246 C 
ATOM     13  O   UNL     1      -1.793   2.498   1.078  0.00  0.00    -0.270 OA
ATOM     14  N   UNL     1      -1.860   2.543  -1.142  0.00  0.00    -0.314 N 
ATOM     15  C   UNL     1      -3.117   3.295  -1.132  0.00  0.00    +0.128 C 
ATOM     16  H   UNL     1      -1.448   2.299  -1.986  0.00  0.00    +0.149 HD
ENDBRANCH  10  12
ENDBRANCH   1   9
BRANCH   2  17
ATOM     17  C   UNL     1       3.029   5.319   0.001  0.00  0.00    +0.068 C 
ATOM     18  C   UNL     1       4.303   5.760  -0.009  0.00  0.00    +0.013 C 
BRANCH  18  19
ATOM     19  C   UNL     1       4.582   7.205  -0.004  0.00  0.00    -0.025 A 
ATOM     20  C   UNL     1       3.528   8.124   0.005  0.00  0.00    +0.010 A 
ATOM     21  C   UNL     1       3.797   9.476   0.015  0.00  0.00    +0.033 A 
ATOM     22  C   UNL     1       5.106   9.925   0.005  0.00  0.00    +0.126 A 
ATOM     23  C   UNL     1       6.155   9.022  -0.010  0.00  0.00    +0.033 A 
ATOM     24  C   UNL     1       5.902   7.666  -0.014  0.00  0.00    +0.010 A 
BRANCH  22  25
ATOM     25  N   UNL     1       5.387  11.378   0.011  0.00  0.00    +0.056 N 
ATOM     26  O   UNL     1       6.538  11.777   0.002  0.00  0.00    -0.126 OA
ATOM     27  O   UNL     1       4.466  12.176   0.024  0.00  0.00    -0.126 OA
ENDBRANCH  22  25
ENDBRANCH  18  19
ENDBRANCH   2  17
TORSDOF 5
