REMARK  Name = ZINC05545613
REMARK  6 active torsions:
REMARK  status: ('A' for Active; 'I' for Inactive)
REMARK    1  A    between atoms: C_1  and  C_2
REMARK    2  A    between atoms: C_5  and  S_8
REMARK    3  A    between atoms: S_8  and  N_11
REMARK    4  A    between atoms: N_11  and  C_12
REMARK    5  A    between atoms: C_12  and  C_13
REMARK    6  A    between atoms: C_19  and  C_25
REMARK                            x       y       z     vdW  Elec       q    Type
REMARK                         _______ _______ _______ _____ _____    ______ ____
ROOT
ATOM      1  C   UNL     1       2.287  -3.448  -3.723  0.00  0.00    +0.234 C 
ATOM      2  O   UNL     1       1.375  -4.233  -3.873  0.00  0.00    -0.274 OA
ATOM      3  N   UNL     1       3.236  -3.327  -4.673  0.00  0.00    -0.264 N 
ATOM      4  C   UNL     1       3.168  -4.100  -5.821  0.00  0.00    +0.165 A 
ATOM      5  N   UNL     1       3.987  -4.124  -6.846  0.00  0.00    -0.224 NA
ATOM      6  C   UNL     1       3.797  -4.936  -7.908  0.00  0.00    +0.083 A 
ATOM      7  C   UNL     1       4.598  -5.059  -9.068  0.00  0.00    -0.024 A 
ATOM      8  C   UNL     1       4.260  -5.941 -10.061  0.00  0.00    +0.005 A 
ATOM      9  C   UNL     1       3.129  -6.739  -9.969  0.00  0.00    +0.001 A 
ATOM     10  C   UNL     1       2.323  -6.644  -8.849  0.00  0.00    +0.017 A 
ATOM     11  C   UNL     1       2.654  -5.765  -7.849  0.00  0.00    +0.041 A 
ATOM     12  S   UNL     1       1.948  -5.323  -6.279  0.00  0.00    -0.052 S 
ATOM     13  C   UNL     1       5.836  -4.212  -9.212  0.00  0.00    +0.046 C 
ATOM     14  H   UNL     1       3.965  -2.699  -4.553  0.00  0.00    +0.157 HD
ENDROOT
BRANCH   1  15
ATOM     15  C   UNL     1       2.360  -2.607  -2.474  0.00  0.00    +0.201 C 
BRANCH  15  16
ATOM     16  N   UNL     1       1.223  -2.923  -1.606  0.00  0.00    -0.181 NA
ATOM     17  H   UNL     1       0.465  -3.414  -1.959  0.00  0.00    +0.149 HD
BRANCH  16  18
ATOM     18  S   UNL     1       1.232  -2.441  -0.022  0.00  0.00    +0.059 S 
ATOM     19  O   UNL     1       2.489  -2.832   0.515  0.00  0.00    -0.153 OA
ATOM     20  O   UNL     1      -0.002  -2.866   0.539  0.00  0.00    -0.153 OA
BRANCH  18  25
ATOM     21  C   UNL     1       1.151   3.592   0.010  0.00  0.00    +0.044 C 
ATOM     22  C   UNL     1       1.171   2.086   0.002  0.00  0.00    -0.050 A 
ATOM     23  C   UNL     1      -0.017   1.378   0.010  0.00  0.00    +0.005 A 
ATOM     24  C   UNL     1       0.002  -0.004   0.002  0.00  0.00    +0.029 A 
ATOM     25  C   UNL     1       1.208  -0.679  -0.013  0.00  0.00    +0.105 A 
ATOM     26  C   UNL     1       2.396   0.029  -0.021  0.00  0.00    +0.029 A 
ATOM     27  C   UNL     1       2.377   1.411  -0.015  0.00  0.00    +0.005 A 
ENDBRANCH  18  25
ENDBRANCH  16  18
ENDBRANCH  15  16
ENDBRANCH   1  15
TORSDOF 4
