REMARK  Name = ZINC02202337
REMARK  6 active torsions:
REMARK  status: ('A' for Active; 'I' for Inactive)
REMARK    1  A    between atoms: C_1  and  C_2
REMARK    2  A    between atoms: C_2  and  C_4
REMARK    3  A    between atoms: C_2  and  N_16
REMARK    4  A    between atoms: N_6  and  C_7
REMARK    5  A    between atoms: C_7  and  C_8
REMARK    6  A    between atoms: C_11  and  C_14
REMARK                            x       y       z     vdW  Elec       q    Type
REMARK                         _______ _______ _______ _____ _____    ______ ____
ROOT
ATOM      1  C   UNL     1       1.092   3.609  -7.442  0.00  0.00    +0.041 C 
ATOM      2  C   UNL     1       2.582   3.956  -7.394  0.00  0.00    +0.178 C 
ENDROOT
BRANCH   2   3
ATOM      3  N   UNL     1       3.241   3.448  -8.599  0.00  0.00    -0.249 N 
ATOM      4  C   UNL     1       3.859   4.314  -9.431  0.00  0.00    +0.265 A 
ATOM      5  O   UNL     1       3.874   5.506  -9.192  0.00  0.00    -0.267 OA
ATOM      6  C   UNL     1       4.519   3.776 -10.634  0.00  0.00    +0.063 A 
ATOM      7  C   UNL     1       5.181   4.604 -11.539  0.00  0.00    +0.015 A 
ATOM      8  C   UNL     1       5.779   4.052 -12.652  0.00  0.00    +0.001 A 
ATOM      9  C   UNL     1       5.723   2.684 -12.873  0.00  0.00    +0.002 A 
ATOM     10  C   UNL     1       5.070   1.853 -11.985  0.00  0.00    +0.026 A 
ATOM     11  C   UNL     1       4.463   2.390 -10.860  0.00  0.00    +0.056 A 
ATOM     12  N   UNL     1       3.797   1.591  -9.942  0.00  0.00    -0.307 N 
ATOM     13  H   UNL     1       3.749   0.603 -10.089  0.00  0.00    +0.170 HD
ATOM     14  C   UNL     1       3.216   2.131  -8.858  0.00  0.00    +0.330 A 
ATOM     15  O   UNL     1       2.641   1.396  -8.078  0.00  0.00    -0.246 OA
ENDBRANCH   2   3
BRANCH   2  16
ATOM     16  C   UNL     1       3.205   3.325  -6.176  0.00  0.00    +0.236 C 
ATOM     17  O   UNL     1       4.111   2.528  -6.302  0.00  0.00    -0.274 OA
ATOM     18  N   UNL     1       2.755   3.645  -4.946  0.00  0.00    -0.313 N 
ATOM     19  H   UNL     1       2.031   4.282  -4.845  0.00  0.00    +0.149 HD
BRANCH  18  20
ATOM     20  C   UNL     1       3.361   3.031  -3.762  0.00  0.00    +0.107 C 
BRANCH  20  21
ATOM     21  C   UNL     1       2.672   3.561  -2.503  0.00  0.00    +0.006 C 
ATOM     22  C   UNL     1       3.385   3.017  -1.263  0.00  0.00    +0.006 C 
ATOM     23  C   UNL     1       2.696   3.548  -0.005  0.00  0.00    +0.015 C 
ATOM     24  C   UNL     1       1.235   3.094   0.007  0.00  0.00    +0.102 C 
ATOM     25  C   UNL     1       0.522   3.639  -1.233  0.00  0.00    +0.015 C 
ATOM     26  C   UNL     1       1.211   3.108  -2.491  0.00  0.00    +0.006 C 
BRANCH  24  27
ATOM     27  C   UNL     1       1.177   1.588  -0.001  0.00  0.00    +0.359 C 
ATOM     28  O   UNL     1       2.199   0.944  -0.014  0.00  0.00    -0.246 OA
ATOM     29  O   UNL     1      -0.011   0.963   0.007  0.00  0.00    -0.246 OA
ENDBRANCH  24  27
ENDBRANCH  20  21
ENDBRANCH  18  20
ENDBRANCH   2  16
TORSDOF 5
