REMARK  Name = ZINC53634806
REMARK  6 active torsions:
REMARK  status: ('A' for Active; 'I' for Inactive)
REMARK    1  A    between atoms: C_1  and  C_2
REMARK    2  A    between atoms: C_2  and  C_25
REMARK    3  A    between atoms: N_5  and  C_9
REMARK    4  A    between atoms: C_9  and  C_10
REMARK    5  A    between atoms: N_12  and  C_13
REMARK    6  A    between atoms: C_13  and  C_14
REMARK                            x       y       z     vdW  Elec       q    Type
REMARK                         _______ _______ _______ _____ _____    ______ ____
ROOT
ATOM      1  C   UNL     1       2.656  -1.741  -1.914  0.00  0.00    +0.213 C 
ENDROOT
BRANCH   1   6
ATOM      2  C   UNL     1      -0.299   1.831  -1.152  0.00  0.00    +0.050 C 
ATOM      3  C   UNL     1      -0.327   0.303  -1.066  0.00  0.00    +0.168 C 
ATOM      4  C   UNL     1       0.632  -0.305  -2.070  0.00  0.00    +0.254 C 
ATOM      5  O   UNL     1       0.595  -0.197  -3.277  0.00  0.00    -0.272 OA
ATOM      6  N   UNL     1       1.536  -0.990  -1.341  0.00  0.00    -0.215 N 
ATOM      7  C   UNL     1       1.284  -0.900  -0.030  0.00  0.00    +0.310 C 
ATOM      8  O   UNL     1       1.961  -1.434   0.826  0.00  0.00    -0.252 OA
ATOM      9  N   UNL     1       0.197  -0.152   0.234  0.00  0.00    -0.279 N 
ATOM     10  H   UNL     1      -0.170   0.048   1.109  0.00  0.00    +0.152 HD
BRANCH   3  11
ATOM     11  C   UNL     1      -1.726  -0.213  -1.284  0.00  0.00    +0.137 A 
ATOM     12  C   UNL     1      -2.653  -0.401  -0.328  0.00  0.00    +0.047 A 
ATOM     13  C   UNL     1      -3.811  -0.893  -0.972  0.00  0.00    +0.041 A 
ATOM     14  C   UNL     1      -3.523  -0.977  -2.283  0.00  0.00    +0.195 A 
ATOM     15  O   UNL     1      -2.260  -0.558  -2.467  0.00  0.00    -0.465 OA
ENDBRANCH   3  11
ENDBRANCH   1   6
BRANCH   1  16
ATOM     16  C   UNL     1       3.857  -0.839  -2.034  0.00  0.00    +0.231 C 
ATOM     17  O   UNL     1       3.785   0.318  -1.676  0.00  0.00    -0.274 OA
ATOM     18  N   UNL     1       5.011  -1.317  -2.539  0.00  0.00    -0.313 N 
ATOM     19  H   UNL     1       5.069  -2.242  -2.825  0.00  0.00    +0.149 HD
BRANCH  18  20
ATOM     20  C   UNL     1       6.179  -0.440  -2.655  0.00  0.00    +0.112 C 
BRANCH  20  21
ATOM     21  C   UNL     1       7.306  -1.184  -3.374  0.00  0.00    +0.036 C 
ATOM     22  C   UNL     1       6.857  -1.530  -4.792  0.00  0.00    +0.010 C 
ATOM     23  C   UNL     1       8.065  -2.076  -5.562  0.00  0.00    +0.005 C 
ATOM     24  C   UNL     1       9.040  -0.926  -5.807  0.00  0.00    +0.035 C 
ATOM     25  C   UNL     1       9.333  -0.198  -4.521  0.00  0.00    -0.044 A 
ATOM     26  C   UNL     1       8.535  -0.313  -3.406  0.00  0.00    -0.040 A 
ATOM     27  C   UNL     1       8.858   0.391  -2.254  0.00  0.00    +0.004 A 
ATOM     28  C   UNL     1       9.974   1.202  -2.218  0.00  0.00    +0.000 A 
ATOM     29  C   UNL     1      10.777   1.315  -3.337  0.00  0.00    +0.000 A 
ATOM     30  C   UNL     1      10.457   0.617  -4.482  0.00  0.00    +0.004 A 
ENDBRANCH  20  21
ENDBRANCH  18  20
ENDBRANCH   1  16
TORSDOF 5
