REMARK  Name = ZINC12433615
REMARK  6 active torsions:
REMARK  status: ('A' for Active; 'I' for Inactive)
REMARK    1  A    between atoms: C_3  and  N_24
REMARK    2  A    between atoms: C_6  and  C_7
REMARK    3  A    between atoms: C_7  and  N_50
REMARK    4  A    between atoms: C_8  and  C_9
REMARK    5  A    between atoms: C_8  and  N_50
REMARK    6  A    between atoms: C_14  and  C_15
REMARK                            x       y       z     vdW  Elec       q    Type
REMARK                         _______ _______ _______ _____ _____    ______ ____
ROOT
ATOM      1  C   UNL     1       9.915   0.767   0.474  0.00  0.00    -0.043 C 
ENDROOT
BRANCH   1   2
ATOM      2  C   UNL     1      10.485   0.498   1.843  0.00  0.00    -0.019 A 
ATOM      3  C   UNL     1      10.954   1.425   2.706  0.00  0.00    +0.107 A 
ATOM      4  N   UNL     1      11.375   0.785   3.818  0.00  0.00    -0.284 N 
ATOM      5  H   UNL     1      11.771   1.216   4.628  0.00  0.00    +0.188 HD
ATOM      6  N   UNL     1      11.160  -0.588   3.638  0.00  0.00    -0.174 NA
ATOM      7  C   UNL     1      10.618  -0.765   2.452  0.00  0.00    +0.094 A 
BRANCH   7   8
ATOM      8  C   UNL     1      10.221  -2.067   1.859  0.00  0.00    +0.006 A 
ATOM      9  C   UNL     1       9.095  -2.146   1.041  0.00  0.00    +0.014 A 
ATOM     10  C   UNL     1       8.727  -3.357   0.491  0.00  0.00    +0.050 A 
ATOM     11  C   UNL     1       9.473  -4.497   0.749  0.00  0.00    +0.166 A 
ATOM     12  C   UNL     1      10.600  -4.422   1.566  0.00  0.00    +0.167 A 
ATOM     13  C   UNL     1      10.976  -3.209   2.115  0.00  0.00    +0.059 A 
ATOM     14  O   UNL     1      11.152  -5.667   1.662  0.00  0.00    -0.453 OA
ATOM     15  C   UNL     1      10.593  -6.421   0.570  0.00  0.00    +0.466 C 
ATOM     16  O   UNL     1       9.321  -5.788   0.334  0.00  0.00    -0.453 OA
ENDBRANCH   7   8
ENDBRANCH   1   2
BRANCH   1  17
ATOM     17  N   UNL     1       8.442   0.742   0.550  0.00  0.00    +0.384 N 
ATOM     18  H   UNL     1       8.136  -0.181   0.880  0.00  0.00    -0.085 HD
ATOM     19  H   UNL     1       8.124   1.464   1.208  0.00  0.00    -0.085 HD
BRANCH  17  20
ATOM     20  C   UNL     1       7.856   1.004  -0.778  0.00  0.00    -0.046 C 
BRANCH  20  26
ATOM     21  C   UNL     1       5.657   2.133  -0.385  0.00  0.00    +0.003 A 
ATOM     22  C   UNL     1       4.280   2.107  -0.284  0.00  0.00    +0.024 A 
ATOM     23  C   UNL     1       3.594   0.913  -0.469  0.00  0.00    +0.036 A 
ATOM     24  C   UNL     1       4.296  -0.252  -0.749  0.00  0.00    +0.024 A 
ATOM     25  C   UNL     1       5.673  -0.218  -0.854  0.00  0.00    +0.003 A 
ATOM     26  C   UNL     1       6.353   0.972  -0.669  0.00  0.00    -0.064 A 
BRANCH  23  27
ATOM     27  N   UNL     1       2.199   0.884  -0.367  0.00  0.00    -0.271 N 
ATOM     28  C   UNL     1       1.374   2.025   0.047  0.00  0.00    +0.114 C 
ATOM     29  C   UNL     1      -0.063   1.679  -0.402  0.00  0.00    +0.029 C 
ATOM     30  C   UNL     1      -0.021   0.134  -0.431  0.00  0.00    +0.098 C 
ATOM     31  C   UNL     1       1.441  -0.194  -0.637  0.00  0.00    +0.220 C 
ATOM     32  O   UNL     1       1.869  -1.272  -0.992  0.00  0.00    -0.275 OA
ENDBRANCH  23  27
ENDBRANCH  20  26
ENDBRANCH  17  20
ENDBRANCH   1  17
TORSDOF 6
