REMARK  Name = ZINC23418272
REMARK  6 active torsions:
REMARK  status: ('A' for Active; 'I' for Inactive)
REMARK    1  A    between atoms: C_1  and  N_2
REMARK    2  A    between atoms: C_6  and  C_7
REMARK    3  A    between atoms: C_7  and  C_9
REMARK    4  A    between atoms: C_9  and  O_10
REMARK    5  A    between atoms: O_10  and  C_11
REMARK    6  A    between atoms: C_11  and  C_13
REMARK                            x       y       z     vdW  Elec       q    Type
REMARK                         _______ _______ _______ _____ _____    ______ ____
ROOT
ATOM      1  C   UNL     1      -2.825   8.992   0.081  0.00  0.00    +0.061 A 
ATOM      2  C   UNL     1      -4.173   8.628   0.086  0.00  0.00    +0.016 A 
ATOM      3  C   UNL     1      -5.148   9.598   0.106  0.00  0.00    +0.014 A 
ATOM      4  C   UNL     1      -4.797  10.955   0.108  0.00  0.00    +0.048 A 
ATOM      5  C   UNL     1      -3.450  11.315   0.100  0.00  0.00    +0.105 A 
ATOM      6  C   UNL     1      -2.472  10.342   0.085  0.00  0.00    +0.043 A 
ATOM      7  S   UNL     1      -2.984  13.014   0.109  0.00  0.00    +0.026 S 
ATOM      8  O   UNL     1      -2.023  13.166   1.145  0.00  0.00    -0.164 OA
ATOM      9  O   UNL     1      -2.712  13.368  -1.240  0.00  0.00    -0.164 OA
ATOM     10  C   UNL     1      -4.402  13.938   0.597  0.00  0.00    +0.104 A 
ATOM     11  C   UNL     1      -4.254  15.245   1.018  0.00  0.00    +0.028 A 
ATOM     12  C   UNL     1      -5.357  15.982   1.407  0.00  0.00    +0.002 A 
ATOM     13  C   UNL     1      -6.618  15.411   1.379  0.00  0.00    +0.001 A 
ATOM     14  C   UNL     1      -6.780  14.108   0.962  0.00  0.00    +0.013 A 
ATOM     15  C   UNL     1      -5.668  13.355   0.563  0.00  0.00    +0.047 A 
ATOM     16  C   UNL     1      -5.865  11.968   0.119  0.00  0.00    +0.197 C 
ATOM     17  O   UNL     1      -6.972  11.639  -0.261  0.00  0.00    -0.287 OA
ENDROOT
BRANCH   1  18
ATOM     18  C   UNL     1      -1.775   7.951   0.064  0.00  0.00    +0.340 C 
ATOM     19  O   UNL     1      -0.603   8.270   0.054  0.00  0.00    -0.245 OA
BRANCH  18  20
ATOM     20  O   UNL     1      -2.118   6.648   0.060  0.00  0.00    -0.453 OA
BRANCH  20  21
ATOM     21  C   UNL     1      -1.035   5.681   0.044  0.00  0.00    +0.313 C 
BRANCH  21  22
ATOM     22  C   UNL     1      -1.606   4.287   0.041  0.00  0.00    +0.216 C 
ATOM     23  O   UNL     1      -2.810   4.124   0.052  0.00  0.00    -0.287 OA
BRANCH  22  29
ATOM     24  C   UNL     1      -2.501   1.351   0.019  0.00  0.00    +0.149 C 
ATOM     25  N   UNL     1      -1.121   1.843   0.017  0.00  0.00    -0.347 N 
ATOM     26  C   UNL     1      -0.013   1.076   0.008  0.00  0.00    +0.086 A 
ATOM     27  C   UNL     1       1.081   1.878   0.002  0.00  0.00    +0.020 A 
ATOM     28  C   UNL     1       0.642   3.203   0.013  0.00  0.00    +0.031 A 
ATOM     29  C   UNL     1      -0.742   3.169   0.026  0.00  0.00    +0.088 A 
ENDBRANCH  22  29
ENDBRANCH  21  22
ENDBRANCH  20  21
ENDBRANCH  18  20
ENDBRANCH   1  18
TORSDOF 5
