REMARK  Name = ZINC39457967
REMARK  12 active torsions:
REMARK  status: ('A' for Active; 'I' for Inactive)
REMARK    1  A    between atoms: C_1  and  C_2
REMARK    2  A    between atoms: C_2  and  C_3
REMARK    3  A    between atoms: C_8  and  C_12
REMARK    4  A    between atoms: C_12  and  C_14
REMARK    5  A    between atoms: C_14  and  S_15
REMARK    6  A    between atoms: S_15  and  C_16
REMARK    7  A    between atoms: C_20  and  C_30
REMARK    8  A    between atoms: N_22  and  C_23
REMARK    9  A    between atoms: C_30  and  C_32
REMARK   10  A    between atoms: C_30  and  N_33
REMARK   11  A    between atoms: N_33  and  C_34
REMARK   12  A    between atoms: N_33  and  C_35
REMARK                            x       y       z     vdW  Elec       q    Type
REMARK                         _______ _______ _______ _____ _____    ______ ____
ROOT
ATOM      1  C   UNL     1       9.070  -1.895  -3.718  0.00  0.00    +0.275 C 
ATOM      2  N   UNL     1       9.399  -2.860  -2.668  0.00  0.00    -0.156 NA
ATOM      3  N   UNL     1       9.752  -2.303  -1.630  0.00  0.00    -0.169 NA
ATOM      4  C   UNL     1       9.734  -0.845  -1.762  0.00  0.00    +0.202 C 
ATOM      5  N   UNL     1       9.286  -0.558  -3.137  0.00  0.00    -0.276 N 
ENDROOT
BRANCH   5   6
ATOM      6  C   UNL     1       9.107   0.688  -3.746  0.00  0.00    +0.034 A 
ATOM      7  C   UNL     1       9.369   1.853  -3.037  0.00  0.00    +0.026 A 
ATOM      8  C   UNL     1       9.192   3.082  -3.641  0.00  0.00    +0.040 A 
ATOM      9  C   UNL     1       8.755   3.154  -4.952  0.00  0.00    +0.124 A 
ATOM     10  C   UNL     1       8.493   1.994  -5.662  0.00  0.00    +0.040 A 
ATOM     11  C   UNL     1       8.673   0.762  -5.063  0.00  0.00    +0.026 A 
ATOM     12  F   UNL     1       8.582   4.358  -5.541  0.00  0.00    -0.205 F 
ENDBRANCH   5   6
BRANCH   4  13
ATOM     13  C   UNL     1       8.758  -0.238  -0.752  0.00  0.00    -0.027 C 
ATOM     14  C   UNL     1       7.353  -0.788  -1.007  0.00  0.00    -0.009 C 
BRANCH  13  15
ATOM     15  N   UNL     1       9.181  -0.590   0.610  0.00  0.00    +0.380 N 
ATOM     16  C   UNL     1      10.530  -0.062   0.856  0.00  0.00    -0.096 C 
ATOM     17  C   UNL     1       8.244  -0.007   1.580  0.00  0.00    -0.096 C 
ATOM     18  H   UNL     1       9.189  -1.594   0.712  0.00  0.00    -0.082 HD
ENDBRANCH  13  15
ENDBRANCH   4  13
BRANCH   1  19
ATOM     19  S   UNL     1       7.336  -2.085  -4.216  0.00  0.00    -0.106 S 
BRANCH  19  20
ATOM     20  C   UNL     1       7.345  -3.547  -5.289  0.00  0.00    +0.152 C 
BRANCH  20  21
ATOM     21  C   UNL     1       5.944  -3.830  -5.765  0.00  0.00    +0.171 C 
ATOM     22  O   UNL     1       5.027  -3.115  -5.414  0.00  0.00    -0.291 OA
BRANCH  21  28
ATOM     23  C   UNL     1       3.518  -7.114  -8.643  0.00  0.00    -0.024 A 
ATOM     24  C   UNL     1       2.307  -6.546  -8.457  0.00  0.00    +0.005 A 
ATOM     25  C   UNL     1       2.135  -5.409  -7.652  0.00  0.00    +0.001 A 
ATOM     26  C   UNL     1       3.165  -4.809  -7.014  0.00  0.00    +0.010 A 
ATOM     27  C   UNL     1       4.478  -5.322  -7.140  0.00  0.00    +0.006 A 
ATOM     28  C   UNL     1       5.696  -4.927  -6.618  0.00  0.00    +0.024 C 
ATOM     29  C   UNL     1       6.707  -5.917  -7.153  0.00  0.00    +0.152 C 
ATOM     30  N   UNL     1       5.953  -6.857  -7.988  0.00  0.00    -0.380 N 
ATOM     31  C   UNL     1       4.693  -6.527  -7.978  0.00  0.00    +0.046 A 
ATOM     32  H   UNL     1       6.332  -7.609  -8.469  0.00  0.00    +0.160 HD
BRANCH  23  34
ATOM     33  C   UNL     1       3.611  -9.592  -8.643  0.00  0.00    +0.009 C 
ATOM     34  C   UNL     1       3.664  -8.336  -9.514  0.00  0.00    +0.034 C 
ENDBRANCH  23  34
ENDBRANCH  21  28
ENDBRANCH  20  21
ENDBRANCH  19  20
ENDBRANCH   1  19
TORSDOF 8
