REMARK  Name = ZINC03088541
REMARK  11 active torsions:
REMARK  status: ('A' for Active; 'I' for Inactive)
REMARK    1  A    between atoms: C_1  and  C_2
REMARK    2  A    between atoms: C_4  and  O_10
REMARK    3  A    between atoms: O_10  and  C_11
REMARK    4  A    between atoms: C_11  and  C_12
REMARK    5  A    between atoms: N_14  and  N_15
REMARK    6  A    between atoms: N_15  and  C_16
REMARK    7  A    between atoms: C_16  and  C_17
REMARK    8  A    between atoms: C_18  and  C_19
REMARK    9  A    between atoms: N_21  and  C_22
REMARK   10  A    between atoms: C_22  and  C_23
REMARK   11  A    between atoms: C_22  and  C_24
REMARK                            x       y       z     vdW  Elec       q    Type
REMARK                         _______ _______ _______ _____ _____    ______ ____
ROOT
ATOM      1  C   UNL     1      -0.757  -2.745  -4.926  0.00  0.00    +0.267 C 
ATOM      2  O   UNL     1      -0.691  -3.941  -4.734  0.00  0.00    -0.271 OA
ATOM      3  N   UNL     1      -0.524  -2.246  -6.156  0.00  0.00    -0.234 N 
ATOM      4  H   UNL     1      -0.576  -1.290  -6.309  0.00  0.00    +0.173 HD
ENDROOT
BRANCH   3   5
ATOM      5  N   UNL     1      -0.205  -3.109  -7.213  0.00  0.00    -0.269 N 
ATOM      6  H   UNL     1      -0.153  -4.065  -7.059  0.00  0.00    +0.170 HD
BRANCH   5   7
ATOM      7  C   UNL     1       0.031  -2.603  -8.460  0.00  0.00    +0.024 C 
ATOM      8  C   UNL     1       0.374  -3.531  -9.597  0.00  0.00    +0.062 C 
ATOM      9  C   UNL     1      -0.042  -1.273  -8.674  0.00  0.00    +0.087 C 
BRANCH   9  10
ATOM     10  C   UNL     1       0.048  -0.762  -9.990  0.00  0.00    +0.239 C 
ATOM     11  O   UNL     1       0.080  -1.525 -10.938  0.00  0.00    -0.271 OA
ATOM     12  N   UNL     1       0.098   0.569 -10.194  0.00  0.00    -0.309 N 
ATOM     13  H   UNL     1       0.073   1.177  -9.438  0.00  0.00    +0.149 HD
BRANCH  12  14
ATOM     14  C   UNL     1       0.191   1.098 -11.556  0.00  0.00    +0.067 C 
ATOM     15  C   UNL     1      -1.211   1.207 -12.158  0.00  0.00    +0.027 C 
ATOM     16  C   UNL     1       0.841   2.483 -11.522  0.00  0.00    +0.027 C 
ENDBRANCH  12  14
ENDBRANCH   9  10
ENDBRANCH   5   7
ENDBRANCH   3   5
BRANCH   1  17
ATOM     17  C   UNL     1      -1.099  -1.817  -3.789  0.00  0.00    +0.326 C 
BRANCH  17  18
ATOM     18  O   UNL     1      -1.300  -2.579  -2.596  0.00  0.00    -0.482 OA
BRANCH  18  22
ATOM     19  C   UNL     1      -2.186   1.694  -0.410  0.00  0.00    +0.045 C 
ATOM     20  C   UNL     1      -2.060   0.193  -0.365  0.00  0.00    -0.033 A 
ATOM     21  C   UNL     1      -1.735  -0.507  -1.511  0.00  0.00    +0.051 A 
ATOM     22  C   UNL     1      -1.619  -1.888  -1.470  0.00  0.00    +0.135 A 
ATOM     23  C   UNL     1      -1.828  -2.565  -0.276  0.00  0.00    +0.061 A 
ATOM     24  C   UNL     1      -2.152  -1.861   0.869  0.00  0.00    +0.034 A 
ATOM     25  C   UNL     1      -2.263  -0.482   0.825  0.00  0.00    +0.022 A 
ATOM     26 BR   UNL     1      -2.699   0.480   2.394  0.00  0.00    -0.050 Br
ATOM     27 BR   UNL     1      -1.670  -4.448  -0.215  0.00  0.00    -0.046 Br
ENDBRANCH  18  22
ENDBRANCH  17  18
ENDBRANCH   1  17
TORSDOF 7
