REMARK  Name = ZINC05601526
REMARK  10 active torsions:
REMARK  status: ('A' for Active; 'I' for Inactive)
REMARK    1  A    between atoms: C_1  and  C_2
REMARK    2  A    between atoms: C_2  and  C_31
REMARK    3  A    between atoms: C_3  and  C_4
REMARK    4  A    between atoms: C_4  and  C_5
REMARK    5  A    between atoms: C_8  and  O_17
REMARK    6  A    between atoms: C_12  and  C_15
REMARK    7  A    between atoms: C_12  and  C_16
REMARK    8  A    between atoms: C_20  and  C_23
REMARK    9  A    between atoms: C_26  and  O_30
REMARK   10  A    between atoms: C_27  and  O_29
REMARK                            x       y       z     vdW  Elec       q    Type
REMARK                         _______ _______ _______ _____ _____    ______ ____
ROOT
ATOM      1  C   UNL     1      -1.364  -1.933  -0.256  0.00  0.00    +0.042 A 
ATOM      2  C   UNL     1      -2.049  -1.854  -1.465  0.00  0.00    +0.149 A 
ATOM      3  C   UNL     1      -2.166  -3.002  -2.269  0.00  0.00    +0.107 A 
ATOM      4  C   UNL     1      -1.610  -4.221  -1.859  0.00  0.00    +0.142 A 
ATOM      5  C   UNL     1      -0.934  -4.281  -0.645  0.00  0.00    +0.059 A 
ATOM      6  C   UNL     1      -0.814  -3.130   0.155  0.00  0.00    +0.139 A 
ATOM      7  O   UNL     1      -0.147  -3.225   1.334  0.00  0.00    -0.481 OA
ATOM      8  C   UNL     1      -0.253  -4.460   2.043  0.00  0.00    +0.124 C 
ATOM      9  C   UNL     1       0.005  -5.624   1.122  0.00  0.00    +0.020 C 
ATOM     10  C   UNL     1      -0.327  -5.540  -0.165  0.00  0.00    +0.015 C 
ATOM     11  C   UNL     1       0.773  -4.479   3.179  0.00  0.00    +0.060 C 
ATOM     12  C   UNL     1      -1.659  -4.586   2.631  0.00  0.00    +0.060 C 
ATOM     13  C   UNL     1      -2.891  -2.895  -3.546  0.00  0.00    +0.204 A 
ATOM     14  O   UNL     1      -3.033  -3.852  -4.288  0.00  0.00    -0.286 OA
ATOM     15  C   UNL     1      -3.449  -1.569  -3.872  0.00  0.00    +0.065 A 
ATOM     16  C   UNL     1      -3.251  -0.552  -2.997  0.00  0.00    +0.208 A 
ATOM     17  O   UNL     1      -2.586  -0.682  -1.852  0.00  0.00    -0.462 OA
ENDROOT
BRANCH  15  18
ATOM     18  C   UNL     1      -4.202  -1.351  -5.131  0.00  0.00    -0.008 A 
ATOM     19  C   UNL     1      -3.667  -1.775  -6.346  0.00  0.00    +0.012 A 
ATOM     20  C   UNL     1      -4.367  -1.572  -7.518  0.00  0.00    +0.050 A 
ATOM     21  C   UNL     1      -5.604  -0.946  -7.490  0.00  0.00    +0.158 A 
ATOM     22  C   UNL     1      -6.144  -0.521  -6.279  0.00  0.00    +0.159 A 
ATOM     23  C   UNL     1      -5.447  -0.727  -5.101  0.00  0.00    +0.058 A 
BRANCH  22  24
ATOM     24  O   UNL     1      -7.358   0.092  -6.253  0.00  0.00    -0.503 OA
ATOM     25  H   UNL     1      -7.784   0.428  -5.296  0.00  0.00    +0.292 HD
ENDBRANCH  22  24
BRANCH  21  26
ATOM     26  O   UNL     1      -6.292  -0.748  -8.646  0.00  0.00    -0.503 OA
ATOM     27  H   UNL     1      -7.273  -0.252  -8.625  0.00  0.00    +0.292 HD
ENDBRANCH  21  26
ENDBRANCH  15  18
BRANCH   4  28
ATOM     28  O   UNL     1      -1.729  -5.326  -2.635  0.00  0.00    -0.505 OA
ATOM     29  H   UNL     1      -1.289  -6.279  -2.306  0.00  0.00    +0.292 HD
ENDBRANCH   4  28
BRANCH   1  30
ATOM     30  C   UNL     1      -1.228  -0.708   0.611  0.00  0.00    +0.069 C 
BRANCH  30  33
ATOM     31  C   UNL     1       1.230   2.033  -0.482  0.00  0.00    +0.038 C 
ATOM     32  C   UNL     1      -0.032   1.284  -0.141  0.00  0.00    -0.079 C 
ATOM     33  C   UNL     1       0.032   0.032   0.240  0.00  0.00    -0.023 C 
ATOM     34  C   UNL     1      -1.368   1.973  -0.244  0.00  0.00    +0.038 C 
ENDBRANCH  30  33
ENDBRANCH   1  30
TORSDOF 6
