REMARK  Name = ZINC00626578
REMARK  6 active torsions:
REMARK  status: ('A' for Active; 'I' for Inactive)
REMARK    1  A    between atoms: C_1  and  C_2
REMARK    2  A    between atoms: C_2  and  C_27
REMARK    3  A    between atoms: C_4  and  C_18
REMARK    4  A    between atoms: C_6  and  C_9
REMARK    5  A    between atoms: N_11  and  C_12
REMARK    6  A    between atoms: N_20  and  C_21
REMARK                            x       y       z     vdW  Elec       q    Type
REMARK                         _______ _______ _______ _____ _____    ______ ____
ROOT
ATOM      1  C   UNL     1       2.625  -0.016   1.544  0.00  0.00    +0.074 C 
ATOM      2  C   UNL     1       2.394   0.317   0.069  0.00  0.00    +0.167 C 
ATOM      3  O   UNL     1       1.737   1.591  -0.053  0.00  0.00    -0.334 OA
ATOM      4  C   UNL     1       0.324   1.332  -0.137  0.00  0.00    +0.245 C 
ATOM      5  C   UNL     1       0.194  -0.206  -0.099  0.00  0.00    +0.245 C 
ATOM      6  O   UNL     1       1.504  -0.652  -0.526  0.00  0.00    -0.334 OA
ATOM      7  C   UNL     1       3.727   0.339  -0.682  0.00  0.00    +0.074 C 
ENDROOT
BRANCH   5   8
ATOM      8  C   UNL     1      -0.868  -0.676  -1.059  0.00  0.00    +0.245 C 
ATOM      9  O   UNL     1      -2.031  -0.392  -0.863  0.00  0.00    -0.273 OA
ATOM     10  N   UNL     1      -0.527  -1.411  -2.135  0.00  0.00    -0.310 N 
ATOM     11  H   UNL     1       0.392  -1.701  -2.253  0.00  0.00    +0.149 HD
BRANCH  10  12
ATOM     12  C   UNL     1      -1.542  -1.774  -3.127  0.00  0.00    +0.073 C 
ATOM     13  C   UNL     1      -2.268  -3.042  -2.674  0.00  0.00    +0.022 C 
ATOM     14  C   UNL     1      -3.328  -3.421  -3.709  0.00  0.00    +0.002 C 
ATOM     15  C   UNL     1      -2.655  -3.674  -5.060  0.00  0.00    +0.000 C 
ATOM     16  C   UNL     1      -1.929  -2.405  -5.513  0.00  0.00    +0.002 C 
ATOM     17  C   UNL     1      -0.869  -2.026  -4.478  0.00  0.00    +0.022 C 
ENDBRANCH  10  12
ENDBRANCH   5   8
BRANCH   4  18
ATOM     18  C   UNL     1      -0.391   1.947   1.039  0.00  0.00    +0.245 C 
ATOM     19  O   UNL     1       0.243   2.506   1.909  0.00  0.00    -0.273 OA
ATOM     20  N   UNL     1      -1.734   1.875   1.123  0.00  0.00    -0.310 N 
ATOM     21  H   UNL     1      -2.246   1.493   0.393  0.00  0.00    +0.149 HD
BRANCH  20  22
ATOM     22  C   UNL     1      -2.420   2.374   2.317  0.00  0.00    +0.073 C 
ATOM     23  C   UNL     1      -2.441   1.281   3.388  0.00  0.00    +0.022 C 
ATOM     24  C   UNL     1      -3.158   1.802   4.635  0.00  0.00    +0.002 C 
ATOM     25  C   UNL     1      -4.593   2.189   4.274  0.00  0.00    +0.000 C 
ATOM     26  C   UNL     1      -4.573   3.282   3.204  0.00  0.00    +0.002 C 
ATOM     27  C   UNL     1      -3.856   2.761   1.956  0.00  0.00    +0.022 C 
ENDBRANCH  20  22
ENDBRANCH   4  18
TORSDOF 4
