REMARK  Name = ZINC23976843
REMARK  3 active torsions:
REMARK  status: ('A' for Active; 'I' for Inactive)
REMARK    1  A    between atoms: C_5  and  N_7
REMARK    2  A    between atoms: C_8  and  C_10
REMARK    3  A    between atoms: C_10  and  N_11
REMARK                            x       y       z     vdW  Elec       q    Type
REMARK                         _______ _______ _______ _____ _____    ______ ____
ROOT
ATOM      1  N   UNL     1       0.496  -0.149   2.463  0.00  0.00    -0.284 N 
ATOM      2  C   UNL     1       0.860  -0.715   3.631  0.00  0.00    +0.235 C 
ATOM      3  O   UNL     1       0.332  -0.364   4.665  0.00  0.00    -0.274 OA
ATOM      4  H   UNL     1       0.908  -0.528   1.516  0.00  0.00    +0.155 HD
ENDROOT
BRANCH   1   9
ATOM      5  C   UNL     1      -1.417   2.784   3.566  0.00  0.00    +0.002 A 
ATOM      6  C   UNL     1      -2.178   3.029   2.442  0.00  0.00    +0.004 A 
ATOM      7  C   UNL     1      -2.060   2.224   1.315  0.00  0.00    -0.042 A 
ATOM      8  C   UNL     1      -1.174   1.173   1.318  0.00  0.00    -0.023 A 
ATOM      9  C   UNL     1      -0.404   0.922   2.455  0.00  0.00    +0.037 A 
ATOM     10  C   UNL     1      -0.527   1.727   3.576  0.00  0.00    +0.023 A 
ATOM     11  C   UNL     1      -0.988   0.264   0.132  0.00  0.00    +0.037 C 
ATOM     12  C   UNL     1      -2.167   0.391  -0.831  0.00  0.00    +0.005 C 
ATOM     13  C   UNL     1      -2.386   1.878  -1.133  0.00  0.00    +0.005 C 
ATOM     14  C   UNL     1      -2.927   2.550   0.127  0.00  0.00    +0.035 C 
ENDBRANCH   1   9
BRANCH   2  15
ATOM     15  C   UNL     1       1.922  -1.784   3.651  0.00  0.00    +0.214 C 
BRANCH  15  16
ATOM     16  N   UNL     1       2.134  -2.235   5.029  0.00  0.00    -0.215 N 
ATOM     17  C   UNL     1       1.460  -3.250   5.607  0.00  0.00    +0.247 C 
ATOM     18  O   UNL     1       0.597  -3.937   5.105  0.00  0.00    -0.273 OA
ATOM     19  C   UNL     1       2.008  -3.351   7.012  0.00  0.00    +0.113 C 
ATOM     20  C   UNL     1       2.651  -4.715   7.235  0.00  0.00    +0.035 C 
ATOM     21  C   UNL     1       3.224  -4.787   8.652  0.00  0.00    +0.003 C 
ATOM     22  C   UNL     1       2.101  -4.562   9.667  0.00  0.00    +0.000 C 
ATOM     23  C   UNL     1       1.483  -3.180   9.447  0.00  0.00    +0.003 C 
ATOM     24  C   UNL     1       0.903  -3.101   8.032  0.00  0.00    +0.035 C 
ATOM     25  N   UNL     1       3.019  -2.288   7.077  0.00  0.00    -0.285 N 
ATOM     26  C   UNL     1       3.026  -1.694   5.869  0.00  0.00    +0.310 C 
ATOM     27  O   UNL     1       3.756  -0.768   5.575  0.00  0.00    -0.252 OA
ATOM     28  H   UNL     1       3.587  -2.126   8.005  0.00  0.00    +0.151 HD
ENDBRANCH  15  16
ENDBRANCH   2  15
TORSDOF 3
