REMARK  Name = ZINC57746523
REMARK  5 active torsions:
REMARK  status: ('A' for Active; 'I' for Inactive)
REMARK    1  A    between atoms: C_1  and  C_2
REMARK    2  A    between atoms: C_2  and  C_4
REMARK    3  A    between atoms: C_2  and  C_10
REMARK    4  A    between atoms: C_10  and  C_12
REMARK    5  A    between atoms: C_10  and  C_14
REMARK                            x       y       z     vdW  Elec       q    Type
REMARK                         _______ _______ _______ _____ _____    ______ ____
ROOT
ATOM      1  C   UNL     1      -1.433  -0.534   0.013  0.00  0.00    +0.129 C 
ENDROOT
BRANCH   1   2
ATOM      2  C   UNL     1      -1.413  -2.041   0.005  0.00  0.00    -0.026 A 
ATOM      3  C   UNL     1      -0.809  -2.717  -1.040  0.00  0.00    +0.009 A 
ATOM      4  C   UNL     1      -0.790  -4.098  -1.051  0.00  0.00    +0.050 A 
ATOM      5  C   UNL     1      -1.375  -4.811  -0.015  0.00  0.00    +0.162 A 
ATOM      6  C   UNL     1      -1.980  -4.131   1.036  0.00  0.00    +0.162 A 
ATOM      7  C   UNL     1      -1.992  -2.744   1.044  0.00  0.00    +0.054 A 
ATOM      8  O   UNL     1      -2.553  -4.810   2.066  0.00  0.00    -0.485 OA
ATOM      9  C   UNL     1      -2.844  -6.194   1.843  0.00  0.00    +0.270 C 
ATOM     10  C   UNL     1      -1.615  -6.844   1.193  0.00  0.00    +0.270 C 
ATOM     11  O   UNL     1      -1.352  -6.171  -0.043  0.00  0.00    -0.485 OA
ENDBRANCH   1   2
BRANCH   1  13
ATOM     12  C   UNL     1      -0.019   1.526   0.010  0.00  0.00    +0.014 C 
ATOM     13  C   UNL     1       0.002  -0.004   0.002  0.00  0.00    +0.037 C 
BRANCH  13  14
ATOM     14  C   UNL     1       0.731  -0.503   1.223  0.00  0.00    -0.043 A 
ATOM     15  C   UNL     1       0.263  -0.187   2.485  0.00  0.00    +0.004 A 
ATOM     16  C   UNL     1       0.931  -0.645   3.605  0.00  0.00    +0.000 A 
ATOM     17  C   UNL     1       2.068  -1.419   3.463  0.00  0.00    +0.000 A 
ATOM     18  C   UNL     1       2.535  -1.736   2.201  0.00  0.00    +0.000 A 
ATOM     19  C   UNL     1       1.864  -1.282   1.081  0.00  0.00    +0.004 A 
ENDBRANCH  13  14
ENDBRANCH   1  13
BRANCH   1  20
ATOM     20  C   UNL     1      -2.145  -0.046  -1.180  0.00  0.00    +0.071 C 
ATOM     21  N   UNL     1      -2.695   0.330  -2.100  0.00  0.00    -0.196 NA
ENDBRANCH   1  20
TORSDOF 4
