REMARK  Name = ZINC23484355
REMARK  13 active torsions:
REMARK  status: ('A' for Active; 'I' for Inactive)
REMARK    1  A    between atoms: C_1  and  C_2
REMARK    2  A    between atoms: C_2  and  C_3
REMARK    3  A    between atoms: C_2  and  C_5
REMARK    4  A    between atoms: C_2  and  N_8
REMARK    5  A    between atoms: C_9  and  C_11
REMARK    6  A    between atoms: C_11  and  S_12
REMARK    7  A    between atoms: S_12  and  C_13
REMARK    8  A    between atoms: C_16  and  C_19
REMARK    9  A    between atoms: N_17  and  C_18
REMARK   10  A    between atoms: C_26  and  C_29
REMARK   11  A    between atoms: C_29  and  C_30
REMARK   12  A    between atoms: C_29  and  C_31
REMARK   13  A    between atoms: C_29  and  C_32
REMARK                            x       y       z     vdW  Elec       q    Type
REMARK                         _______ _______ _______ _____ _____    ______ ____
ROOT
ATOM      1  C   UNL     1      -6.078  -0.824   2.402  0.00  0.00    +0.192 A 
ATOM      2  N   UNL     1      -6.523  -1.586   1.429  0.00  0.00    -0.122 NA
ATOM      3  N   UNL     1      -7.747  -1.910   1.645  0.00  0.00    -0.128 NA
ATOM      4  C   UNL     1      -8.161  -1.374   2.773  0.00  0.00    +0.171 A 
ATOM      5  N   UNL     1      -7.101  -0.667   3.295  0.00  0.00    -0.305 N 
ATOM      6  C   UNL     1      -7.076   0.097   4.545  0.00  0.00    +0.153 C 
ENDROOT
BRANCH   4   7
ATOM      7  C   UNL     1      -9.501  -1.510   3.367  0.00  0.00    +0.057 A 
ATOM      8  C   UNL     1     -10.490  -2.408   3.068  0.00  0.00    +0.023 A 
ATOM      9  C   UNL     1     -11.695  -2.361   3.759  0.00  0.00    -0.036 A 
ATOM     10  C   UNL     1     -11.815  -1.397   4.717  0.00  0.00    -0.006 A 
ATOM     11  S   UNL     1     -10.257  -0.552   4.672  0.00  0.00    -0.090 S 
ATOM     12  C   UNL     1     -12.992  -1.132   5.598  0.00  0.00    +0.043 C 
ATOM     13  C   UNL     1     -13.932  -2.345   5.526  0.00  0.00    +0.009 C 
ATOM     14  C   UNL     1     -14.135  -2.723   4.056  0.00  0.00    -0.001 C 
ATOM     15  C   UNL     1     -12.848  -3.322   3.488  0.00  0.00    +0.040 C 
BRANCH  14  16
ATOM     16  C   UNL     1     -15.263  -3.750   3.947  0.00  0.00    -0.035 C 
ATOM     17  C   UNL     1     -16.555  -3.149   4.503  0.00  0.00    +0.011 C 
ATOM     18  C   UNL     1     -15.467  -4.129   2.478  0.00  0.00    +0.011 C 
ATOM     19  C   UNL     1     -14.895  -4.999   4.749  0.00  0.00    +0.011 C 
ENDBRANCH  14  16
ENDBRANCH   4   7
BRANCH   1  20
ATOM     20  S   UNL     1      -4.460  -0.139   2.536  0.00  0.00    -0.077 S 
BRANCH  20  21
ATOM     21  C   UNL     1      -3.611  -0.724   1.044  0.00  0.00    +0.173 C 
BRANCH  21  23
ATOM     22  N   UNL     1      -1.372  -0.511   0.012  0.00  0.00    -0.297 N 
ATOM     23  C   UNL     1      -2.197  -0.202   1.033  0.00  0.00    +0.224 C 
ATOM     24  O   UNL     1      -1.801   0.495   1.942  0.00  0.00    -0.275 OA
ATOM     25  H   UNL     1      -1.689  -1.069  -0.715  0.00  0.00    +0.150 HD
BRANCH  22  27
ATOM     26  C   UNL     1      -0.019   1.526   0.010  0.00  0.00    +0.048 C 
ATOM     27  C   UNL     1       0.002  -0.004   0.002  0.00  0.00    +0.121 C 
BRANCH  27  28
ATOM     28  C   UNL     1       0.718  -0.497  -1.257  0.00  0.00    +0.026 C 
ATOM     29  C   UNL     1       1.919  -1.426  -1.068  0.00  0.00    +0.007 C 
ATOM     30  C   UNL     1       2.134   0.022  -1.513  0.00  0.00    +0.007 C 
ENDBRANCH  27  28
BRANCH  27  31
ATOM     31  C   UNL     1       0.714  -0.492   1.195  0.00  0.00    +0.088 C 
ATOM     32  N   UNL     1       1.263  -0.868   2.115  0.00  0.00    -0.194 NA
ENDBRANCH  27  31
ENDBRANCH  22  27
ENDBRANCH  21  23
ENDBRANCH  20  21
ENDBRANCH   1  20
TORSDOF 8
