REMARK  Name = ZINC02426876
REMARK  5 active torsions:
REMARK  status: ('A' for Active; 'I' for Inactive)
REMARK    1  A    between atoms: C_1  and  C_2
REMARK    2  A    between atoms: C_4  and  C_24
REMARK    3  A    between atoms: N_20  and  C_21
REMARK    4  A    between atoms: C_21  and  C_22
REMARK    5  A    between atoms: C_22  and  O_23
REMARK                            x       y       z     vdW  Elec       q    Type
REMARK                         _______ _______ _______ _____ _____    ______ ____
ROOT
ATOM      1  C   UNL     1       1.112   1.415   0.025  0.00  0.00    +0.067 C 
ATOM      2  C   UNL     1       0.856  -0.070   0.013  0.00  0.00    +0.061 A 
ATOM      3  C   UNL     1       0.743  -0.872  -1.128  0.00  0.00    +0.048 A 
ATOM      4  C   UNL     1       0.514  -2.143  -0.724  0.00  0.00    +0.045 A 
ATOM      5  N   UNL     1       0.483  -2.143   0.634  0.00  0.00    -0.202 N 
ATOM      6  N   UNL     1       0.706  -0.829   1.067  0.00  0.00    -0.169 NA
ATOM      7  C   UNL     1       0.272  -3.253   1.452  0.00  0.00    +0.254 A 
ATOM      8  N   UNL     1       0.263  -3.099   2.769  0.00  0.00    -0.195 NA
ATOM      9  C   UNL     1       0.069  -4.113   3.595  0.00  0.00    +0.133 A 
ATOM     10  C   UNL     1      -0.138  -5.415   3.059  0.00  0.00    +0.051 A 
ATOM     11  C   UNL     1      -0.368  -6.673   3.773  0.00  0.00    -0.025 A 
ATOM     12  C   UNL     1      -0.536  -7.780   3.023  0.00  0.00    -0.004 A 
ATOM     13  S   UNL     1      -0.401  -7.226   1.344  0.00  0.00    -0.073 S 
ATOM     14  C   UNL     1      -0.116  -5.503   1.653  0.00  0.00    +0.116 A 
ATOM     15  N   UNL     1       0.080  -4.440   0.897  0.00  0.00    -0.203 NA
ATOM     16  C   UNL     1      -0.784  -9.176   3.508  0.00  0.00    +0.043 C 
ATOM     17  C   UNL     1      -0.450  -9.235   5.005  0.00  0.00    +0.005 C 
ATOM     18  C   UNL     1      -1.116  -8.047   5.704  0.00  0.00    +0.005 C 
ATOM     19  C   UNL     1      -0.419  -6.748   5.297  0.00  0.00    +0.037 C 
ATOM     20  N   UNL     1       0.066  -3.910   4.963  0.00  0.00    -0.326 N 
ATOM     21  C   UNL     1       0.327  -3.341  -1.619  0.00  0.00    +0.066 C 
ATOM     22  H   UNL     1       0.006  -4.668   5.566  0.00  0.00    +0.148 HD
ENDROOT
BRANCH  20  23
ATOM     23  C   UNL     1       0.154  -2.551   5.503  0.00  0.00    +0.130 C 
BRANCH  23  24
ATOM     24  C   UNL     1       0.132  -2.607   7.032  0.00  0.00    +0.174 C 
BRANCH  24  25
ATOM     25  O   UNL     1       1.304  -3.277   7.501  0.00  0.00    -0.393 OA
ATOM     26  H   UNL     1       1.357  -3.349   8.464  0.00  0.00    +0.209 HD
ENDBRANCH  24  25
ENDBRANCH  23  24
ENDBRANCH  20  23
TORSDOF 3
