REMARK  Name = ZINC00690870
REMARK  5 active torsions:
REMARK  status: ('A' for Active; 'I' for Inactive)
REMARK    1  A    between atoms: C_4  and  C_7
REMARK    2  A    between atoms: C_12  and  C_26
REMARK    3  A    between atoms: C_14  and  C_24
REMARK    4  A    between atoms: C_15  and  N_23
REMARK    5  A    between atoms: N_16  and  N_17
REMARK                            x       y       z     vdW  Elec       q    Type
REMARK                         _______ _______ _______ _____ _____    ______ ____
ROOT
ATOM      1  C   UNL     1       2.559   3.869  -0.028  0.00  0.00    +0.032 C 
ATOM      2  C   UNL     1       2.575   4.780   1.202  0.00  0.00    +0.061 C 
ATOM      3  C   UNL     1       3.828   5.620   1.194  0.00  0.00    +0.037 C 
ATOM      4  C   UNL     1       4.407   5.994   0.032  0.00  0.00    +0.026 C 
ATOM      5  C   UNL     1       5.659   6.834   0.026  0.00  0.00    +0.097 C 
ATOM      6  C   UNL     1       5.868   7.505   1.352  0.00  0.00    +0.078 C 
ATOM      7  C   UNL     1       5.228   7.067   2.468  0.00  0.00    +0.117 C 
ATOM      8  N   UNL     1       4.364   6.000   2.394  0.00  0.00    -0.223 N 
ATOM      9  C   UNL     1       3.863   5.608  -1.205  0.00  0.00    +0.162 C 
ATOM     10  O   UNL     1       4.398   5.976  -2.232  0.00  0.00    -0.292 OA
ATOM     11  C   UNL     1       2.632   4.747  -1.282  0.00  0.00    +0.088 C 
ENDROOT
BRANCH   5  12
ATOM     12  C   UNL     1       6.844   5.953  -0.275  0.00  0.00    -0.035 A 
ATOM     13  C   UNL     1       7.152   4.900   0.566  0.00  0.00    +0.007 A 
ATOM     14  C   UNL     1       8.236   4.088   0.288  0.00  0.00    +0.038 A 
ATOM     15  C   UNL     1       9.019   4.337  -0.827  0.00  0.00    +0.123 A 
ATOM     16  C   UNL     1       8.712   5.396  -1.665  0.00  0.00    +0.038 A 
ATOM     17  C   UNL     1       7.625   6.203  -1.388  0.00  0.00    +0.007 A 
ATOM     18  F   UNL     1      10.082   3.548  -1.096  0.00  0.00    -0.205 F 
ENDBRANCH   5  12
BRANCH   1  22
ATOM     19  C   UNL     1      -1.054   1.590  -0.083  0.00  0.00    +0.000 A 
ATOM     20  C   UNL     1       0.169   0.946  -0.052  0.00  0.00    +0.000 A 
ATOM     21  C   UNL     1       1.338   1.684  -0.036  0.00  0.00    +0.004 A 
ATOM     22  C   UNL     1       1.284   3.065  -0.046  0.00  0.00    -0.044 A 
ATOM     23  C   UNL     1       0.061   3.709  -0.071  0.00  0.00    +0.004 A 
ATOM     24  C   UNL     1      -1.108   2.971  -0.088  0.00  0.00    +0.000 A 
ENDBRANCH   1  22
BRANCH   8  25
ATOM     25  N   UNL     1       4.040   5.312   3.529  0.00  0.00    -0.217 NA
ATOM     26  C   UNL     1       4.348   3.882   3.385  0.00  0.00    +0.134 C 
ATOM     27  C   UNL     1       4.026   3.161   4.696  0.00  0.00    +0.177 C 
ATOM     28  O   UNL     1       2.655   3.388   5.034  0.00  0.00    -0.377 OA
ATOM     29  C   UNL     1       2.319   4.770   5.183  0.00  0.00    +0.177 C 
ATOM     30  C   UNL     1       2.624   5.507   3.876  0.00  0.00    +0.134 C 
ENDBRANCH   8  25
BRANCH   7  31
ATOM     31  N   UNL     1       5.443   7.693   3.672  0.00  0.00    -0.344 N 
ATOM     32  H   UNL     1       5.052   7.333   4.483  0.00  0.00    +0.144 HD
ATOM     33  H   UNL     1       5.987   8.496   3.711  0.00  0.00    +0.144 HD
ENDBRANCH   7  31
BRANCH   6  34
ATOM     34  C   UNL     1       6.756   8.624   1.443  0.00  0.00    +0.099 C 
ATOM     35  N   UNL     1       7.462   9.511   1.515  0.00  0.00    -0.191 NA
ENDBRANCH   6  34
TORSDOF 5
