REMARK  Name = ZINC66716922
REMARK  10 active torsions:
REMARK  status: ('A' for Active; 'I' for Inactive)
REMARK    1  A    between atoms: C_1  and  C_2
REMARK    2  A    between atoms: C_5  and  C_9
REMARK    3  A    between atoms: C_6  and  C_8
REMARK    4  A    between atoms: C_9  and  C_10
REMARK    5  A    between atoms: C_10  and  C_12
REMARK    6  A    between atoms: C_10  and  N_13
REMARK    7  A    between atoms: N_16  and  C_17
REMARK    8  A    between atoms: N_16  and  C_23
REMARK    9  A    between atoms: C_17  and  C_18
REMARK   10  A    between atoms: N_26  and  C_29
REMARK                            x       y       z     vdW  Elec       q    Type
REMARK                         _______ _______ _______ _____ _____    ______ ____
ROOT
ATOM      1  N   UNL     1      -2.143  -4.420  -1.074  0.00  0.00    -0.296 N 
ATOM      2  C   UNL     1      -3.484  -4.311  -0.997  0.00  0.00    +0.303 C 
ATOM      3  O   UNL     1      -4.053  -4.532   0.055  0.00  0.00    -0.253 OA
ATOM      4  N   UNL     1      -4.196  -3.958  -2.086  0.00  0.00    -0.275 N 
ATOM      5  H   UNL     1      -1.690  -4.245  -1.914  0.00  0.00    +0.151 HD
ENDROOT
BRANCH   4   6
ATOM      6  C   UNL     1      -5.653  -3.839  -2.002  0.00  0.00    +0.075 C 
ATOM      7  C   UNL     1      -6.022  -2.786  -0.953  0.00  0.00    +0.004 C 
ATOM      8  C   UNL     1      -7.544  -2.724  -0.814  0.00  0.00    -0.077 C 
ATOM      9  N   UNL     1      -8.055  -4.034  -0.393  0.00  0.00    +0.378 N 
ATOM     10  C   UNL     1      -7.768  -5.035  -1.427  0.00  0.00    -0.077 C 
ATOM     11  C   UNL     1      -6.254  -5.186  -1.590  0.00  0.00    +0.004 C 
ATOM     12  C   UNL     1      -9.506  -3.949  -0.185  0.00  0.00    -0.096 C 
ATOM     13  H   UNL     1      -7.609  -4.306   0.470  0.00  0.00    -0.082 HD
ENDBRANCH   4   6
BRANCH   1  14
ATOM     14  C   UNL     1      -1.370  -4.804   0.109  0.00  0.00    +0.076 C 
ATOM     15  C   UNL     1      -1.341  -6.330   0.226  0.00  0.00    +0.028 C 
BRANCH  14  16
ATOM     16  C   UNL     1       0.059  -4.275  -0.021  0.00  0.00    +0.057 C 
BRANCH  16  21
ATOM     17  C   UNL     1      -0.018   1.503   0.010  0.00  0.00    +0.044 C 
ATOM     18  C   UNL     1       0.002  -0.004   0.002  0.00  0.00    -0.050 A 
ATOM     19  C   UNL     1       0.006  -0.689  -1.199  0.00  0.00    +0.003 A 
ATOM     20  C   UNL     1       0.025  -2.071  -1.207  0.00  0.00    +0.004 A 
ATOM     21  C   UNL     1       0.040  -2.768  -0.013  0.00  0.00    -0.043 A 
ATOM     22  C   UNL     1       0.037  -2.084   1.188  0.00  0.00    -0.047 A 
ATOM     23  C   UNL     1       0.023  -0.702   1.195  0.00  0.00    +0.007 A 
ATOM     24  C   UNL     1       0.054  -2.845   2.489  0.00  0.00    +0.044 C 
ENDBRANCH  16  21
ENDBRANCH  14  16
ENDBRANCH   1  14
BRANCH   4  25
ATOM     25  C   UNL     1      -3.511  -3.692  -3.353  0.00  0.00    +0.183 C 
BRANCH  25  26
ATOM     26  C   UNL     1      -3.408  -4.970  -4.146  0.00  0.00    +0.122 A 
ATOM     27  C   UNL     1      -4.311  -5.418  -5.037  0.00  0.00    +0.046 A 
ATOM     28  C   UNL     1      -3.817  -6.644  -5.539  0.00  0.00    +0.041 A 
ATOM     29  C   UNL     1      -2.642  -6.871  -4.926  0.00  0.00    +0.195 A 
ATOM     30  O   UNL     1      -2.397  -5.851  -4.088  0.00  0.00    -0.466 OA
ENDBRANCH  25  26
ENDBRANCH   4  25
TORSDOF 6
