REMARK  Name = ZINC39277063
REMARK  7 active torsions:
REMARK  status: ('A' for Active; 'I' for Inactive)
REMARK    1  A    between atoms: C_1  and  C_2
REMARK    2  A    between atoms: C_4  and  C_9
REMARK    3  A    between atoms: C_5  and  C_8
REMARK    4  A    between atoms: C_9  and  C_10
REMARK    5  A    between atoms: C_11  and  C_25
REMARK    6  A    between atoms: N_13  and  C_18
REMARK    7  A    between atoms: C_21  and  C_24
REMARK                            x       y       z     vdW  Elec       q    Type
REMARK                         _______ _______ _______ _____ _____    ______ ____
ROOT
ATOM      1  C   UNL     1      -1.159   0.697  -3.068  0.00  0.00    +0.076 C 
ATOM      2  C   UNL     1      -1.703   1.599  -1.986  0.00  0.00    +0.147 C 
ATOM      3  N   UNL     1      -2.662   2.495  -2.643  0.00  0.00    -0.262 N 
ATOM      4  C   UNL     1      -2.696   2.178  -3.950  0.00  0.00    +0.289 C 
ATOM      5  O   UNL     1      -3.389   2.728  -4.783  0.00  0.00    -0.266 OA
ATOM      6  C   UNL     1      -1.762   1.066  -4.224  0.00  0.00    +0.249 C 
ATOM      7  O   UNL     1      -1.546   0.504  -5.435  0.00  0.00    -0.282 OA
ENDROOT
BRANCH   3   8
ATOM      8  C   UNL     1      -3.445   3.548  -1.991  0.00  0.00    +0.208 C 
ATOM      9  C   UNL     1      -4.904   3.148  -1.887  0.00  0.00    +0.057 C 
ATOM     10  C   UNL     1      -5.567   3.785  -2.828  0.00  0.00    +0.121 C 
ATOM     11  O   UNL     1      -4.761   4.571  -3.583  0.00  0.00    -0.409 OA
ATOM     12  N   UNL     1      -3.497   4.767  -2.839  0.00  0.00    -0.131 NA
ATOM     13  C   UNL     1      -7.053   3.655  -3.044  0.00  0.00    +0.088 C 
ATOM     14  H   UNL     1      -3.536   5.601  -2.272  0.00  0.00    +0.170 HD
ENDBRANCH   3   8
BRANCH   2  15
ATOM     15  C   UNL     1      -2.398   0.780  -0.928  0.00  0.00    -0.022 A 
ATOM     16  C   UNL     1      -3.619   0.192  -1.201  0.00  0.00    +0.006 A 
ATOM     17  C   UNL     1      -4.255  -0.559  -0.231  0.00  0.00    +0.000 A 
ATOM     18  C   UNL     1      -3.671  -0.723   1.011  0.00  0.00    +0.000 A 
ATOM     19  C   UNL     1      -2.450  -0.135   1.283  0.00  0.00    +0.000 A 
ATOM     20  C   UNL     1      -1.811   0.613   0.312  0.00  0.00    +0.006 A 
ENDBRANCH   2  15
BRANCH   1  21
ATOM     21  C   UNL     1      -0.166  -0.369  -2.902  0.00  0.00    +0.193 C 
ATOM     22  O   UNL     1      -0.477  -1.528  -3.107  0.00  0.00    -0.287 OA
BRANCH  21  25
ATOM     23  C   UNL     1       1.725   2.160  -3.550  0.00  0.00    +0.035 C 
ATOM     24  C   UNL     1       1.783   1.342  -2.258  0.00  0.00    +0.110 C 
ATOM     25  C   UNL     1       1.205  -0.038  -2.486  0.00  0.00    +0.026 C 
ATOM     26  C   UNL     1       2.210  -0.902  -2.228  0.00  0.00    -0.026 C 
ATOM     27  C   UNL     1       3.405  -0.147  -1.845  0.00  0.00    +0.082 C 
ATOM     28  N   UNL     1       3.178   1.124  -1.857  0.00  0.00    -0.383 N 
ATOM     29  C   UNL     1       2.117  -2.403  -2.317  0.00  0.00    +0.046 C 
ATOM     30  H   UNL     1       3.820   1.818  -1.639  0.00  0.00    +0.160 HD
ENDBRANCH  21  25
ENDBRANCH   1  21
TORSDOF 4
