REMARK  Name = ZINC66510675
REMARK  5 active torsions:
REMARK  status: ('A' for Active; 'I' for Inactive)
REMARK    1  A    between atoms: C_3  and  N_21
REMARK    2  A    between atoms: C_6  and  C_7
REMARK    3  A    between atoms: C_7  and  O_9
REMARK    4  A    between atoms: O_9  and  C_10
REMARK    5  A    between atoms: C_25  and  C_28
REMARK                            x       y       z     vdW  Elec       q    Type
REMARK                         _______ _______ _______ _____ _____    ______ ____
ROOT
ATOM      1  C   UNL     1      -0.031   1.375   0.043  0.00  0.00    +0.017 A 
ATOM      2  C   UNL     1       1.135   2.096   0.035  0.00  0.00    +0.024 A 
ATOM      3  C   UNL     1       2.362   1.439  -0.003  0.00  0.00    +0.030 A 
ATOM      4  C   UNL     1       2.409   0.048  -0.033  0.00  0.00    +0.024 A 
ATOM      5  C   UNL     1       1.247  -0.679  -0.026  0.00  0.00    +0.017 A 
ATOM      6  C   UNL     1       0.013  -0.022   0.012  0.00  0.00    +0.060 A 
ENDROOT
BRANCH   3   7
ATOM      7  N   UNL     1       3.542   2.173  -0.010  0.00  0.00    -0.329 N 
ATOM      8  C   UNL     1       4.845   1.498   0.073  0.00  0.00    +0.105 C 
ATOM      9  C   UNL     1       5.716   1.962  -1.099  0.00  0.00    +0.020 C 
ATOM     10  C   UNL     1       5.799   3.490  -1.093  0.00  0.00    +0.016 C 
ATOM     11  C   UNL     1       4.398   4.079  -1.271  0.00  0.00    +0.092 C 
ATOM     12  C   UNL     1       3.512   3.639  -0.108  0.00  0.00    +0.117 C 
BRANCH  11  13
ATOM     13  C   UNL     1       4.485   5.583  -1.299  0.00  0.00    +0.215 C 
ATOM     14  O   UNL     1       3.894   6.240  -0.468  0.00  0.00    -0.276 OA
ATOM     15  N   UNL     1       5.219   6.198  -2.247  0.00  0.00    -0.329 N 
ATOM     16  H   UNL     1       5.691   5.673  -2.912  0.00  0.00    +0.145 HD
ATOM     17  H   UNL     1       5.275   7.167  -2.265  0.00  0.00    +0.145 HD
ENDBRANCH  11  13
ENDBRANCH   3   7
BRANCH   6  18
ATOM     18  C   UNL     1      -1.239  -0.800   0.020  0.00  0.00    +0.344 C 
ATOM     19  O   UNL     1      -2.310  -0.228   0.053  0.00  0.00    -0.245 OA
BRANCH  18  20
ATOM     20  O   UNL     1      -1.195  -2.147  -0.009  0.00  0.00    -0.422 OA
BRANCH  20  21
ATOM     21  C   UNL     1      -2.371  -2.822  -0.107  0.00  0.00    +0.132 A 
ATOM     22  C   UNL     1      -2.901  -3.456   1.007  0.00  0.00    +0.048 A 
ATOM     23  C   UNL     1      -4.095  -4.142   0.909  0.00  0.00    +0.027 A 
ATOM     24  C   UNL     1      -4.766  -4.197  -0.306  0.00  0.00    +0.037 A 
ATOM     25  C   UNL     1      -4.235  -3.562  -1.420  0.00  0.00    -0.022 A 
ATOM     26  C   UNL     1      -3.043  -2.872  -1.320  0.00  0.00    +0.051 A 
ATOM     27  C   UNL     1      -4.965  -3.622  -2.737  0.00  0.00    +0.046 C 
ATOM     28  C   UNL     1      -5.671  -4.971  -2.869  0.00  0.00    +0.101 C 
ATOM     29  C   UNL     1      -6.445  -5.270  -1.613  0.00  0.00    +0.218 C 
ATOM     30  O   UNL     1      -7.504  -5.858  -1.686  0.00  0.00    -0.275 OA
ATOM     31  N   UNL     1      -5.977  -4.892  -0.409  0.00  0.00    -0.285 N 
ATOM     32  H   UNL     1      -6.482  -5.102   0.392  0.00  0.00    +0.155 HD
ENDBRANCH  20  21
ENDBRANCH  18  20
ENDBRANCH   6  18
TORSDOF 5
