REMARK  Name = ZINC19641690
REMARK  11 active torsions:
REMARK  status: ('A' for Active; 'I' for Inactive)
REMARK    1  A    between atoms: C_1  and  C_2
REMARK    2  A    between atoms: C_9  and  C_11
REMARK    3  A    between atoms: C_11  and  C_13
REMARK    4  A    between atoms: C_11  and  N_16
REMARK    5  A    between atoms: C_13  and  C_14
REMARK    6  A    between atoms: C_13  and  C_15
REMARK    7  A    between atoms: C_17  and  C_19
REMARK    8  A    between atoms: C_19  and  C_20
REMARK    9  A    between atoms: N_27  and  C_28
REMARK   10  A    between atoms: C_28  and  C_29
REMARK   11  A    between atoms: C_28  and  C_30
REMARK                            x       y       z     vdW  Elec       q    Type
REMARK                         _______ _______ _______ _____ _____    ______ ____
ROOT
ATOM      1  N   UNL     1       1.108  -6.656   2.321  0.00  0.00    -0.305 N 
ATOM      2  C   UNL     1       1.679  -7.798   2.754  0.00  0.00    +0.212 C 
ATOM      3  O   UNL     1       1.133  -8.461   3.610  0.00  0.00    -0.276 OA
ATOM      4  H   UNL     1       1.508  -6.161   1.589  0.00  0.00    +0.149 HD
ENDROOT
BRANCH   1   5
ATOM      5  C   UNL     1      -0.117  -6.162   2.956  0.00  0.00    +0.141 C 
BRANCH   5  14
ATOM      6  C   UNL     1      -0.606   1.262   3.093  0.00  0.00    +0.044 C 
ATOM      7  C   UNL     1      -0.564  -0.164   2.608  0.00  0.00    -0.048 A 
ATOM      8  C   UNL     1      -0.698  -0.436   1.254  0.00  0.00    +0.005 A 
ATOM      9  C   UNL     1      -0.662  -1.722   0.794  0.00  0.00    +0.030 A 
ATOM     10  C   UNL     1      -0.489  -2.777   1.693  0.00  0.00    +0.089 A 
ATOM     11  C   UNL     1      -0.353  -2.503   3.064  0.00  0.00    +0.067 A 
ATOM     12  C   UNL     1      -0.387  -1.189   3.512  0.00  0.00    +0.031 A 
ATOM     13  N   UNL     1      -0.200  -3.727   3.685  0.00  0.00    -0.340 N 
ATOM     14  C   UNL     1      -0.245  -4.680   2.716  0.00  0.00    +0.129 A 
ATOM     15  N   UNL     1      -0.414  -4.126   1.550  0.00  0.00    -0.231 NA
ATOM     16  H   UNL     1      -0.083  -3.878   4.636  0.00  0.00    +0.167 HD
ENDBRANCH   5  14
BRANCH   5  17
ATOM     17  C   UNL     1      -1.327  -6.882   2.358  0.00  0.00    +0.011 C 
ATOM     18  C   UNL     1      -2.610  -6.313   2.966  0.00  0.00    +0.009 C 
ATOM     19  C   UNL     1      -1.345  -6.676   0.842  0.00  0.00    +0.009 C 
ENDBRANCH   5  17
ENDBRANCH   1   5
BRANCH   2  20
ATOM     20  C   UNL     1       2.994  -8.249   2.175  0.00  0.00    +0.089 C 
BRANCH  20  21
ATOM     21  C   UNL     1       3.465  -9.511   2.901  0.00  0.00    +0.028 C 
ATOM     22  C   UNL     1       2.405 -10.571   2.795  0.00  0.00    +0.200 C 
ATOM     23  O   UNL     1       1.835 -10.720   1.735  0.00  0.00    -0.278 OA
ATOM     24  N   UNL     1       2.067 -11.358   3.822  0.00  0.00    -0.318 N 
ATOM     25  C   UNL     1       2.678 -11.235   5.143  0.00  0.00    +0.085 C 
ATOM     26  C   UNL     1       3.983 -10.444   5.041  0.00  0.00    -0.058 C 
ATOM     27  N   UNL     1       3.720  -9.194   4.311  0.00  0.00    +0.390 N 
ATOM     28  H   UNL     1       1.387 -12.037   3.685  0.00  0.00    +0.149 HD
ATOM     29  H   UNL     1       2.913  -8.734   4.706  0.00  0.00    -0.080 HD
BRANCH  27  30
ATOM     30  C   UNL     1       4.891  -8.312   4.414  0.00  0.00    -0.074 C 
ATOM     31  C   UNL     1       5.067  -7.865   5.866  0.00  0.00    -0.013 C 
ATOM     32  C   UNL     1       6.140  -9.068   3.958  0.00  0.00    -0.013 C 
ENDBRANCH  27  30
ENDBRANCH  20  21
ENDBRANCH   2  20
TORSDOF 6
