REMARK  Name = ZINC47037016
REMARK  7 active torsions:
REMARK  status: ('A' for Active; 'I' for Inactive)
REMARK    1  A    between atoms: C_1  and  C_2
REMARK    2  A    between atoms: C_2  and  C_3
REMARK    3  A    between atoms: C_2  and  C_4
REMARK    4  A    between atoms: N_6  and  C_7
REMARK    5  A    between atoms: C_10  and  N_13
REMARK    6  A    between atoms: N_16  and  C_17
REMARK    7  A    between atoms: C_17  and  C_18
REMARK                            x       y       z     vdW  Elec       q    Type
REMARK                         _______ _______ _______ _____ _____    ______ ____
ROOT
ATOM      1  C   UNL     1      -2.965  -2.299  -0.091  0.00  0.00    +0.034 A 
ATOM      2  C   UNL     1      -3.990  -1.365  -0.169  0.00  0.00    +0.025 A 
ATOM      3  C   UNL     1      -5.303  -1.786  -0.241  0.00  0.00    +0.025 A 
ATOM      4  C   UNL     1      -5.598  -3.143  -0.236  0.00  0.00    +0.035 A 
ATOM      5  C   UNL     1      -4.573  -4.077  -0.159  0.00  0.00    +0.025 A 
ATOM      6  C   UNL     1      -3.260  -3.656  -0.093  0.00  0.00    +0.025 A 
ENDROOT
BRANCH   4   7
ATOM      7  N   UNL     1      -6.931  -3.570  -0.309  0.00  0.00    -0.269 N 
ATOM      8  C   UNL     1      -7.322  -4.674   0.358  0.00  0.00    +0.304 C 
ATOM      9  O   UNL     1      -6.503  -5.346   0.954  0.00  0.00    -0.252 OA
ATOM     10  N   UNL     1      -8.621  -5.032   0.363  0.00  0.00    -0.295 N 
ATOM     11  H   UNL     1      -7.572  -3.071  -0.840  0.00  0.00    +0.156 HD
ATOM     12  H   UNL     1      -9.275  -4.496  -0.112  0.00  0.00    +0.151 HD
BRANCH  10  13
ATOM     13  C   UNL     1      -9.047  -6.232   1.089  0.00  0.00    +0.148 C 
BRANCH  13  14
ATOM     14  C   UNL     1     -10.536  -6.408   0.938  0.00  0.00    +0.008 A 
ATOM     15  C   UNL     1     -11.223  -7.091  -0.009  0.00  0.00    +0.028 A 
ATOM     16  C   UNL     1     -12.604  -7.117   0.052  0.00  0.00    +0.025 A 
ATOM     17  C   UNL     1     -13.230  -6.458   1.059  0.00  0.00    +0.060 A 
ATOM     18  S   UNL     1     -11.852  -5.778   1.967  0.00  0.00    -0.099 S 
ATOM     19 BR   UNL     1     -13.606  -8.056  -1.249  0.00  0.00    -0.050 Br
ENDBRANCH  13  14
ENDBRANCH  10  13
ENDBRANCH   4   7
BRANCH   1  22
ATOM     20  C   UNL     1      -0.662  -2.584  -0.625  0.00  0.00    +0.220 C 
ATOM     21  O   UNL     1      -0.929  -3.638  -1.163  0.00  0.00    -0.275 OA
ATOM     22  N   UNL     1      -1.633  -1.872  -0.018  0.00  0.00    -0.285 N 
ATOM     23  H   UNL     1      -1.409  -1.064   0.470  0.00  0.00    +0.155 HD
BRANCH  20  25
ATOM     24  C   UNL     1       1.650  -3.061  -1.382  0.00  0.00    +0.017 C 
ATOM     25  C   UNL     1       0.754  -2.071  -0.635  0.00  0.00    +0.069 C 
ATOM     26  C   UNL     1       0.800  -0.712  -1.336  0.00  0.00    +0.017 C 
ENDBRANCH  20  25
ENDBRANCH   1  22
TORSDOF 5
