REMARK  Name = ZINC48443155
REMARK  5 active torsions:
REMARK  status: ('A' for Active; 'I' for Inactive)
REMARK    1  A    between atoms: C_1  and  C_2
REMARK    2  A    between atoms: C_4  and  C_18
REMARK    3  A    between atoms: C_6  and  N_8
REMARK    4  A    between atoms: N_8  and  C_9
REMARK    5  A    between atoms: C_10  and  C_12
REMARK                            x       y       z     vdW  Elec       q    Type
REMARK                         _______ _______ _______ _____ _____    ______ ____
ROOT
ATOM      1  N   UNL     1      -0.170  -2.774   2.474  0.00  0.00    -0.270 N 
ATOM      2  C   UNL     1      -0.499  -4.180   2.718  0.00  0.00    +0.138 C 
ATOM      3  C   UNL     1       0.196  -1.979   3.499  0.00  0.00    +0.257 C 
ATOM      4  O   UNL     1       0.378  -0.790   3.313  0.00  0.00    -0.269 OA
ENDROOT
BRANCH   1  10
ATOM      5  C   UNL     1       0.020   1.096  -0.552  0.00  0.00    +0.044 C 
ATOM      6  C   UNL     1      -0.145  -0.384  -0.319  0.00  0.00    -0.048 A 
ATOM      7  C   UNL     1      -0.361  -1.231  -1.391  0.00  0.00    +0.006 A 
ATOM      8  C   UNL     1      -0.514  -2.590  -1.182  0.00  0.00    -0.048 A 
ATOM      9  C   UNL     1      -0.451  -3.104   0.098  0.00  0.00    +0.027 A 
ATOM     10  C   UNL     1      -0.234  -2.256   1.176  0.00  0.00    +0.037 A 
ATOM     11  C   UNL     1      -0.075  -0.893   0.963  0.00  0.00    +0.027 A 
ATOM     12  C   UNL     1      -0.749  -3.509  -2.352  0.00  0.00    +0.044 C 
ENDBRANCH   1  10
BRANCH   3  13
ATOM     13  C   UNL     1       0.373  -2.546   4.838  0.00  0.00    +0.075 A 
ATOM     14  C   UNL     1       0.622  -1.895   6.037  0.00  0.00    +0.022 A 
ATOM     15  C   UNL     1       0.742  -2.704   7.141  0.00  0.00    +0.024 A 
ATOM     16  C   UNL     1       0.614  -4.047   6.992  0.00  0.00    +0.056 A 
ATOM     17  S   UNL     1       0.318  -4.253   5.351  0.00  0.00    -0.077 S 
ATOM     18 BR   UNL     1       0.732  -5.380   8.328  0.00  0.00    -0.043 Br
ENDBRANCH   3  13
TORSDOF 2
