REMARK  Name = ZINC20617429
REMARK  11 active torsions:
REMARK  status: ('A' for Active; 'I' for Inactive)
REMARK    1  A    between atoms: C_1  and  C_2
REMARK    2  A    between atoms: C_2  and  C_3
REMARK    3  A    between atoms: C_3  and  C_5
REMARK    4  A    between atoms: C_3  and  N_16
REMARK    5  A    between atoms: N_7  and  C_8
REMARK    6  A    between atoms: C_12  and  C_15
REMARK    7  A    between atoms: C_13  and  C_14
REMARK    8  A    between atoms: C_19  and  C_21
REMARK    9  A    between atoms: N_23  and  C_24
REMARK   10  A    between atoms: C_28  and  C_31
REMARK   11  A    between atoms: C_29  and  C_30
REMARK                            x       y       z     vdW  Elec       q    Type
REMARK                         _______ _______ _______ _____ _____    ______ ____
ROOT
ATOM      1  N   UNL     1       0.499   0.604   2.436  0.00  0.00    -0.259 N 
ATOM      2  C   UNL     1       0.572  -0.691   2.813  0.00  0.00    +0.110 A 
ATOM      3  C   UNL     1       1.493  -0.769   3.802  0.00  0.00    +0.054 A 
ATOM      4  C   UNL     1       1.955   0.554   3.994  0.00  0.00    +0.147 A 
ATOM      5  N   UNL     1       1.308   1.316   3.135  0.00  0.00    -0.166 NA
ENDROOT
BRANCH   4   6
ATOM      6  C   UNL     1       2.969   0.998   4.972  0.00  0.00    +0.268 C 
ATOM      7  O   UNL     1       3.494   0.189   5.713  0.00  0.00    -0.268 OA
ATOM      8  N   UNL     1       3.312   2.299   5.044  0.00  0.00    -0.280 N 
ATOM      9  H   UNL     1       2.902   3.017   4.318  0.00  0.00    +0.155 HD
BRANCH   8  10
ATOM     10  C   UNL     1       4.190   2.737   6.041  0.00  0.00    +0.037 A 
ATOM     11  C   UNL     1       4.328   2.008   7.215  0.00  0.00    +0.023 A 
ATOM     12  C   UNL     1       5.196   2.443   8.197  0.00  0.00    +0.002 A 
ATOM     13  C   UNL     1       5.927   3.603   8.013  0.00  0.00    +0.004 A 
ATOM     14  C   UNL     1       5.791   4.331   6.845  0.00  0.00    -0.046 A 
ATOM     15  C   UNL     1       4.928   3.898   5.856  0.00  0.00    -0.026 A 
ATOM     16  C   UNL     1       4.785   4.689   4.581  0.00  0.00    +0.046 C 
ATOM     17  C   UNL     1       6.589   5.593   6.648  0.00  0.00    +0.044 C 
ENDBRANCH   8  10
ENDBRANCH   4   6
BRANCH   1  18
ATOM     18  C   UNL     1      -0.379   1.122   1.384  0.00  0.00    +0.193 C 
BRANCH  18  19
ATOM     19  C   UNL     1      -1.674   0.350   1.386  0.00  0.00    +0.242 C 
ATOM     20  O   UNL     1      -1.885  -0.479   2.246  0.00  0.00    -0.273 OA
ATOM     21  N   UNL     1      -2.597   0.581   0.432  0.00  0.00    -0.284 N 
ATOM     22  H   UNL     1      -2.373   1.270  -0.395  0.00  0.00    +0.155 HD
BRANCH  21  23
ATOM     23  C   UNL     1      -3.842  -0.056   0.494  0.00  0.00    +0.037 A 
ATOM     24  C   UNL     1      -4.277  -0.618   1.687  0.00  0.00    +0.023 A 
ATOM     25  C   UNL     1      -5.506  -1.246   1.745  0.00  0.00    +0.002 A 
ATOM     26  C   UNL     1      -6.303  -1.315   0.617  0.00  0.00    +0.004 A 
ATOM     27  C   UNL     1      -5.872  -0.755  -0.573  0.00  0.00    -0.046 A 
ATOM     28  C   UNL     1      -4.647  -0.121  -0.636  0.00  0.00    -0.026 A 
ATOM     29  C   UNL     1      -4.181   0.493  -1.930  0.00  0.00    +0.046 C 
ATOM     30  C   UNL     1      -6.744  -0.832  -1.799  0.00  0.00    +0.044 C 
ENDBRANCH  21  23
ENDBRANCH  18  19
BRANCH  18  32
ATOM     31  C   UNL     1       1.529   1.882  -0.038  0.00  0.00    +0.006 C 
ATOM     32  C   UNL     1       0.305   0.966   0.025  0.00  0.00    +0.033 C 
ENDBRANCH  18  32
ENDBRANCH   1  18
TORSDOF 6
