REMARK  Name = ZINC66123086
REMARK  9 active torsions:
REMARK  status: ('A' for Active; 'I' for Inactive)
REMARK    1  A    between atoms: C_1  and  C_2
REMARK    2  A    between atoms: C_7  and  C_8
REMARK    3  A    between atoms: N_10  and  N_11
REMARK    4  A    between atoms: N_11  and  C_12
REMARK    5  A    between atoms: C_12  and  N_14
REMARK    6  A    between atoms: N_14  and  C_15
REMARK    7  A    between atoms: C_20  and  C_21
REMARK    8  A    between atoms: C_21  and  C_22
REMARK    9  A    between atoms: C_21  and  C_23
REMARK                            x       y       z     vdW  Elec       q    Type
REMARK                         _______ _______ _______ _____ _____    ______ ____
ROOT
ATOM      1  C   UNL     1       0.621  -0.548   2.356  0.00  0.00    +0.277 C 
ATOM      2  O   UNL     1       0.352   0.622   2.553  0.00  0.00    -0.267 OA
ATOM      3  N   UNL     1       0.528  -1.439   3.362  0.00  0.00    -0.230 N 
ATOM      4  H   UNL     1       0.742  -2.372   3.205  0.00  0.00    +0.173 HD
ENDROOT
BRANCH   1  11
ATOM      5  C   UNL     1       0.924   1.294  -0.151  0.00  0.00    +0.047 C 
ATOM      6  C   UNL     1       1.182  -0.189  -0.079  0.00  0.00    -0.010 A 
ATOM      7  C   UNL     1       1.612  -1.015  -1.125  0.00  0.00    +0.042 A 
ATOM      8  C   UNL     1       1.720  -2.312  -0.623  0.00  0.00    +0.027 A 
ATOM      9  N   UNL     1       1.377  -2.283   0.665  0.00  0.00    -0.354 N 
ATOM     10  H   UNL     1       1.365  -3.049   1.260  0.00  0.00    +0.166 HD
ATOM     11  C   UNL     1       1.048  -0.989   1.021  0.00  0.00    +0.107 A 
ATOM     12  C   UNL     1       2.154  -3.483  -1.467  0.00  0.00    +0.054 C 
ATOM     13  C   UNL     1       1.948  -3.143  -2.946  0.00  0.00    +0.014 C 
ATOM     14  C   UNL     1       2.625  -1.814  -3.296  0.00  0.00    +0.080 C 
ATOM     15  C   UNL     1       1.928  -0.702  -2.527  0.00  0.00    +0.165 C 
ATOM     16  O   UNL     1       1.652   0.365  -3.033  0.00  0.00    -0.292 OA
ENDBRANCH   1  11
BRANCH   3  17
ATOM     17  N   UNL     1       0.121  -1.019   4.635  0.00  0.00    -0.245 N 
ATOM     18  H   UNL     1      -0.093  -0.086   4.792  0.00  0.00    +0.172 HD
BRANCH  17  19
ATOM     19  C   UNL     1       0.028  -1.910   5.641  0.00  0.00    +0.151 C 
ATOM     20  S   UNL     1      -0.469  -1.396   7.197  0.00  0.00    -0.017 S 
BRANCH  19  21
ATOM     21  N   UNL     1       0.326  -3.207   5.423  0.00  0.00    -0.296 N 
ATOM     22  H   UNL     1       0.530  -3.513   4.526  0.00  0.00    +0.154 HD
BRANCH  21  23
ATOM     23  C   UNL     1       0.341  -4.110   6.491  0.00  0.00    +0.036 A 
ATOM     24  C   UNL     1       0.953  -3.763   7.688  0.00  0.00    +0.023 A 
ATOM     25  C   UNL     1       0.966  -4.657   8.741  0.00  0.00    +0.002 A 
ATOM     26  C   UNL     1       0.369  -5.897   8.603  0.00  0.00    +0.000 A 
ATOM     27  C   UNL     1      -0.242  -6.246   7.413  0.00  0.00    +0.006 A 
ATOM     28  C   UNL     1      -0.263  -5.354   6.359  0.00  0.00    -0.024 A 
BRANCH  28  29
ATOM     29  C   UNL     1      -0.933  -5.733   5.063  0.00  0.00    +0.015 C 
ATOM     30  C   UNL     1      -0.242  -6.962   4.471  0.00  0.00    +0.012 C 
ATOM     31  C   UNL     1      -2.406  -6.053   5.327  0.00  0.00    +0.012 C 
ENDBRANCH  28  29
ENDBRANCH  21  23
ENDBRANCH  19  21
ENDBRANCH  17  19
ENDBRANCH   3  17
TORSDOF 6
