REMARK  Name = ZINC42333774
REMARK  4 active torsions:
REMARK  status: ('A' for Active; 'I' for Inactive)
REMARK    1  A    between atoms: C_1  and  C_2
REMARK    2  A    between atoms: C_5  and  C_21
REMARK    3  A    between atoms: N_8  and  C_10
REMARK    4  A    between atoms: C_10  and  C_18
REMARK                            x       y       z     vdW  Elec       q    Type
REMARK                         _______ _______ _______ _____ _____    ______ ____
ROOT
ATOM      1  C   UNL     1       1.534  -2.461   2.390  0.00  0.00    +0.041 C 
ATOM      2  C   UNL     1       2.972  -2.032   2.661  0.00  0.00    +0.022 C 
ATOM      3  C   UNL     1       3.492  -2.716   3.929  0.00  0.00    +0.165 C 
ATOM      4  S   UNL     1       2.498  -2.161   5.345  0.00  0.00    -0.031 S 
ATOM      5  O   UNL     1       2.644  -0.753   5.475  0.00  0.00    -0.174 OA
ATOM      6  O   UNL     1       2.794  -2.993   6.458  0.00  0.00    -0.174 OA
ATOM      7  C   UNL     1       0.807  -2.518   4.785  0.00  0.00    +0.165 C 
ATOM      8  C   UNL     1       0.587  -1.856   3.422  0.00  0.00    +0.022 C 
ENDROOT
BRANCH   1  14
ATOM      9  C   UNL     1       0.787   1.461  -0.443  0.00  0.00    +0.005 C 
ATOM     10  C   UNL     1       0.798  -0.069  -0.406  0.00  0.00    -0.031 C 
ATOM     11  C   UNL     1      -0.581  -0.600  -0.807  0.00  0.00    +0.003 C 
ATOM     12  C   UNL     1      -0.582  -2.127  -0.692  0.00  0.00    -0.031 C 
ATOM     13  C   UNL     1      -0.200  -2.525   0.735  0.00  0.00    -0.074 C 
ATOM     14  N   UNL     1       1.139  -2.010   1.049  0.00  0.00    +0.391 N 
ATOM     15  C   UNL     1       1.131  -0.543   1.010  0.00  0.00    -0.074 C 
ATOM     16  C   UNL     1      -1.978  -2.663  -1.016  0.00  0.00    +0.005 C 
ATOM     17  H   UNL     1       1.800  -2.360   0.371  0.00  0.00    -0.080 HD
ENDBRANCH   1  14
BRANCH   1  18
ATOM     18  C   UNL     1       1.444  -3.964   2.455  0.00  0.00    +0.346 C 
ATOM     19  O   UNL     1       2.316  -4.649   1.948  0.00  0.00    -0.248 OA
ATOM     20  O   UNL     1       0.499  -4.495   3.014  0.00  0.00    -0.248 OA
ENDBRANCH   1  18
TORSDOF 2
