REMARK  Name = ZINC63912036
REMARK  6 active torsions:
REMARK  status: ('A' for Active; 'I' for Inactive)
REMARK    1  A    between atoms: C_1  and  N_2
REMARK    2  A    between atoms: C_3  and  C_5
REMARK    3  A    between atoms: C_10  and  N_11
REMARK    4  A    between atoms: N_11  and  S_12
REMARK    5  A    between atoms: S_12  and  C_15
REMARK    6  A    between atoms: C_18  and  N_20
REMARK                            x       y       z     vdW  Elec       q    Type
REMARK                         _______ _______ _______ _____ _____    ______ ____
ROOT
ATOM      1  C   UNL     1       0.605  -2.139  -1.026  0.00  0.00    +0.062 A 
ATOM      2  C   UNL     1       0.016  -2.856   0.019  0.00  0.00    +0.035 A 
ATOM      3  C   UNL     1       0.038  -4.234   0.005  0.00  0.00    +0.042 A 
ATOM      4  C   UNL     1       0.643  -4.914  -1.041  0.00  0.00    +0.022 A 
ATOM      5  C   UNL     1       1.229  -4.220  -2.079  0.00  0.00    +0.029 A 
ATOM      6  C   UNL     1       1.211  -2.831  -2.086  0.00  0.00    +0.086 A 
ATOM      7 CL   UNL     1      -0.694  -5.122   1.305  0.00  0.00    -0.084 Cl
ENDROOT
BRANCH   1  10
ATOM      8  C   UNL     1      -0.018   1.461   0.010  0.00  0.00    +0.128 C 
ATOM      9  N   UNL     1       0.002  -0.004   0.002  0.00  0.00    -0.314 N 
ATOM     10  C   UNL     1       0.585  -0.664  -1.018  0.00  0.00    +0.246 C 
ATOM     11  O   UNL     1       1.095  -0.044  -1.932  0.00  0.00    -0.270 OA
ATOM     12  H   UNL     1      -0.404  -0.499   0.731  0.00  0.00    +0.149 HD
ENDBRANCH   1  10
BRANCH   6  13
ATOM     13  N   UNL     1       1.795  -2.130  -3.134  0.00  0.00    -0.097 NA
BRANCH  13  14
ATOM     14  S   UNL     1       2.509  -2.950  -4.383  0.00  0.00    +0.098 S 
ATOM     15  O   UNL     1       3.638  -3.618  -3.837  0.00  0.00    -0.148 OA
ATOM     16  O   UNL     1       1.469  -3.642  -5.061  0.00  0.00    -0.148 OA
BRANCH  14  17
ATOM     17  C   UNL     1       3.131  -1.747  -5.509  0.00  0.00    +0.150 A 
ATOM     18  C   UNL     1       4.352  -1.158  -5.540  0.00  0.00    +0.039 A 
ATOM     19  C   UNL     1       4.623  -0.229  -6.527  0.00  0.00    +0.042 A 
ATOM     20  C   UNL     1       3.660   0.065  -7.435  0.00  0.00    +0.165 A 
ATOM     21  S   UNL     1       2.321  -0.992  -6.909  0.00  0.00    -0.044 S 
BRANCH  20  22
ATOM     22  N   UNL     1       3.709   1.013  -8.571  0.00  0.00    +0.063 N 
ATOM     23  O   UNL     1       4.714   1.651  -8.784  0.00  0.00    -0.126 OA
ATOM     24  O   UNL     1       2.744   1.149  -9.287  0.00  0.00    -0.126 OA
ENDBRANCH  20  22
ENDBRANCH  14  17
ENDBRANCH  13  14
ENDBRANCH   6  13
TORSDOF 5
