REMARK  Name = ZINC04883961
REMARK  10 active torsions:
REMARK  status: ('A' for Active; 'I' for Inactive)
REMARK    1  A    between atoms: C_1  and  C_2
REMARK    2  A    between atoms: C_2  and  C_3
REMARK    3  A    between atoms: C_3  and  C_4
REMARK    4  A    between atoms: C_4  and  C_24
REMARK    5  A    between atoms: C_9  and  C_11
REMARK    6  A    between atoms: C_14  and  O_17
REMARK    7  A    between atoms: N_20  and  C_23
REMARK    8  A    between atoms: C_24  and  O_26
REMARK    9  A    between atoms: O_26  and  C_27
REMARK   10  A    between atoms: C_27  and  C_28
REMARK                            x       y       z     vdW  Elec       q    Type
REMARK                         _______ _______ _______ _____ _____    ______ ____
ROOT
ATOM      1  C   UNL     1      -1.797   2.574   0.795  0.00  0.00    +0.044 C 
ATOM      2  C   UNL     1      -0.772   1.591   1.399  0.00  0.00    +0.086 C 
ATOM      3  C   UNL     1      -0.051   0.967   0.174  0.00  0.00    +0.077 C 
ATOM      4  C   UNL     1      -0.701   1.619  -1.063  0.00  0.00    -0.027 C 
ATOM      5  C   UNL     1       1.369   1.469   0.313  0.00  0.00    +0.224 C 
ATOM      6  O   UNL     1       2.279   1.215  -0.447  0.00  0.00    -0.275 OA
ATOM      7  N   UNL     1       1.464   2.237   1.404  0.00  0.00    -0.245 N 
ATOM      8  C   UNL     1       0.322   2.373   2.088  0.00  0.00    +0.225 C 
ATOM      9  O   UNL     1       0.187   3.023   3.103  0.00  0.00    -0.275 OA
ATOM     10  C   UNL     1       2.716   2.876   1.817  0.00  0.00    +0.141 C 
ATOM     11  N   UNL     1      -1.249   2.885  -0.526  0.00  0.00    +0.395 N 
ATOM     12  H   UNL     1      -0.504   3.587  -0.444  0.00  0.00    -0.083 HD
ATOM     13  H   UNL     1      -1.989   3.241  -1.142  0.00  0.00    -0.083 HD
ENDROOT
BRANCH   4  14
ATOM     14  C   UNL     1       0.335   1.876  -2.127  0.00  0.00    -0.060 A 
ATOM     15  C   UNL     1       1.156   2.984  -2.038  0.00  0.00    +0.005 A 
ATOM     16  C   UNL     1       2.110   3.218  -3.010  0.00  0.00    +0.045 A 
ATOM     17  C   UNL     1       2.236   2.346  -4.081  0.00  0.00    +0.117 A 
ATOM     18  C   UNL     1       1.406   1.238  -4.171  0.00  0.00    +0.045 A 
ATOM     19  C   UNL     1       0.458   1.005  -3.194  0.00  0.00    +0.005 A 
BRANCH  17  20
ATOM     20  O   UNL     1       3.169   2.578  -5.042  0.00  0.00    -0.507 OA
ATOM     21  H   UNL     1       2.852   3.121  -5.776  0.00  0.00    +0.292 HD
ENDBRANCH  17  20
ENDBRANCH   4  14
BRANCH   1  22
ATOM     22  C   UNL     1      -1.907   3.809   1.653  0.00  0.00    +0.297 C 
ATOM     23  O   UNL     1      -2.748   3.871   2.518  0.00  0.00    -0.252 OA
BRANCH  22  24
ATOM     24  O   UNL     1      -1.070   4.840   1.455  0.00  0.00    -0.466 OA
BRANCH  24  25
ATOM     25  C   UNL     1      -1.234   5.997   2.317  0.00  0.00    +0.228 C 
ATOM     26  C   UNL     1      -0.200   7.061   1.945  0.00  0.00    +0.048 C 
ENDBRANCH  24  25
ENDBRANCH  22  24
ENDBRANCH   1  22
BRANCH   1  27
ATOM     27  C   UNL     1      -3.163   1.901   0.655  0.00  0.00    -0.001 C 
BRANCH  27  29
ATOM     28  C   UNL     1      -5.495   2.177  -0.199  0.00  0.00    +0.004 C 
ATOM     29  C   UNL     1      -4.129   2.850  -0.058  0.00  0.00    -0.004 C 
ENDBRANCH  27  29
ENDBRANCH   1  27
TORSDOF 7
