REMARK  Name = ZINC50351525
REMARK  4 active torsions:
REMARK  status: ('A' for Active; 'I' for Inactive)
REMARK    1  A    between atoms: C_3  and  C_18
REMARK    2  A    between atoms: N_5  and  S_7
REMARK    3  A    between atoms: S_7  and  C_10
REMARK    4  A    between atoms: C_18  and  O_19
REMARK                            x       y       z     vdW  Elec       q    Type
REMARK                         _______ _______ _______ _____ _____    ______ ____
ROOT
ATOM      1  S   UNL     1       1.349  -1.487  -2.018  0.00  0.00    +0.035 S 
ATOM      2  O   UNL     1       0.068  -1.920  -2.453  0.00  0.00    -0.158 OA
ATOM      3  O   UNL     1       2.277  -0.931  -2.940  0.00  0.00    -0.158 OA
ENDROOT
BRANCH   1   4
ATOM      4  C   UNL     1       2.147  -2.786  -1.035  0.00  0.00    +0.151 C 
ATOM      5  C   UNL     1       3.351  -2.196  -0.306  0.00  0.00    +0.050 C 
ATOM      6  C   UNL     1       3.875  -3.194   0.730  0.00  0.00    +0.168 C 
ATOM      7  S   UNL     1       4.457  -4.685  -0.131  0.00  0.00    -0.031 S 
ATOM      8  O   UNL     1       5.512  -4.317  -1.008  0.00  0.00    -0.174 OA
ATOM      9  O   UNL     1       4.680  -5.705   0.832  0.00  0.00    -0.174 OA
ATOM     10  C   UNL     1       3.006  -5.135  -1.130  0.00  0.00    +0.168 C 
ATOM     11  C   UNL     1       2.579  -3.921  -1.959  0.00  0.00    +0.050 C 
ENDBRANCH   1   4
BRANCH   1  15
ATOM     12  C   UNL     1       1.548   1.375   0.728  0.00  0.00    +0.019 C 
ATOM     13  C   UNL     1       0.021   1.105   0.781  0.00  0.00    +0.024 C 
ATOM     14  C   UNL     1      -0.132  -0.180  -0.059  0.00  0.00    +0.105 C 
ATOM     15  N   UNL     1       1.040  -0.267  -0.941  0.00  0.00    -0.176 NA
ATOM     16  C   UNL     1       1.896   0.910  -0.708  0.00  0.00    +0.109 C 
BRANCH  14  17
ATOM     17  C   UNL     1      -1.412  -0.107  -0.894  0.00  0.00    +0.176 C 
BRANCH  17  18
ATOM     18  O   UNL     1      -1.385   1.070  -1.704  0.00  0.00    -0.393 OA
ATOM     19  H   UNL     1      -2.167   1.182  -2.261  0.00  0.00    +0.209 HD
ENDBRANCH  17  18
ENDBRANCH  14  17
ENDBRANCH   1  15
TORSDOF 4
