REMARK  Name = ZINC07057309
REMARK  5 active torsions:
REMARK  status: ('A' for Active; 'I' for Inactive)
REMARK    1  A    between atoms: C_1  and  C_2
REMARK    2  A    between atoms: C_2  and  C_4
REMARK    3  A    between atoms: C_2  and  O_15
REMARK    4  A    between atoms: O_15  and  C_16
REMARK    5  A    between atoms: C_16  and  C_18
REMARK                            x       y       z     vdW  Elec       q    Type
REMARK                         _______ _______ _______ _____ _____    ______ ____
ROOT
ATOM      1  O   UNL     1      -4.811   1.641  -0.120  0.00  0.00    -0.449 OA
ENDROOT
BRANCH   1   3
ATOM      2  C   UNL     1      -6.374   2.451   1.563  0.00  0.00    +0.062 C 
ATOM      3  C   UNL     1      -6.054   2.369   0.069  0.00  0.00    +0.259 C 
BRANCH   3   4
ATOM      4  C   UNL     1      -7.170   1.652  -0.645  0.00  0.00    +0.260 C 
ATOM      5  O   UNL     1      -6.980   0.550  -1.116  0.00  0.00    -0.271 OA
ATOM      6  N   UNL     1      -8.380   2.234  -0.761  0.00  0.00    -0.268 N 
ATOM      7  C   UNL     1      -8.704   3.593  -0.319  0.00  0.00    +0.118 C 
ATOM      8  C   UNL     1     -10.188   3.788  -0.670  0.00  0.00    +0.056 C 
ATOM      9  C   UNL     1     -10.606   2.478  -1.297  0.00  0.00    -0.024 A 
ATOM     10  C   UNL     1      -9.511   1.629  -1.316  0.00  0.00    +0.040 A 
ATOM     11  C   UNL     1      -9.656   0.348  -1.854  0.00  0.00    +0.024 A 
ATOM     12  C   UNL     1     -10.873  -0.061  -2.357  0.00  0.00    +0.002 A 
ATOM     13  C   UNL     1     -11.959   0.794  -2.332  0.00  0.00    +0.000 A 
ATOM     14  C   UNL     1     -11.823   2.063  -1.801  0.00  0.00    +0.005 A 
ENDBRANCH   3   4
ENDBRANCH   1   3
BRANCH   1  15
ATOM     15  C   UNL     1      -3.674   2.363  -0.124  0.00  0.00    +0.340 C 
ATOM     16  O   UNL     1      -3.719   3.568   0.026  0.00  0.00    -0.245 OA
BRANCH  15  17
ATOM     17  C   UNL     1      -2.376   1.692  -0.311  0.00  0.00    +0.060 A 
ATOM     18  C   UNL     1      -2.312   0.302  -0.486  0.00  0.00    +0.017 A 
ATOM     19  C   UNL     1      -1.128  -0.335  -0.659  0.00  0.00    +0.030 A 
ATOM     20  C   UNL     1       0.094   0.382  -0.671  0.00  0.00    +0.080 A 
ATOM     21  C   UNL     1       0.004   1.785  -0.494  0.00  0.00    +0.042 A 
ATOM     22  C   UNL     1      -1.187   2.432  -0.314  0.00  0.00    +0.032 A 
ATOM     23  S   UNL     1       1.706   2.287  -0.571  0.00  0.00    -0.053 S 
ATOM     24  C   UNL     1       2.408   0.663  -0.824  0.00  0.00    +0.157 A 
ATOM     25  N   UNL     1       1.340  -0.106  -0.831  0.00  0.00    -0.225 NA
ATOM     26  N   UNL     1       3.730   0.306  -0.976  0.00  0.00    -0.337 N 
ATOM     27  H   UNL     1       4.001  -0.749  -1.125  0.00  0.00    +0.144 HD
ATOM     28  H   UNL     1       4.514   1.077  -0.946  0.00  0.00    +0.144 HD
ENDBRANCH  15  17
ENDBRANCH   1  15
TORSDOF 4
