REMARK  Name = ZINC39711264
REMARK  14 active torsions:
REMARK  status: ('A' for Active; 'I' for Inactive)
REMARK    1  A    between atoms: C_1  and  C_2
REMARK    2  A    between atoms: C_6  and  C_15
REMARK    3  A    between atoms: C_13  and  C_14
REMARK    4  A    between atoms: C_15  and  C_17
REMARK    5  A    between atoms: C_15  and  N_27
REMARK    6  A    between atoms: N_22  and  C_23
REMARK    7  A    between atoms: C_23  and  C_24
REMARK    8  A    between atoms: C_23  and  C_25
REMARK    9  A    between atoms: C_23  and  C_26
REMARK   10  A    between atoms: N_27  and  C_28
REMARK   11  A    between atoms: N_27  and  C_36
REMARK   12  A    between atoms: C_28  and  C_29
REMARK   13  A    between atoms: C_29  and  C_30
REMARK   14  A    between atoms: C_36  and  C_37
REMARK                            x       y       z     vdW  Elec       q    Type
REMARK                         _______ _______ _______ _____ _____    ______ ____
ROOT
ATOM      1  C   UNL     1       1.014  -5.015  -2.810  0.00  0.00    +0.115 C 
ENDROOT
BRANCH   1   7
ATOM      2  C   UNL     1      -2.526  -8.539   2.295  0.00  0.00    +0.044 C 
ATOM      3  C   UNL     1      -2.435  -7.803   0.982  0.00  0.00    -0.047 A 
ATOM      4  C   UNL     1      -1.403  -6.945   0.772  0.00  0.00    +0.013 A 
ATOM      5  C   UNL     1      -1.325  -6.237  -0.506  0.00  0.00    -0.007 A 
ATOM      6  C   UNL     1      -0.307  -5.366  -0.762  0.00  0.00    -0.003 C 
ATOM      7  C   UNL     1      -0.305  -4.677  -2.113  0.00  0.00    +0.119 C 
ATOM      8  C   UNL     1      -1.431  -5.011  -3.065  0.00  0.00    +0.226 C 
ATOM      9  O   UNL     1      -1.479  -4.488  -4.162  0.00  0.00    -0.275 OA
ATOM     10  N   UNL     1      -2.364  -5.875  -2.701  0.00  0.00    -0.284 N 
ATOM     11  C   UNL     1      -2.370  -6.483  -1.515  0.00  0.00    +0.041 A 
ATOM     12  C   UNL     1      -3.395  -7.393  -1.196  0.00  0.00    +0.027 A 
ATOM     13  C   UNL     1      -3.409  -8.023   0.007  0.00  0.00    -0.046 A 
ATOM     14  C   UNL     1      -4.523  -8.993   0.304  0.00  0.00    +0.044 C 
ATOM     15  H   UNL     1      -3.078  -6.076  -3.327  0.00  0.00    +0.155 HD
ENDBRANCH   1   7
BRANCH   1  16
ATOM     16  C   UNL     1       1.192  -6.534  -2.856  0.00  0.00    +0.236 C 
ATOM     17  N   UNL     1       1.497  -7.055  -1.516  0.00  0.00    -0.148 NA
ATOM     18  N   UNL     1       2.605  -7.594  -1.540  0.00  0.00    -0.069 NA
ATOM     19  N   UNL     1       3.207  -7.541  -2.797  0.00  0.00    -0.179 N 
ATOM     20  N   UNL     1       2.373  -6.890  -3.672  0.00  0.00    -0.179 NA
ATOM     21  H   UNL     1       4.077  -7.908  -3.019  0.00  0.00    +0.191 HD
BRANCH  20  22
ATOM     22  C   UNL     1       1.994  -7.763  -4.791  0.00  0.00    +0.035 C 
ATOM     23  C   UNL     1       0.982  -7.040  -5.682  0.00  0.00    +0.029 C 
ATOM     24  C   UNL     1       3.239  -8.109  -5.611  0.00  0.00    +0.029 C 
ATOM     25  C   UNL     1       1.368  -9.048  -4.247  0.00  0.00    +0.029 C 
ENDBRANCH  20  22
ENDBRANCH   1  16
BRANCH   1  26
ATOM     26  N   UNL     1       2.129  -4.413  -2.067  0.00  0.00    -0.290 NA
BRANCH  26  27
ATOM     27  C   UNL     1       3.367  -4.445  -2.857  0.00  0.00    +0.090 C 
BRANCH  27  28
ATOM     28  C   UNL     1       3.212  -3.543  -4.083  0.00  0.00    +0.050 C 
BRANCH  28  29
ATOM     29  C   UNL     1       4.478  -3.583  -4.899  0.00  0.00    -0.046 A 
ATOM     30  C   UNL     1       5.493  -2.680  -4.644  0.00  0.00    +0.003 A 
ATOM     31  C   UNL     1       6.655  -2.716  -5.393  0.00  0.00    +0.000 A 
ATOM     32  C   UNL     1       6.802  -3.656  -6.395  0.00  0.00    +0.000 A 
ATOM     33  C   UNL     1       5.787  -4.560  -6.649  0.00  0.00    +0.000 A 
ATOM     34  C   UNL     1       4.628  -4.526  -5.899  0.00  0.00    +0.003 A 
ENDBRANCH  28  29
ENDBRANCH  27  28
ENDBRANCH  26  27
BRANCH  26  35
ATOM     35  C   UNL     1       1.804  -3.042  -1.651  0.00  0.00    +0.127 C 
BRANCH  35  36
ATOM     36  C   UNL     1       2.929  -2.492  -0.812  0.00  0.00    +0.004 A 
ATOM     37  C   UNL     1       3.977  -1.719  -1.190  0.00  0.00    +0.012 A 
ATOM     38  C   UNL     1       4.899  -1.327  -0.237  0.00  0.00    +0.008 A 
ATOM     39  C   UNL     1       4.728  -1.728   1.046  0.00  0.00    +0.045 A 
ATOM     40  S   UNL     1       3.224  -2.684   0.938  0.00  0.00    -0.100 S 
ENDBRANCH  35  36
ENDBRANCH  26  35
ENDBRANCH   1  26
TORSDOF 9
