REMARK  Name = ZINC13564742
REMARK  6 active torsions:
REMARK  status: ('A' for Active; 'I' for Inactive)
REMARK    1  A    between atoms: C_4  and  N_7
REMARK    2  A    between atoms: C_12  and  C_24
REMARK    3  A    between atoms: C_15  and  C_17
REMARK    4  A    between atoms: C_24  and  N_25
REMARK    5  A    between atoms: N_25  and  C_26
REMARK    6  A    between atoms: C_26  and  C_27
REMARK                            x       y       z     vdW  Elec       q    Type
REMARK                         _______ _______ _______ _____ _____    ______ ____
ROOT
ATOM      1  N   UNL     1       3.620  -0.651  -0.052  0.00  0.00    -0.215 N 
ATOM      2  C   UNL     1       3.784  -2.015   0.062  0.00  0.00    +0.145 A 
ATOM      3  N   UNL     1       2.929  -3.013   0.192  0.00  0.00    -0.307 N 
ATOM      4  C   UNL     1       3.344  -4.278   0.285  0.00  0.00    +0.252 A 
ATOM      5  O   UNL     1       2.520  -5.174   0.405  0.00  0.00    -0.268 OA
ATOM      6  C   UNL     1       4.717  -4.599   0.249  0.00  0.00    +0.001 A 
ATOM      7  C   UNL     1       5.636  -3.605   0.117  0.00  0.00    +0.020 A 
ATOM      8  C   UNL     1       5.176  -2.274   0.020  0.00  0.00    +0.045 A 
ATOM      9  C   UNL     1       5.831  -1.038  -0.121  0.00  0.00    +0.102 A 
ATOM     10  N   UNL     1       4.885  -0.063  -0.170  0.00  0.00    -0.164 NA
ATOM     11  H   UNL     1       1.978  -2.822   0.219  0.00  0.00    +0.170 HD
ENDROOT
BRANCH   9  12
ATOM     12  C   UNL     1       7.286  -0.837  -0.207  0.00  0.00    +0.005 A 
ATOM     13  C   UNL     1       7.905   0.159   0.558  0.00  0.00    +0.010 A 
ATOM     14  C   UNL     1       9.268   0.342   0.473  0.00  0.00    +0.003 A 
ATOM     15  C   UNL     1      10.027  -0.454  -0.368  0.00  0.00    +0.038 A 
ATOM     16  C   UNL     1       9.423  -1.442  -1.130  0.00  0.00    +0.124 A 
ATOM     17  C   UNL     1       8.059  -1.642  -1.050  0.00  0.00    +0.048 A 
ATOM     18  F   UNL     1      10.171  -2.214  -1.948  0.00  0.00    -0.205 F 
ENDBRANCH   9  12
BRANCH   1  22
ATOM     19  C   UNL     1      -0.021   1.372  -0.062  0.00  0.00    +0.000 A 
ATOM     20  C   UNL     1       0.936   1.668  -1.016  0.00  0.00    +0.002 A 
ATOM     21  C   UNL     1       2.144   0.999  -1.016  0.00  0.00    +0.028 A 
ATOM     22  C   UNL     1       2.398   0.028  -0.055  0.00  0.00    +0.068 A 
ATOM     23  C   UNL     1       1.435  -0.266   0.902  0.00  0.00    +0.028 A 
ATOM     24  C   UNL     1       0.229   0.406   0.895  0.00  0.00    +0.002 A 
ENDBRANCH   1  22
BRANCH   6  25
ATOM     25  C   UNL     1       5.163  -6.035   0.357  0.00  0.00    -0.041 C 
BRANCH  25  26
ATOM     26  N   UNL     1       5.258  -6.413   1.773  0.00  0.00    +0.384 N 
ATOM     27  H   UNL     1       5.928  -5.817   2.236  0.00  0.00    -0.085 HD
ATOM     28  H   UNL     1       4.355  -6.308   2.211  0.00  0.00    -0.085 HD
BRANCH  26  29
ATOM     29  C   UNL     1       5.693  -7.812   1.878  0.00  0.00    -0.046 C 
BRANCH  29  30
ATOM     30  C   UNL     1       5.790  -8.200   3.331  0.00  0.00    -0.064 A 
ATOM     31  C   UNL     1       6.976  -8.017   4.018  0.00  0.00    +0.003 A 
ATOM     32  C   UNL     1       7.066  -8.372   5.350  0.00  0.00    +0.020 A 
ATOM     33  C   UNL     1       5.969  -8.912   5.997  0.00  0.00    +0.041 A 
ATOM     34  C   UNL     1       4.782  -9.096   5.310  0.00  0.00    +0.020 A 
ATOM     35  C   UNL     1       4.692  -8.735   3.979  0.00  0.00    +0.003 A 
ATOM     36 CL   UNL     1       6.081  -9.360   7.671  0.00  0.00    -0.084 Cl
ENDBRANCH  29  30
ENDBRANCH  26  29
ENDBRANCH  25  26
ENDBRANCH   6  25
TORSDOF 6
