REMARK  Name = ZINC35825530
REMARK  4 active torsions:
REMARK  status: ('A' for Active; 'I' for Inactive)
REMARK    1  A    between atoms: C_4  and  O_32
REMARK    2  A    between atoms: C_5  and  C_7
REMARK    3  A    between atoms: C_7  and  N_8
REMARK    4  A    between atoms: C_24  and  C_27
REMARK                            x       y       z     vdW  Elec       q    Type
REMARK                         _______ _______ _______ _____ _____    ______ ____
ROOT
ATOM      1  N   UNL     1      -0.790  -2.843   0.342  0.00  0.00    +0.384 N 
ATOM      2  C   UNL     1      -2.133  -3.067   0.894  0.00  0.00    -0.059 C 
ATOM      3  C   UNL     1      -2.079  -2.969   2.422  0.00  0.00    +0.089 C 
ATOM      4  N   UNL     1      -1.056  -3.905   2.914  0.00  0.00    -0.304 N 
ATOM      5  C   UNL     1       0.279  -3.859   2.298  0.00  0.00    +0.089 C 
ATOM      6  C   UNL     1       0.114  -3.915   0.775  0.00  0.00    -0.059 C 
ATOM      7  C   UNL     1      -1.340  -4.797   3.919  0.00  0.00    +0.206 A 
ATOM      8  N   UNL     1      -1.717  -6.006   3.596  0.00  0.00    -0.215 NA
ATOM      9  C   UNL     1      -2.015  -6.944   4.531  0.00  0.00    +0.078 A 
ATOM     10  C   UNL     1      -2.416  -8.231   4.167  0.00  0.00    +0.028 A 
ATOM     11  C   UNL     1      -2.710  -9.158   5.142  0.00  0.00    +0.002 A 
ATOM     12  C   UNL     1      -2.613  -8.828   6.487  0.00  0.00    +0.001 A 
ATOM     13  C   UNL     1      -2.220  -7.564   6.872  0.00  0.00    +0.014 A 
ATOM     14  C   UNL     1      -1.917  -6.612   5.902  0.00  0.00    +0.045 A 
ATOM     15  C   UNL     1      -1.494  -5.252   6.251  0.00  0.00    +0.173 A 
ATOM     16  N   UNL     1      -1.211  -4.385   5.217  0.00  0.00    -0.244 N 
ATOM     17  C   UNL     1      -0.839  -3.209   5.817  0.00  0.00    +0.206 A 
ATOM     18  N   UNL     1      -0.902  -3.402   7.121  0.00  0.00    -0.125 NA
ATOM     19  N   UNL     1      -1.296  -4.601   7.373  0.00  0.00    -0.128 NA
ATOM     20  H   UNL     1      -0.439  -1.956   0.670  0.00  0.00    -0.081 HD
ENDROOT
BRANCH  17  21
ATOM     21  C   UNL     1      -0.445  -1.967   5.136  0.00  0.00    +0.172 A 
ATOM     22  C   UNL     1      -0.998  -0.736   5.331  0.00  0.00    +0.053 A 
ATOM     23  C   UNL     1      -0.318   0.153   4.478  0.00  0.00    +0.042 A 
ATOM     24  C   UNL     1       0.606  -0.567   3.810  0.00  0.00    +0.196 A 
ATOM     25  O   UNL     1       0.531  -1.845   4.215  0.00  0.00    -0.460 OA
ENDBRANCH  17  21
BRANCH   1  26
ATOM     26  C   UNL     1      -0.862  -2.828  -1.125  0.00  0.00    -0.039 C 
BRANCH  26  31
ATOM     27  C   UNL     1      -3.772  -0.759  -2.354  0.00  0.00    +0.000 A 
ATOM     28  C   UNL     1      -3.215   0.505  -2.404  0.00  0.00    +0.004 A 
ATOM     29  C   UNL     1      -1.895   0.695  -2.040  0.00  0.00    +0.045 A 
ATOM     30  C   UNL     1      -1.130  -0.385  -1.625  0.00  0.00    +0.118 A 
ATOM     31  C   UNL     1      -1.691  -1.653  -1.575  0.00  0.00    -0.022 A 
ATOM     32  C   UNL     1      -3.011  -1.837  -1.940  0.00  0.00    +0.005 A 
BRANCH  30  33
ATOM     33  O   UNL     1       0.168  -0.202  -1.267  0.00  0.00    -0.507 OA
ATOM     34  H   UNL     1       0.294  -0.005  -0.328  0.00  0.00    +0.292 HD
ENDBRANCH  30  33
ENDBRANCH  26  31
ENDBRANCH   1  26
TORSDOF 4
