REMARK  Name = ZINC58251727
REMARK  7 active torsions:
REMARK  status: ('A' for Active; 'I' for Inactive)
REMARK    1  A    between atoms: C_1  and  C_2
REMARK    2  A    between atoms: C_5  and  S_22
REMARK    3  A    between atoms: C_7  and  C_8
REMARK    4  A    between atoms: N_10  and  C_11
REMARK    5  A    between atoms: C_14  and  N_17
REMARK    6  A    between atoms: S_22  and  N_25
REMARK    7  A    between atoms: N_25  and  C_26
REMARK                            x       y       z     vdW  Elec       q    Type
REMARK                         _______ _______ _______ _____ _____    ______ ____
ROOT
ATOM      1  C   UNL     1       0.235   0.019   2.482  0.00  0.00    +0.249 C 
ATOM      2  O   UNL     1       0.126   1.230   2.504  0.00  0.00    -0.270 OA
ATOM      3  N   UNL     1       0.459  -0.658   3.626  0.00  0.00    -0.281 N 
ATOM      4  H   UNL     1       0.618  -1.615   3.599  0.00  0.00    +0.155 HD
ENDROOT
BRANCH   1  11
ATOM      5  C   UNL     1      -0.091   1.499   0.017  0.00  0.00    +0.044 C 
ATOM      6  C   UNL     1      -0.036  -0.007   0.006  0.00  0.00    -0.038 A 
ATOM      7  C   UNL     1      -0.136  -0.694  -1.187  0.00  0.00    +0.006 A 
ATOM      8  C   UNL     1      -0.086  -2.076  -1.199  0.00  0.00    +0.029 A 
ATOM      9  C   UNL     1       0.065  -2.780  -0.016  0.00  0.00    +0.106 A 
ATOM     10  C   UNL     1       0.166  -2.106   1.183  0.00  0.00    +0.041 A 
ATOM     11  C   UNL     1       0.121  -0.710   1.201  0.00  0.00    +0.042 A 
BRANCH   9  12
ATOM     12  S   UNL     1       0.128  -4.540  -0.043  0.00  0.00    +0.058 S 
ATOM     13  O   UNL     1      -0.273  -4.981   1.247  0.00  0.00    -0.153 OA
ATOM     14  O   UNL     1      -0.536  -4.953  -1.230  0.00  0.00    -0.153 OA
BRANCH  12  15
ATOM     15  N   UNL     1       1.718  -4.971  -0.216  0.00  0.00    -0.193 NA
ATOM     16  C   UNL     1       2.681  -4.657   0.841  0.00  0.00    +0.127 C 
ATOM     17  H   UNL     1       2.011  -5.431  -1.018  0.00  0.00    +0.148 HD
ENDBRANCH  12  15
ENDBRANCH   9  12
ENDBRANCH   1  11
BRANCH   3  18
ATOM     18  C   UNL     1       0.462   0.018   4.850  0.00  0.00    +0.034 A 
ATOM     19  C   UNL     1      -0.027  -0.606   5.990  0.00  0.00    +0.025 A 
ATOM     20  C   UNL     1      -0.024   0.061   7.198  0.00  0.00    +0.031 A 
ATOM     21  C   UNL     1       0.468   1.358   7.273  0.00  0.00    +0.086 A 
ATOM     22  C   UNL     1       0.957   1.983   6.134  0.00  0.00    +0.031 A 
ATOM     23  C   UNL     1       0.960   1.313   4.927  0.00  0.00    +0.025 A 
BRANCH  21  24
ATOM     24  N   UNL     1       0.470   2.037   8.501  0.00  0.00    -0.150 N 
ATOM     25  N   UNL     1       0.045   1.543   9.609  0.00  0.00    -0.156 NA
ATOM     26  C   UNL     1       0.192   2.443  10.556  0.00  0.00    +0.156 A 
ATOM     27  C   UNL     1       0.755   3.561   9.936  0.00  0.00    +0.156 A 
ATOM     28  N   UNL     1       0.903   3.236   8.672  0.00  0.00    -0.156 NA
ENDBRANCH  21  24
ENDBRANCH   3  18
TORSDOF 5
