REMARK  Name = ZINC04269780
REMARK  8 active torsions:
REMARK  status: ('A' for Active; 'I' for Inactive)
REMARK    1  A    between atoms: C_1  and  C_2
REMARK    2  A    between atoms: C_2  and  O_3
REMARK    3  A    between atoms: O_3  and  C_4
REMARK    4  A    between atoms: C_4  and  C_6
REMARK    5  A    between atoms: C_8  and  C_21
REMARK    6  A    between atoms: N_13  and  C_20
REMARK    7  A    between atoms: C_14  and  C_15
REMARK    8  A    between atoms: C_14  and  O_19
REMARK                            x       y       z     vdW  Elec       q    Type
REMARK                         _______ _______ _______ _____ _____    ______ ____
ROOT
ATOM      1  C   UNL     1       1.382   4.116  -1.411  0.00  0.00    +0.182 C 
ATOM      2  C   UNL     1       1.149   3.593   0.010  0.00  0.00    +0.123 C 
ATOM      3  N   UNL     1       2.209   4.092   0.887  0.00  0.00    -0.291 N 
ATOM      4  C   UNL     1       2.821   5.261   0.646  0.00  0.00    +0.305 C 
ATOM      5  O   UNL     1       3.688   5.636   1.412  0.00  0.00    -0.253 OA
ATOM      6  N   UNL     1       2.515   6.033  -0.407  0.00  0.00    -0.252 N 
ATOM      7  C   UNL     1       1.473   5.645  -1.359  0.00  0.00    +0.248 C 
ATOM      8  C   UNL     1       3.239   7.291  -0.610  0.00  0.00    +0.137 C 
ATOM      9  H   UNL     1       2.474   3.568   1.659  0.00  0.00    +0.151 HD
ENDROOT
BRANCH   2  10
ATOM     10  C   UNL     1       1.171   2.086   0.002  0.00  0.00    -0.026 A 
ATOM     11  C   UNL     1      -0.017   1.378   0.010  0.00  0.00    +0.008 A 
ATOM     12  C   UNL     1       0.002  -0.004   0.002  0.00  0.00    +0.038 A 
ATOM     13  C   UNL     1       1.211  -0.679  -0.013  0.00  0.00    +0.123 A 
ATOM     14  C   UNL     1       2.399   0.031  -0.021  0.00  0.00    +0.038 A 
ATOM     15  C   UNL     1       2.378   1.413  -0.013  0.00  0.00    +0.008 A 
ATOM     16  F   UNL     1       1.230  -2.030  -0.020  0.00  0.00    -0.205 F 
ENDBRANCH   2  10
BRANCH   7  17
ATOM     17  C   UNL     1       0.129   6.222  -0.909  0.00  0.00    +0.437 C 
ATOM     18  F   UNL     1       0.215   7.617  -0.857  0.00  0.00    -0.166 F 
ATOM     19  F   UNL     1      -0.866   5.850  -1.820  0.00  0.00    -0.166 F 
ATOM     20  F   UNL     1      -0.190   5.726   0.359  0.00  0.00    -0.166 F 
ENDBRANCH   7  17
BRANCH   1  21
ATOM     21  C   UNL     1       2.670   3.552  -1.953  0.00  0.00    +0.317 C 
ATOM     22  O   UNL     1       3.563   4.295  -2.283  0.00  0.00    -0.250 OA
BRANCH  21  23
ATOM     23  O   UNL     1       2.825   2.224  -2.070  0.00  0.00    -0.465 OA
BRANCH  23  25
ATOM     24  C   UNL     1       4.081   0.223  -2.658  0.00  0.00    +0.048 C 
ATOM     25  C   UNL     1       4.091   1.751  -2.599  0.00  0.00    +0.229 C 
ENDBRANCH  23  25
ENDBRANCH  21  23
ENDBRANCH   1  21
BRANCH   7  26
ATOM     26  O   UNL     1       1.799   6.148  -2.656  0.00  0.00    -0.364 OA
ATOM     27  H   UNL     1       1.877   7.111  -2.696  0.00  0.00    +0.212 HD
ENDBRANCH   7  26
TORSDOF 6
