REMARK  Name = ZINC36981534
REMARK  8 active torsions:
REMARK  status: ('A' for Active; 'I' for Inactive)
REMARK    1  A    between atoms: C_1  and  C_2
REMARK    2  A    between atoms: C_5  and  C_9
REMARK    3  A    between atoms: C_6  and  O_8
REMARK    4  A    between atoms: C_9  and  C_11
REMARK    5  A    between atoms: C_9  and  N_12
REMARK    6  A    between atoms: N_12  and  C_13
REMARK    7  A    between atoms: C_18  and  O_19
REMARK    8  A    between atoms: O_19  and  C_20
REMARK                            x       y       z     vdW  Elec       q    Type
REMARK                         _______ _______ _______ _____ _____    ______ ____
ROOT
ATOM      1  N   UNL     1       0.642  -4.749  -1.292  0.00  0.00    -0.334 N 
ATOM      2  H   UNL     1       0.610  -4.187  -2.081  0.00  0.00    +0.147 HD
ENDROOT
BRANCH   1   3
ATOM      3  C   UNL     1       1.247  -6.010  -1.355  0.00  0.00    +0.072 A 
ATOM      4  C   UNL     1       1.289  -6.818  -0.228  0.00  0.00    +0.046 A 
ATOM      5  C   UNL     1       1.886  -8.064  -0.292  0.00  0.00    +0.044 A 
ATOM      6  C   UNL     1       2.443  -8.507  -1.479  0.00  0.00    +0.039 A 
ATOM      7  C   UNL     1       2.404  -7.706  -2.607  0.00  0.00    +0.063 A 
ATOM      8  C   UNL     1       1.802  -6.458  -2.550  0.00  0.00    +0.155 A 
ATOM      9 BR   UNL     1       3.166  -8.316  -4.226  0.00  0.00    -0.046 Br
ATOM     10 CL   UNL     1       1.938  -9.074   1.119  0.00  0.00    -0.083 Cl
BRANCH   8  11
ATOM     11  O   UNL     1       1.759  -5.672  -3.660  0.00  0.00    -0.492 OA
ATOM     12  C   UNL     1       2.856  -4.778  -3.864  0.00  0.00    +0.277 C 
ENDBRANCH   8  11
ENDBRANCH   1   3
BRANCH   1  13
ATOM     13  C   UNL     1       0.059  -4.279  -0.033  0.00  0.00    +0.101 C 
ATOM     14  C   UNL     1      -1.371  -4.808   0.095  0.00  0.00    +0.033 C 
BRANCH  13  19
ATOM     15  C   UNL     1      -0.018   1.503   0.010  0.00  0.00    +0.044 C 
ATOM     16  C   UNL     1       0.002  -0.004   0.002  0.00  0.00    -0.047 A 
ATOM     17  C   UNL     1       0.006  -0.688  -1.200  0.00  0.00    +0.004 A 
ATOM     18  C   UNL     1       0.024  -2.071  -1.211  0.00  0.00    +0.009 A 
ATOM     19  C   UNL     1       0.039  -2.772  -0.020  0.00  0.00    +0.014 A 
ATOM     20  C   UNL     1       0.035  -2.088   1.186  0.00  0.00    +0.122 A 
ATOM     21  C   UNL     1       0.023  -0.700   1.195  0.00  0.00    +0.049 A 
BRANCH  20  22
ATOM     22  O   UNL     1       0.050  -2.776   2.358  0.00  0.00    -0.506 OA
ATOM     23  H   UNL     1       0.938  -2.963   2.694  0.00  0.00    +0.292 HD
ENDBRANCH  20  22
ENDBRANCH  13  19
ENDBRANCH   1  13
TORSDOF 5
