REMARK  Name = ZINC08798791
REMARK  9 active torsions:
REMARK  status: ('A' for Active; 'I' for Inactive)
REMARK    1  A    between atoms: C_1  and  N_2
REMARK    2  A    between atoms: C_10  and  C_12
REMARK    3  A    between atoms: C_12  and  C_14
REMARK    4  A    between atoms: C_12  and  N_53
REMARK    5  A    between atoms: C_14  and  N_15
REMARK    6  A    between atoms: N_15  and  S_16
REMARK    7  A    between atoms: S_16  and  C_19
REMARK    8  A    between atoms: C_27  and  N_53
REMARK    9  A    between atoms: C_28  and  N_53
REMARK                            x       y       z     vdW  Elec       q    Type
REMARK                         _______ _______ _______ _____ _____    ______ ____
ROOT
ATOM      1  C   UNL     1       0.088  -0.148   1.964  0.00  0.00    -0.023 C 
ENDROOT
BRANCH   1  11
ATOM      2  C   UNL     1      -1.873   5.825   1.338  0.00  0.00    +0.129 C 
ATOM      3  N   UNL     1      -0.466   5.443   1.159  0.00  0.00    -0.333 N 
ATOM      4  C   UNL     1       0.414   6.281   1.976  0.00  0.00    +0.105 C 
ATOM      5  C   UNL     1       1.862   5.819   1.770  0.00  0.00    +0.024 C 
ATOM      6  C   UNL     1       2.007   4.429   2.394  0.00  0.00    +0.038 C 
ATOM      7  C   UNL     1       0.861   3.554   1.954  0.00  0.00    -0.026 A 
ATOM      8  C   UNL     1      -0.286   4.079   1.383  0.00  0.00    +0.033 A 
ATOM      9  C   UNL     1      -1.319   3.218   1.006  0.00  0.00    +0.023 A 
ATOM     10  C   UNL     1      -1.195   1.858   1.188  0.00  0.00    +0.004 A 
ATOM     11  C   UNL     1      -0.048   1.339   1.760  0.00  0.00    -0.059 A 
ATOM     12  C   UNL     1       0.975   2.185   2.139  0.00  0.00    +0.007 A 
ENDBRANCH   1  11
BRANCH   1  15
ATOM     13  C   UNL     1      -2.015  -1.170   1.335  0.00  0.00    -0.096 C 
ATOM     14  C   UNL     1      -0.961  -1.763   3.432  0.00  0.00    -0.096 C 
ATOM     15  N   UNL     1      -1.201  -0.673   2.463  0.00  0.00    +0.381 N 
ATOM     16  H   UNL     1      -1.710   0.085   2.934  0.00  0.00    -0.082 HD
ENDBRANCH   1  15
BRANCH   1  17
ATOM     17  C   UNL     1       0.454  -0.814   0.636  0.00  0.00    +0.095 C 
BRANCH  17  18
ATOM     18  N   UNL     1       0.602  -2.257   0.838  0.00  0.00    -0.191 NA
ATOM     19  H   UNL     1       0.748  -2.610   1.730  0.00  0.00    +0.148 HD
BRANCH  18  20
ATOM     20  S   UNL     1       0.518  -3.287  -0.456  0.00  0.00    +0.061 S 
ATOM     21  O   UNL     1       0.722  -4.597   0.053  0.00  0.00    -0.153 OA
ATOM     22  O   UNL     1      -0.646  -2.927  -1.188  0.00  0.00    -0.153 OA
BRANCH  20  23
ATOM     23  C   UNL     1       1.896  -2.930  -1.495  0.00  0.00    +0.143 A 
ATOM     24  C   UNL     1       2.886  -3.877  -1.679  0.00  0.00    +0.069 A 
ATOM     25  C   UNL     1       3.967  -3.599  -2.498  0.00  0.00    +0.125 A 
ATOM     26  C   UNL     1       4.060  -2.368  -3.126  0.00  0.00    +0.041 A 
ATOM     27  C   UNL     1       3.073  -1.420  -2.939  0.00  0.00    +0.043 A 
ATOM     28  C   UNL     1       1.990  -1.700  -2.123  0.00  0.00    +0.150 A 
ATOM     29  F   UNL     1       1.025  -0.773  -1.939  0.00  0.00    -0.203 F 
ATOM     30  F   UNL     1       4.932  -4.526  -2.682  0.00  0.00    -0.205 F 
ENDBRANCH  20  23
ENDBRANCH  18  20
ENDBRANCH  17  18
ENDBRANCH   1  17
TORSDOF 6
