REMARK  Name = ZINC20207184
REMARK  11 active torsions:
REMARK  status: ('A' for Active; 'I' for Inactive)
REMARK    1  A    between atoms: C_1  and  C_2
REMARK    2  A    between atoms: C_7  and  O_8
REMARK    3  A    between atoms: O_8  and  C_9
REMARK    4  A    between atoms: C_9  and  C_10
REMARK    5  A    between atoms: C_10  and  O_11
REMARK    6  A    between atoms: O_11  and  C_12
REMARK    7  A    between atoms: C_15  and  C_18
REMARK    8  A    between atoms: C_29  and  S_30
REMARK    9  A    between atoms: S_30  and  C_33
REMARK   10  A    between atoms: C_33  and  C_34
REMARK   11  A    between atoms: C_33  and  C_35
REMARK                            x       y       z     vdW  Elec       q    Type
REMARK                         _______ _______ _______ _____ _____    ______ ____
ROOT
ATOM      1  C   UNL     1      -0.296   4.465   9.502  0.00  0.00    +0.024 C 
ATOM      2  C   UNL     1      -1.384   5.214   9.114  0.00  0.00    +0.078 C 
ATOM      3  C   UNL     1      -2.026   6.203  10.028  0.00  0.00    +0.117 C 
ATOM      4  N   UNL     1      -1.367   6.887  10.924  0.00  0.00    -0.386 N 
ATOM      5  N   UNL     1      -3.416   6.324   9.826  0.00  0.00    -0.203 N 
ATOM      6  C   UNL     1      -3.934   5.965   8.600  0.00  0.00    +0.183 C 
ATOM      7  N   UNL     1      -3.279   5.415   7.603  0.00  0.00    -0.152 NA
ATOM      8  C   UNL     1      -1.980   5.088   7.761  0.00  0.00    +0.273 C 
ATOM      9  O   UNL     1      -1.313   4.694   6.818  0.00  0.00    -0.268 OA
ATOM     10  S   UNL     1      -5.544   6.379   8.731  0.00  0.00    +0.049 S 
ATOM     11  N   UNL     1      -5.565   6.887  10.328  0.00  0.00    -0.174 NA
ATOM     12  C   UNL     1      -4.332   6.774  10.715  0.00  0.00    +0.257 C 
ATOM     13  H   UNL     1      -0.428   6.701  11.082  0.00  0.00    +0.157 HD
ATOM     14  H   UNL     1      -1.817   7.581  11.431  0.00  0.00    +0.157 HD
ENDROOT
BRANCH   1  18
ATOM     15  C   UNL     1       1.094   1.318   7.037  0.00  0.00    +0.121 A 
ATOM     16  C   UNL     1       2.006   2.127   7.709  0.00  0.00    +0.046 A 
ATOM     17  C   UNL     1       1.561   3.147   8.508  0.00  0.00    +0.011 A 
ATOM     18  C   UNL     1       0.185   3.376   8.649  0.00  0.00    -0.024 A 
ATOM     19  C   UNL     1      -0.729   2.558   7.969  0.00  0.00    +0.011 A 
ATOM     20  C   UNL     1      -0.272   1.544   7.168  0.00  0.00    +0.046 A 
BRANCH  15  21
ATOM     21  O   UNL     1       1.540   0.310   6.246  0.00  0.00    -0.489 OA
BRANCH  21  22
ATOM     22  C   UNL     1       2.955   0.133   6.156  0.00  0.00    +0.270 C 
BRANCH  22  23
ATOM     23  C   UNL     1       3.264  -1.042   5.227  0.00  0.00    +0.270 C 
BRANCH  23  24
ATOM     24  O   UNL     1       2.837  -0.726   3.901  0.00  0.00    -0.488 OA
BRANCH  24  31
ATOM     25  C   UNL     1       2.000  -0.121   1.271  0.00  0.00    +0.047 C 
ATOM     26  C   UNL     1       2.650  -1.431   1.636  0.00  0.00    -0.009 A 
ATOM     27  C   UNL     1       2.863  -2.391   0.666  0.00  0.00    +0.007 A 
ATOM     28  C   UNL     1       3.459  -3.593   1.000  0.00  0.00    +0.000 A 
ATOM     29  C   UNL     1       3.844  -3.837   2.305  0.00  0.00    +0.004 A 
ATOM     30  C   UNL     1       3.634  -2.881   3.279  0.00  0.00    +0.046 A 
ATOM     31  C   UNL     1       3.040  -1.671   2.945  0.00  0.00    +0.124 A 
ENDBRANCH  24  31
ENDBRANCH  23  24
ENDBRANCH  22  23
ENDBRANCH  21  22
ENDBRANCH  15  21
ENDBRANCH   1  18
BRANCH  12  32
ATOM     32  S   UNL     1      -3.861   7.197  12.360  0.00  0.00    +0.031 S 
ATOM     33  O   UNL     1      -2.907   6.210  12.728  0.00  0.00    -0.166 OA
ATOM     34  O   UNL     1      -3.496   8.568  12.291  0.00  0.00    -0.166 OA
BRANCH  32  35
ATOM     35  C   UNL     1      -5.374   7.001  13.342  0.00  0.00    +0.133 C 
ATOM     36  C   UNL     1      -5.039   7.149  14.828  0.00  0.00    +0.032 C 
ATOM     37  C   UNL     1      -6.386   8.075  12.938  0.00  0.00    +0.032 C 
ENDBRANCH  32  35
ENDBRANCH  12  32
TORSDOF 8
