REMARK  Name = ZINC03359239
REMARK  10 active torsions:
REMARK  status: ('A' for Active; 'I' for Inactive)
REMARK    1  A    between atoms: C_1  and  C_2
REMARK    2  A    between atoms: C_2  and  C_4
REMARK    3  A    between atoms: C_7  and  C_10
REMARK    4  A    between atoms: C_13  and  C_15
REMARK    5  A    between atoms: C_17  and  C_25
REMARK    6  A    between atoms: C_25  and  O_27
REMARK    7  A    between atoms: O_27  and  C_28
REMARK    8  A    between atoms: C_28  and  C_29
REMARK    9  A    between atoms: C_28  and  C_30
REMARK   10  A    between atoms: C_28  and  C_31
REMARK                            x       y       z     vdW  Elec       q    Type
REMARK                         _______ _______ _______ _____ _____    ______ ____
ROOT
ATOM      1  C   UNL     1      -4.471  -2.073   0.009  0.00  0.00    +0.157 C 
ATOM      2  C   UNL     1      -4.417  -2.650   1.430  0.00  0.00    +0.169 C 
ATOM      3  C   UNL     1      -2.960  -2.896   1.768  0.00  0.00    +0.018 C 
ATOM      4  C   UNL     1      -2.440  -2.486   2.909  0.00  0.00    +0.029 C 
ATOM      5  N   UNL     1      -2.191  -3.577   0.819  0.00  0.00    -0.300 N 
ATOM      6  C   UNL     1      -2.581  -3.569  -0.469  0.00  0.00    +0.135 C 
ATOM      7  S   UNL     1      -1.654  -4.437  -1.617  0.00  0.00    -0.019 S 
ATOM      8  N   UNL     1      -3.668  -2.906  -0.886  0.00  0.00    -0.315 N 
ATOM      9  H   UNL     1      -1.386  -4.049   1.086  0.00  0.00    +0.154 HD
ATOM     10  H   UNL     1      -3.933  -2.982  -1.816  0.00  0.00    +0.148 HD
ENDROOT
BRANCH   1  14
ATOM     11  C   UNL     1      -2.500   1.003   0.019  0.00  0.00    +0.135 A 
ATOM     12  C   UNL     1      -3.752   1.540   0.028  0.00  0.00    +0.050 A 
ATOM     13  C   UNL     1      -4.656   0.462   0.026  0.00  0.00    +0.047 A 
ATOM     14  C   UNL     1      -3.921  -0.670   0.016  0.00  0.00    +0.127 A 
ATOM     15  O   UNL     1      -2.621  -0.339   0.007  0.00  0.00    -0.458 OA
BRANCH  11  19
ATOM     16  C   UNL     1       1.141   3.175   0.008  0.00  0.00    +0.017 A 
ATOM     17  C   UNL     1       1.160   1.774   0.001  0.00  0.00    +0.012 A 
ATOM     18  C   UNL     1      -0.013   1.076   0.008  0.00  0.00    +0.012 A 
ATOM     19  C   UNL     1      -1.234   1.759   0.017  0.00  0.00    +0.017 A 
ATOM     20  C   UNL     1      -1.254   3.158   0.030  0.00  0.00    +0.012 A 
ATOM     21  C   UNL     1      -0.083   3.858   0.023  0.00  0.00    +0.012 A 
BRANCH  16  23
ATOM     22  C   UNL     1       2.380   5.434   0.008  0.00  0.00    +0.091 C 
ATOM     23  C   UNL     1       2.401   3.927   0.000  0.00  0.00    +0.160 C 
ATOM     24  O   UNL     1       3.460   3.336  -0.012  0.00  0.00    -0.292 OA
ENDBRANCH  16  23
ENDBRANCH  11  19
ENDBRANCH   1  14
BRANCH   2  25
ATOM     25  C   UNL     1      -5.181  -3.947   1.484  0.00  0.00    +0.319 C 
ATOM     26  O   UNL     1      -5.718  -4.375   0.490  0.00  0.00    -0.250 OA
BRANCH  25  27
ATOM     27  O   UNL     1      -5.266  -4.629   2.638  0.00  0.00    -0.458 OA
BRANCH  27  28
ATOM     28  C   UNL     1      -6.018  -5.870   2.616  0.00  0.00    +0.105 C 
ATOM     29  C   UNL     1      -5.381  -6.836   1.614  0.00  0.00    +0.055 C 
ATOM     30  C   UNL     1      -6.003  -6.500   4.011  0.00  0.00    +0.055 C 
ATOM     31  C   UNL     1      -7.463  -5.585   2.201  0.00  0.00    +0.055 C 
ENDBRANCH  27  28
ENDBRANCH  25  27
ENDBRANCH   2  25
TORSDOF 6
