REMARK  Name = ZINC47882485
REMARK  7 active torsions:
REMARK  status: ('A' for Active; 'I' for Inactive)
REMARK    1  A    between atoms: C_1  and  C_2
REMARK    2  A    between atoms: C_10  and  C_11
REMARK    3  A    between atoms: C_11  and  C_13
REMARK    4  A    between atoms: C_11  and  N_14
REMARK    5  A    between atoms: N_17  and  C_18
REMARK    6  A    between atoms: C_23  and  C_24
REMARK    7  A    between atoms: C_27  and  C_29
REMARK                            x       y       z     vdW  Elec       q    Type
REMARK                         _______ _______ _______ _____ _____    ______ ____
ROOT
ATOM      1  N   UNL     1       1.033  -1.114   3.252  0.00  0.00    -0.290 N 
ATOM      2  C   UNL     1       1.577  -0.595   4.371  0.00  0.00    +0.304 C 
ATOM      3  O   UNL     1       1.242   0.509   4.754  0.00  0.00    -0.252 OA
ATOM      4  N   UNL     1       2.492  -1.300   5.065  0.00  0.00    -0.269 N 
ATOM      5  H   UNL     1       1.300  -1.995   2.947  0.00  0.00    +0.151 HD
ATOM      6  H   UNL     1       2.700  -2.211   4.807  0.00  0.00    +0.156 HD
ENDROOT
BRANCH   4   7
ATOM      7  C   UNL     1       3.140  -0.718   6.156  0.00  0.00    +0.047 A 
ATOM      8  C   UNL     1       3.269   0.661   6.236  0.00  0.00    +0.024 A 
ATOM      9  C   UNL     1       3.910   1.235   7.316  0.00  0.00    +0.002 A 
ATOM     10  C   UNL     1       4.429   0.441   8.325  0.00  0.00    +0.001 A 
ATOM     11  C   UNL     1       4.311  -0.931   8.261  0.00  0.00    +0.015 A 
ATOM     12  C   UNL     1       3.660  -1.524   7.178  0.00  0.00    +0.060 A 
BRANCH  12  13
ATOM     13  C   UNL     1       3.525  -2.993   7.106  0.00  0.00    +0.250 A 
ATOM     14  N   UNL     1       2.949  -3.676   6.144  0.00  0.00    -0.107 NA
ATOM     15  N   UNL     1       3.017  -4.932   6.416  0.00  0.00    -0.112 NA
ATOM     16  C   UNL     1       3.634  -5.099   7.553  0.00  0.00    +0.215 A 
ATOM     17  O   UNL     1       3.974  -3.883   8.014  0.00  0.00    -0.420 OA
ATOM     18  C   UNL     1       3.918  -6.418   8.225  0.00  0.00    +0.111 C 
ENDBRANCH  12  13
ENDBRANCH   4   7
BRANCH   1  19
ATOM     19  C   UNL     1       0.038  -0.348   2.497  0.00  0.00    +0.138 C 
ATOM     20  C   UNL     1      -1.348  -0.577   3.102  0.00  0.00    +0.036 C 
BRANCH  19  30
ATOM     21  C   UNL     1      -0.008   1.524   0.017  0.00  0.00    +0.048 C 
ATOM     22  C   UNL     1       0.021   0.018  -0.002  0.00  0.00    +0.000 A 
ATOM     23  C   UNL     1       0.039  -0.849  -1.186  0.00  0.00    +0.023 A 
ATOM     24  C   UNL     1       0.036  -0.620  -2.561  0.00  0.00    +0.012 A 
ATOM     25  C   UNL     1       0.057  -1.681  -3.425  0.00  0.00    +0.001 A 
ATOM     26  C   UNL     1       0.081  -2.981  -2.940  0.00  0.00    +0.004 A 
ATOM     27  C   UNL     1       0.084  -3.226  -1.584  0.00  0.00    +0.047 A 
ATOM     28  C   UNL     1       0.063  -2.163  -0.689  0.00  0.00    +0.136 A 
ATOM     29  O   UNL     1       0.060  -2.082   0.656  0.00  0.00    -0.458 OA
ATOM     30  C   UNL     1       0.041  -0.800   1.060  0.00  0.00    +0.129 A 
ENDBRANCH  19  30
ENDBRANCH   1  19
TORSDOF 4
