REMARK  Name = ZINC16043507
REMARK  4 active torsions:
REMARK  status: ('A' for Active; 'I' for Inactive)
REMARK    1  A    between atoms: N_13  and  C_17
REMARK    2  A    between atoms: C_17  and  C_18
REMARK    3  A    between atoms: C_21  and  C_33
REMARK    4  A    between atoms: C_24  and  C_26
REMARK                            x       y       z     vdW  Elec       q    Type
REMARK                         _______ _______ _______ _____ _____    ______ ____
ROOT
ATOM      1  C   UNL     1      -2.798  -2.156  -3.549  0.00  0.00    +0.253 C 
ATOM      2  O   UNL     1      -3.030  -2.100  -2.359  0.00  0.00    -0.272 OA
ATOM      3  N   UNL     1      -3.782  -2.474  -4.413  0.00  0.00    -0.181 N 
ATOM      4  C   UNL     1      -5.176  -2.775  -4.050  0.00  0.00    +0.173 C 
ATOM      5  C   UNL     1      -5.848  -3.064  -5.407  0.00  0.00    +0.090 C 
ATOM      6  C   UNL     1      -4.731  -2.890  -6.411  0.00  0.00    +0.069 C 
ATOM      7  N   UNL     1      -3.647  -2.565  -5.797  0.00  0.00    -0.181 NA
ENDROOT
BRANCH   6   8
ATOM      8  C   UNL     1      -4.865  -3.059  -7.870  0.00  0.00    -0.002 A 
ATOM      9  C   UNL     1      -6.097  -3.413  -8.425  0.00  0.00    +0.011 A 
ATOM     10  C   UNL     1      -6.216  -3.566  -9.791  0.00  0.00    +0.020 A 
ATOM     11  C   UNL     1      -5.116  -3.378 -10.610  0.00  0.00    +0.041 A 
ATOM     12  C   UNL     1      -3.890  -3.031 -10.066  0.00  0.00    +0.020 A 
ATOM     13  C   UNL     1      -3.759  -2.871  -8.702  0.00  0.00    +0.011 A 
ATOM     14 CL   UNL     1      -5.273  -3.578 -12.327  0.00  0.00    -0.084 Cl
ENDBRANCH   6   8
BRANCH   4  15
ATOM     15  C   UNL     1      -5.818  -1.586  -3.382  0.00  0.00    +0.128 A 
ATOM     16  C   UNL     1      -6.673  -1.634  -2.345  0.00  0.00    +0.046 A 
ATOM     17  C   UNL     1      -7.025  -0.298  -2.042  0.00  0.00    +0.041 A 
ATOM     18  C   UNL     1      -6.363   0.486  -2.913  0.00  0.00    +0.195 A 
ATOM     19  O   UNL     1      -5.630  -0.299  -3.718  0.00  0.00    -0.466 OA
ENDBRANCH   4  15
BRANCH   1  20
ATOM     20  C   UNL     1      -1.409  -1.871  -4.060  0.00  0.00    +0.215 C 
BRANCH  20  33
ATOM     21  C   UNL     1       3.971   0.481  -2.785  0.00  0.00    +0.001 A 
ATOM     22  C   UNL     1       4.247   1.669  -2.133  0.00  0.00    +0.004 A 
ATOM     23  C   UNL     1       3.357   2.170  -1.206  0.00  0.00    +0.046 A 
ATOM     24  C   UNL     1       2.180   1.483  -0.923  0.00  0.00    +0.126 A 
ATOM     25  C   UNL     1       1.904   0.296  -1.580  0.00  0.00    +0.027 A 
ATOM     26  C   UNL     1       2.803  -0.202  -2.509  0.00  0.00    +0.010 A 
ATOM     27  C   UNL     1       0.639  -0.468  -1.304  0.00  0.00    +0.144 C 
ATOM     28  C   UNL     1       0.002  -0.004   0.002  0.00  0.00    +0.081 C 
ATOM     29  C   UNL     1      -0.019   1.531   0.011  0.00  0.00    +0.232 C 
ATOM     30  O   UNL     1       1.330   2.001   0.000  0.00  0.00    -0.492 OA
ATOM     31  C   UNL     1      -0.333  -0.308  -2.450  0.00  0.00    +0.252 C 
ATOM     32  O   UNL     1      -0.832   0.721  -2.852  0.00  0.00    -0.272 OA
ATOM     33  N   UNL     1      -0.529  -1.553  -2.932  0.00  0.00    -0.215 N 
ATOM     34  C   UNL     1       0.180  -2.462  -2.252  0.00  0.00    +0.310 C 
ATOM     35  O   UNL     1       0.168  -3.652  -2.500  0.00  0.00    -0.252 OA
ATOM     36  N   UNL     1       0.908  -1.911  -1.262  0.00  0.00    -0.281 N 
ATOM     37  H   UNL     1       1.494  -2.375  -0.644  0.00  0.00    +0.152 HD
ENDBRANCH  20  33
ENDBRANCH   1  20
TORSDOF 4
