REMARK  Name = ZINC67650566
REMARK  5 active torsions:
REMARK  status: ('A' for Active; 'I' for Inactive)
REMARK    1  A    between atoms: C_1  and  C_2
REMARK    2  A    between atoms: C_8  and  N_10
REMARK    3  A    between atoms: C_14  and  C_16
REMARK    4  A    between atoms: C_16  and  N_17
REMARK    5  A    between atoms: C_18  and  C_23
REMARK                            x       y       z     vdW  Elec       q    Type
REMARK                         _______ _______ _______ _____ _____    ______ ____
ROOT
ATOM      1  N   UNL     1       2.116  -0.004   1.231  0.00  0.00    -0.296 N 
ATOM      2  C   UNL     1       2.795   0.128   2.388  0.00  0.00    +0.306 C 
ATOM      3  O   UNL     1       2.267  -0.174   3.440  0.00  0.00    -0.252 OA
ATOM      4  N   UNL     1       4.059   0.594   2.379  0.00  0.00    -0.239 N 
ATOM      5  C   UNL     1       4.738   0.726   3.536  0.00  0.00    +0.240 C 
ATOM      6  O   UNL     1       4.211   0.424   4.585  0.00  0.00    -0.273 OA
ATOM      7  H   UNL     1       2.538   0.237   0.392  0.00  0.00    +0.151 HD
ATOM      8  H   UNL     1       4.481   0.835   1.539  0.00  0.00    +0.159 HD
ENDROOT
BRANCH   1  15
ATOM      9  C   UNL     1      -0.019   1.526   0.010  0.00  0.00    +0.009 C 
ATOM     10  C   UNL     1       0.002  -0.004   0.002  0.00  0.00    +0.006 C 
ATOM     11  C   UNL     1       0.718  -0.497  -1.257  0.00  0.00    +0.005 C 
ATOM     12  C   UNL     1       0.739  -2.027  -1.265  0.00  0.00    +0.000 C 
ATOM     13  C   UNL     1       1.479  -2.534  -0.026  0.00  0.00    +0.002 C 
ATOM     14  C   UNL     1       0.763  -2.041   1.233  0.00  0.00    +0.022 C 
ATOM     15  C   UNL     1       0.742  -0.511   1.242  0.00  0.00    +0.077 C 
ENDBRANCH   1  15
BRANCH   5  16
ATOM     16  C   UNL     1       6.152   1.247   3.525  0.00  0.00    +0.226 C 
BRANCH  16  17
ATOM     17  N   UNL     1       6.665   1.296   4.896  0.00  0.00    -0.248 N 
ATOM     18  C   UNL     1       6.556   2.369   5.761  0.00  0.00    +0.192 A 
ATOM     19  N   UNL     1       7.127   2.050   6.889  0.00  0.00    -0.053 NA
ATOM     20  O   UNL     1       7.625   0.730   6.764  0.00  0.00    -0.295 OA
ATOM     21  C   UNL     1       7.316   0.300   5.529  0.00  0.00    +0.443 A 
ATOM     22  O   UNL     1       7.580  -0.792   5.063  0.00  0.00    -0.221 OA
BRANCH  18  23
ATOM     23  C   UNL     1       5.907   3.655   5.458  0.00  0.00    +0.058 A 
ATOM     24  C   UNL     1       5.766   4.762   6.257  0.00  0.00    +0.019 A 
ATOM     25  C   UNL     1       5.114   5.862   5.753  0.00  0.00    +0.008 A 
ATOM     26  C   UNL     1       4.629   5.822   4.483  0.00  0.00    +0.046 A 
ATOM     27  S   UNL     1       5.104   4.184   3.954  0.00  0.00    -0.094 S 
ENDBRANCH  18  23
ENDBRANCH  16  17
ENDBRANCH   5  16
TORSDOF 4
