REMARK  Name = ZINC08190213
REMARK  3 active torsions:
REMARK  status: ('A' for Active; 'I' for Inactive)
REMARK    1  A    between atoms: C_5  and  C_7
REMARK    2  A    between atoms: C_7  and  S_8
REMARK    3  A    between atoms: S_8  and  C_9
REMARK                            x       y       z     vdW  Elec       q    Type
REMARK                         _______ _______ _______ _____ _____    ______ ____
ROOT
ATOM      1  C   UNL     1      -3.317  -1.966  -1.395  0.00  0.00    +0.108 A 
ATOM      2  C   UNL     1      -4.116  -2.430  -2.469  0.00  0.00    +0.032 A 
ATOM      3  C   UNL     1      -3.767  -2.208  -3.806  0.00  0.00    +0.012 A 
ATOM      4  C   UNL     1      -4.576  -2.678  -4.798  0.00  0.00    +0.001 A 
ATOM      5  C   UNL     1      -5.742  -3.376  -4.499  0.00  0.00    +0.002 A 
ATOM      6  C   UNL     1      -6.109  -3.609  -3.207  0.00  0.00    +0.028 A 
ATOM      7  C   UNL     1      -5.302  -3.140  -2.163  0.00  0.00    +0.075 A 
ATOM      8  N   UNL     1      -5.617  -3.342  -0.875  0.00  0.00    -0.235 NA
ATOM      9  C   UNL     1      -4.840  -2.889   0.080  0.00  0.00    +0.223 A 
ATOM     10  N   UNL     1      -3.720  -2.226  -0.157  0.00  0.00    -0.229 NA
ENDROOT
BRANCH   1  11
ATOM     11  S   UNL     1      -1.827  -1.075  -1.694  0.00  0.00    -0.100 S 
BRANCH  11  12
ATOM     12  C   UNL     1      -1.293  -0.775   0.010  0.00  0.00    +0.112 C 
BRANCH  12  17
ATOM     13  C   UNL     1       2.396   0.029  -0.021  0.00  0.00    +0.000 A 
ATOM     14  C   UNL     1       2.378   1.411  -0.013  0.00  0.00    +0.001 A 
ATOM     15  C   UNL     1       1.172   2.086   0.002  0.00  0.00    +0.015 A 
ATOM     16  C   UNL     1      -0.017   1.379   0.010  0.00  0.00    +0.022 A 
ATOM     17  C   UNL     1       0.002  -0.004   0.002  0.00  0.00    -0.023 A 
ATOM     18  C   UNL     1       1.209  -0.679  -0.013  0.00  0.00    +0.005 A 
ATOM     19 BR   UNL     1      -1.667   2.302   0.022  0.00  0.00    -0.050 Br
ENDBRANCH  12  17
ENDBRANCH  11  12
ENDBRANCH   1  11
TORSDOF 3
