REMARK  Name = ZINC02749185
REMARK  4 active torsions:
REMARK  status: ('A' for Active; 'I' for Inactive)
REMARK    1  A    between atoms: C_8  and  C_23
REMARK    2  A    between atoms: C_13  and  S_18
REMARK    3  A    between atoms: S_18  and  C_19
REMARK    4  A    between atoms: C_19  and  C_20
REMARK                            x       y       z     vdW  Elec       q    Type
REMARK                         _______ _______ _______ _____ _____    ______ ____
ROOT
ATOM      1  C   UNL     1       4.128  -5.548  -0.115  0.00  0.00    +0.000 A 
ATOM      2  C   UNL     1       3.889  -4.225   0.210  0.00  0.00    +0.001 A 
ATOM      3  C   UNL     1       2.597  -3.738   0.225  0.00  0.00    +0.010 A 
ATOM      4  C   UNL     1       1.537  -4.586  -0.087  0.00  0.00    +0.004 A 
ATOM      5  C   UNL     1       1.783  -5.914  -0.432  0.00  0.00    -0.038 A 
ATOM      6  C   UNL     1       3.079  -6.391  -0.437  0.00  0.00    +0.004 A 
ATOM      7  C   UNL     1       0.640  -6.821  -0.801  0.00  0.00    +0.044 C 
ATOM      8  C   UNL     1      -0.595  -6.500   0.037  0.00  0.00    +0.034 C 
ATOM      9  C   UNL     1      -0.893  -5.027   0.003  0.00  0.00    +0.047 A 
ATOM     10  C   UNL     1       0.139  -4.103  -0.027  0.00  0.00    +0.083 A 
ATOM     11  N   UNL     1      -0.137  -2.794  -0.017  0.00  0.00    -0.223 NA
ATOM     12  C   UNL     1      -1.383  -2.364   0.003  0.00  0.00    +0.170 A 
ATOM     13  N   UNL     1      -2.433  -3.231   0.008  0.00  0.00    -0.302 N 
ATOM     14  H   UNL     1      -3.369  -2.879   0.001  0.00  0.00    +0.171 HD
ATOM     15  C   UNL     1      -2.215  -4.564   0.022  0.00  0.00    +0.256 A 
ATOM     16  O   UNL     1      -3.150  -5.348   0.050  0.00  0.00    -0.267 OA
ENDROOT
BRANCH   8  17
ATOM     17  C   UNL     1      -0.347  -6.931   1.484  0.00  0.00    -0.003 C 
ATOM     18  C   UNL     1      -0.043  -8.430   1.524  0.00  0.00    +0.004 C 
ATOM     19  C   UNL     1       0.204  -8.861   2.971  0.00  0.00    +0.000 C 
ATOM     20  C   UNL     1      -1.042  -8.571   3.810  0.00  0.00    +0.000 C 
ATOM     21  C   UNL     1      -1.347  -7.072   3.769  0.00  0.00    +0.000 C 
ATOM     22  C   UNL     1      -1.594  -6.641   2.322  0.00  0.00    +0.004 C 
ENDBRANCH   8  17
BRANCH  12  23
ATOM     23  S   UNL     1      -1.696  -0.631   0.015  0.00  0.00    -0.078 S 
BRANCH  23  24
ATOM     24  C   UNL     1       0.002  -0.004   0.002  0.00  0.00    +0.172 C 
BRANCH  24  25
ATOM     25  C   UNL     1      -0.018   1.503   0.010  0.00  0.00    +0.221 C 
ATOM     26  O   UNL     1      -1.077   2.095   0.018  0.00  0.00    -0.275 OA
ATOM     27  N   UNL     1       1.139   2.192   0.003  0.00  0.00    -0.329 N 
ATOM     28  H   UNL     1       1.986   1.719  -0.008  0.00  0.00    +0.145 HD
ATOM     29  H   UNL     1       1.126   3.162   0.008  0.00  0.00    +0.145 HD
ENDBRANCH  24  25
ENDBRANCH  23  24
ENDBRANCH  12  23
TORSDOF 4
