REMARK  Name = ZINC40568812
REMARK  7 active torsions:
REMARK  status: ('A' for Active; 'I' for Inactive)
REMARK    1  A    between atoms: C_1  and  C_2
REMARK    2  A    between atoms: C_2  and  C_3
REMARK    3  A    between atoms: C_3  and  N_4
REMARK    4  A    between atoms: C_22  and  N_28
REMARK    5  A    between atoms: C_23  and  C_24
REMARK    6  A    between atoms: C_24  and  O_26
REMARK    7  A    between atoms: O_26  and  C_27
REMARK                            x       y       z     vdW  Elec       q    Type
REMARK                         _______ _______ _______ _____ _____    ______ ____
ROOT
ATOM      1  N   UNL     1       1.080  -2.102  -1.140  0.00  0.00    -0.270 N 
ATOM      2  C   UNL     1       2.038  -2.978  -0.662  0.00  0.00    +0.041 A 
ATOM      3  C   UNL     1       3.255  -2.706  -0.035  0.00  0.00    +0.024 A 
ATOM      4  C   UNL     1       4.028  -3.791   0.345  0.00  0.00    +0.002 A 
ATOM      5  C   UNL     1       3.625  -5.092   0.120  0.00  0.00    +0.000 A 
ATOM      6  C   UNL     1       2.415  -5.376  -0.505  0.00  0.00    +0.007 A 
ATOM      7  C   UNL     1       1.641  -4.302  -0.886  0.00  0.00    -0.002 A 
ATOM      8  C   UNL     1       0.311  -4.232  -1.571  0.00  0.00    +0.141 C 
ATOM      9  C   UNL     1       0.028  -2.748  -1.684  0.00  0.00    +0.240 C 
ATOM     10  O   UNL     1      -0.957  -2.238  -2.174  0.00  0.00    -0.274 OA
ATOM     11  C   UNL     1      -0.756  -4.887  -0.732  0.00  0.00    +0.057 C 
ATOM     12  C   UNL     1      -1.256  -6.087  -1.081  0.00  0.00    +0.115 C 
ATOM     13  C   UNL     1      -2.337  -6.743  -0.254  0.00  0.00    +0.075 C 
ATOM     14  C   UNL     1      -2.177  -6.343   1.214  0.00  0.00    +0.016 C 
ATOM     15  C   UNL     1      -2.258  -4.816   1.313  0.00  0.00    +0.080 C 
ATOM     16  C   UNL     1      -1.208  -4.213   0.419  0.00  0.00    +0.164 C 
ATOM     17  O   UNL     1      -0.742  -3.126   0.696  0.00  0.00    -0.292 OA
ATOM     18  O   UNL     1      -0.809  -6.738  -2.172  0.00  0.00    -0.446 OA
ATOM     19  C   UNL     1      -0.190  -6.071  -3.159  0.00  0.00    +0.195 C 
ATOM     20  C   UNL     1       0.375  -4.854  -2.935  0.00  0.00    +0.117 C 
ENDROOT
BRANCH  19  21
ATOM     21  N   UNL     1      -0.125  -6.625  -4.410  0.00  0.00    -0.329 N 
ATOM     22  H   UNL     1      -0.452  -7.525  -4.559  0.00  0.00    +0.145 HD
ATOM     23  H   UNL     1       0.249  -6.116  -5.146  0.00  0.00    +0.145 HD
ENDBRANCH  19  21
BRANCH  20  24
ATOM     24  C   UNL     1       1.018  -4.178  -3.983  0.00  0.00    +0.341 C 
ATOM     25  O   UNL     1       2.234  -4.191  -4.061  0.00  0.00    -0.245 OA
BRANCH  24  26
ATOM     26  O   UNL     1       0.290  -3.512  -4.905  0.00  0.00    -0.465 OA
ATOM     27  C   UNL     1       1.010  -2.846  -5.943  0.00  0.00    +0.280 C 
ENDBRANCH  24  26
ENDBRANCH  20  24
BRANCH   1  28
ATOM     28  C   UNL     1       1.192  -0.643  -1.060  0.00  0.00    +0.113 C 
BRANCH  28  30
ATOM     29  C   UNL     1       0.695   1.367   0.339  0.00  0.00    +0.005 C 
ATOM     30  C   UNL     1       0.578  -0.157   0.255  0.00  0.00    +0.016 C 
ENDBRANCH  28  30
ENDBRANCH   1  28
TORSDOF 5
