REMARK  Name = ZINC03594889
REMARK  5 active torsions:
REMARK  status: ('A' for Active; 'I' for Inactive)
REMARK    1  A    between atoms: C_1  and  C_2
REMARK    2  A    between atoms: C_7  and  N_12
REMARK    3  A    between atoms: C_9  and  C_11
REMARK    4  A    between atoms: C_13  and  C_15
REMARK    5  A    between atoms: C_15  and  N_16
REMARK                            x       y       z     vdW  Elec       q    Type
REMARK                         _______ _______ _______ _____ _____    ______ ____
ROOT
ATOM      1  N   UNL     1      -0.315   1.134   3.381  0.00  0.00    -0.215 N 
ATOM      2  C   UNL     1       0.115   1.921   2.371  0.00  0.00    +0.251 C 
ATOM      3  O   UNL     1       1.039   2.706   2.391  0.00  0.00    -0.272 OA
ATOM      4  C   UNL     1      -0.800   1.615   1.214  0.00  0.00    +0.138 C 
ATOM      5  C   UNL     1      -0.013   1.086   0.008  0.00  0.00    +0.045 C 
ATOM      6  C   UNL     1      -0.829   1.632  -1.185  0.00  0.00    +0.038 C 
ATOM      7  C   UNL     1      -1.538   2.860  -0.654  0.00  0.00    -0.042 A 
ATOM      8  C   UNL     1      -1.526   2.845   0.731  0.00  0.00    -0.012 A 
ATOM      9  C   UNL     1      -2.127   3.877   1.433  0.00  0.00    +0.006 A 
ATOM     10  C   UNL     1      -2.732   4.919   0.759  0.00  0.00    +0.000 A 
ATOM     11  C   UNL     1      -2.741   4.934  -0.623  0.00  0.00    +0.000 A 
ATOM     12  C   UNL     1      -2.145   3.906  -1.327  0.00  0.00    +0.004 A 
ATOM     13  N   UNL     1      -1.725   0.607   1.731  0.00  0.00    -0.281 N 
ATOM     14  C   UNL     1      -1.363   0.387   3.012  0.00  0.00    +0.310 C 
ATOM     15  O   UNL     1      -1.926  -0.400   3.748  0.00  0.00    -0.252 OA
ATOM     16  H   UNL     1      -2.452   0.181   1.250  0.00  0.00    +0.152 HD
ENDROOT
BRANCH   1  17
ATOM     17  C   UNL     1       0.291   1.101   4.715  0.00  0.00    +0.213 C 
BRANCH  17  19
ATOM     18  N   UNL     1       2.082  -0.146   5.878  0.00  0.00    -0.311 N 
ATOM     19  C   UNL     1       1.381   0.062   4.745  0.00  0.00    +0.231 C 
ATOM     20  O   UNL     1       1.628  -0.588   3.752  0.00  0.00    -0.274 OA
ATOM     21  H   UNL     1       1.885   0.373   6.673  0.00  0.00    +0.149 HD
BRANCH  18  27
ATOM     22  C   UNL     1       5.967  -1.899   5.670  0.00  0.00    +0.008 C 
ATOM     23  C   UNL     1       5.263  -1.857   7.028  0.00  0.00    -0.009 C 
ATOM     24  C   UNL     1       4.652  -3.227   7.329  0.00  0.00    +0.003 C 
ATOM     25  C   UNL     1       3.639  -3.583   6.240  0.00  0.00    +0.002 C 
ATOM     26  C   UNL     1       2.532  -2.528   6.208  0.00  0.00    +0.022 C 
ATOM     27  C   UNL     1       3.142  -1.157   5.908  0.00  0.00    +0.076 C 
ATOM     28  C   UNL     1       4.156  -0.801   6.997  0.00  0.00    +0.009 C 
ATOM     29  C   UNL     1       4.767   0.569   6.696  0.00  0.00    +0.009 C 
ENDBRANCH  18  27
ENDBRANCH  17  19
ENDBRANCH   1  17
TORSDOF 3
