REMARK  Name = ZINC01391173
REMARK  9 active torsions:
REMARK  status: ('A' for Active; 'I' for Inactive)
REMARK    1  A    between atoms: C_1  and  C_2
REMARK    2  A    between atoms: C_2  and  C_3
REMARK    3  A    between atoms: C_2  and  C_4
REMARK    4  A    between atoms: C_4  and  C_5
REMARK    5  A    between atoms: C_4  and  C_6
REMARK    6  A    between atoms: C_4  and  N_9
REMARK    7  A    between atoms: C_10  and  C_12
REMARK    8  A    between atoms: N_16  and  C_19
REMARK    9  A    between atoms: C_19  and  C_20
REMARK                            x       y       z     vdW  Elec       q    Type
REMARK                         _______ _______ _______ _____ _____    ______ ____
ROOT
ATOM      1  C   UNL     1      -0.237  -0.018   4.872  0.00  0.00    +0.101 A 
ATOM      2  C   UNL     1       0.292  -0.273   6.135  0.00  0.00    +0.020 A 
ATOM      3  C   UNL     1      -0.394   0.184   7.260  0.00  0.00    +0.019 A 
ATOM      4  C   UNL     1      -1.558   0.867   7.117  0.00  0.00    +0.089 A 
ATOM      5  N   UNL     1      -2.079   1.118   5.892  0.00  0.00    -0.310 N 
ATOM      6  C   UNL     1      -1.454   0.704   4.773  0.00  0.00    +0.264 A 
ATOM      7  O   UNL     1      -1.936   0.945   3.679  0.00  0.00    -0.267 OA
ENDROOT
BRANCH   1   9
ATOM      8  N   UNL     1      -0.004  -0.135   2.444  0.00  0.00    -0.297 N 
ATOM      9  C   UNL     1       0.457  -0.484   3.661  0.00  0.00    +0.250 C 
ATOM     10  O   UNL     1       1.446  -1.185   3.759  0.00  0.00    -0.270 OA
ATOM     11  H   UNL     1      -0.835   0.359   2.363  0.00  0.00    +0.150 HD
BRANCH   8  12
ATOM     12  C   UNL     1       0.750  -0.500   1.242  0.00  0.00    +0.110 C 
ATOM     13  C   UNL     1       2.144   0.127   1.305  0.00  0.00    +0.042 C 
BRANCH  12  14
ATOM     14  C   UNL     1       0.878  -2.000   1.167  0.00  0.00    +0.234 C 
ATOM     15  O   UNL     1       1.887  -2.501   0.717  0.00  0.00    -0.274 OA
ATOM     16  N   UNL     1      -0.129  -2.785   1.599  0.00  0.00    -0.328 N 
ATOM     17  H   UNL     1      -0.936  -2.384   1.958  0.00  0.00    +0.145 HD
ATOM     18  H   UNL     1      -0.047  -3.750   1.550  0.00  0.00    +0.145 HD
ENDBRANCH  12  14
BRANCH  12  20
ATOM     19  C   UNL     1      -0.005   1.542   0.018  0.00  0.00    +0.010 C 
ATOM     20  C   UNL     1       0.015   0.012   0.003  0.00  0.00    +0.015 C 
ATOM     21  C   UNL     1       0.736  -0.476  -1.256  0.00  0.00    +0.010 C 
ENDBRANCH  12  20
ENDBRANCH   8  12
ENDBRANCH   1   9
BRANCH   5  22
ATOM     22  C   UNL     1      -3.339   1.857   5.782  0.00  0.00    +0.160 C 
BRANCH  22  23
ATOM     23  C   UNL     1      -3.049   3.333   5.689  0.00  0.00    -0.024 A 
ATOM     24  C   UNL     1      -2.964   4.094   6.840  0.00  0.00    +0.009 A 
ATOM     25  C   UNL     1      -2.698   5.448   6.759  0.00  0.00    +0.050 A 
ATOM     26  C   UNL     1      -2.516   6.046   5.523  0.00  0.00    +0.173 A 
ATOM     27  C   UNL     1      -2.602   5.280   4.363  0.00  0.00    +0.173 A 
ATOM     28  C   UNL     1      -2.863   3.922   4.452  0.00  0.00    +0.055 A 
ATOM     29  O   UNL     1      -2.387   6.092   3.287  0.00  0.00    -0.395 OA
ATOM     30  C   UNL     1      -2.575   7.434   3.774  0.00  0.00    +0.589 C 
ATOM     31  O   UNL     1      -2.248   7.338   5.173  0.00  0.00    -0.395 OA
ATOM     32  F   UNL     1      -3.904   7.837   3.606  0.00  0.00    -0.125 F 
ATOM     33  F   UNL     1      -1.706   8.318   3.126  0.00  0.00    -0.125 F 
ENDBRANCH  22  23
ENDBRANCH   5  22
TORSDOF 6
