REMARK  Name = ZINC67017726
REMARK  10 active torsions:
REMARK  status: ('A' for Active; 'I' for Inactive)
REMARK    1  A    between atoms: C_1  and  C_2
REMARK    2  A    between atoms: C_4  and  N_8
REMARK    3  A    between atoms: N_5  and  C_7
REMARK    4  A    between atoms: N_11  and  C_12
REMARK    5  A    between atoms: C_12  and  C_14
REMARK    6  A    between atoms: C_12  and  C_15
REMARK    7  A    between atoms: C_19  and  S_21
REMARK    8  A    between atoms: S_21  and  N_24
REMARK    9  A    between atoms: N_24  and  C_25
REMARK   10  A    between atoms: N_24  and  C_26
REMARK                            x       y       z     vdW  Elec       q    Type
REMARK                         _______ _______ _______ _____ _____    ______ ____
ROOT
ATOM      1  C   UNL     1       0.033  -4.031  -5.134  0.00  0.00    +0.102 C 
ATOM      2  C   UNL     1      -1.409  -3.871  -5.621  0.00  0.00    +0.033 C 
ENDROOT
BRANCH   1   6
ATOM      3  N   UNL     1       0.039  -3.240  -1.543  0.00  0.00    -0.254 N 
ATOM      4  C   UNL     1       0.031  -3.097  -2.884  0.00  0.00    +0.305 C 
ATOM      5  O   UNL     1       0.014  -1.986  -3.376  0.00  0.00    -0.252 OA
ATOM      6  N   UNL     1       0.041  -4.186  -3.677  0.00  0.00    -0.293 N 
ATOM      7  H   UNL     1       0.052  -4.127  -1.150  0.00  0.00    +0.158 HD
ATOM      8  H   UNL     1       0.055  -5.073  -3.284  0.00  0.00    +0.151 HD
BRANCH   3  12
ATOM      9  C   UNL     1      -0.018   1.503   0.010  0.00  0.00    +0.067 C 
ATOM     10  C   UNL     1       0.002  -0.004   0.002  0.00  0.00    +0.062 A 
ATOM     11  C   UNL     1       0.008  -0.816  -1.135  0.00  0.00    +0.068 A 
ATOM     12  C   UNL     1       0.027  -2.113  -0.722  0.00  0.00    +0.124 A 
ATOM     13  N   UNL     1       0.034  -2.110   0.631  0.00  0.00    -0.253 N 
ATOM     14  N   UNL     1       0.023  -0.776   1.058  0.00  0.00    -0.175 NA
ATOM     15  C   UNL     1       0.053  -3.292   1.495  0.00  0.00    +0.174 C 
ENDBRANCH   3  12
ENDBRANCH   1   6
BRANCH   1  16
ATOM     16  C   UNL     1       0.646  -5.250  -5.773  0.00  0.00    -0.026 A 
ATOM     17  C   UNL     1       0.368  -6.508  -5.271  0.00  0.00    +0.005 A 
ATOM     18  C   UNL     1       0.931  -7.626  -5.857  0.00  0.00    +0.002 A 
ATOM     19  C   UNL     1       1.772  -7.487  -6.945  0.00  0.00    +0.028 A 
ATOM     20  C   UNL     1       2.050  -6.230  -7.447  0.00  0.00    +0.106 A 
ATOM     21  C   UNL     1       1.483  -5.111  -6.864  0.00  0.00    +0.034 A 
BRANCH  20  22
ATOM     22  S   UNL     1       3.122  -6.052  -8.834  0.00  0.00    +0.060 S 
ATOM     23  O   UNL     1       3.653  -4.735  -8.771  0.00  0.00    -0.153 OA
ATOM     24  O   UNL     1       3.950  -7.207  -8.858  0.00  0.00    -0.153 OA
BRANCH  22  25
ATOM     25  N   UNL     1       2.179  -6.118 -10.194  0.00  0.00    -0.183 NA
ATOM     26  C   UNL     1       1.611  -4.889 -10.752  0.00  0.00    +0.131 C 
ATOM     27  C   UNL     1       1.914  -7.406 -10.839  0.00  0.00    +0.131 C 
ENDBRANCH  22  25
ENDBRANCH  20  22
ENDBRANCH   1  16
TORSDOF 5
