REMARK  Name = ZINC24842482
REMARK  4 active torsions:
REMARK  status: ('A' for Active; 'I' for Inactive)
REMARK    1  A    between atoms: C_4  and  N_7
REMARK    2  A    between atoms: C_11  and  C_13
REMARK    3  A    between atoms: N_14  and  N_15
REMARK    4  A    between atoms: C_16  and  C_21
REMARK                            x       y       z     vdW  Elec       q    Type
REMARK                         _______ _______ _______ _____ _____    ______ ____
ROOT
ATOM      1  C   UNL     1      -0.996   2.441   0.130  0.00  0.00    +0.151 C 
ATOM      2  N   UNL     1      -0.883   3.738   0.138  0.00  0.00    -0.170 NA
ENDROOT
BRANCH   1   7
ATOM      3  N   UNL     1       3.929   0.098   0.297  0.00  0.00    -0.294 N 
ATOM      4  C   UNL     1       2.600   0.475   0.252  0.00  0.00    +0.164 A 
ATOM      5  N   UNL     1       1.524  -0.293   0.214  0.00  0.00    -0.212 NA
ATOM      6  C   UNL     1       0.316   0.220   0.174  0.00  0.00    +0.147 A 
ATOM      7  C   UNL     1       0.202   1.602   0.173  0.00  0.00    +0.072 A 
ATOM      8  S   UNL     1       1.925   2.074   0.233  0.00  0.00    -0.050 S 
ATOM      9 CL   UNL     1      -1.089  -0.797   0.124  0.00  0.00    -0.061 Cl
ATOM     10  H   UNL     1       4.719   0.860   0.230  0.00  0.00    +0.154 HD
BRANCH   3  14
ATOM     11  C   UNL     1       4.942  -3.923   0.686  0.00  0.00    +0.000 A 
ATOM     12  C   UNL     1       5.830  -3.042   0.096  0.00  0.00    +0.002 A 
ATOM     13  C   UNL     1       5.497  -1.708  -0.035  0.00  0.00    +0.023 A 
ATOM     14  C   UNL     1       4.269  -1.251   0.427  0.00  0.00    +0.033 A 
ATOM     15  C   UNL     1       3.382  -2.138   1.025  0.00  0.00    +0.023 A 
ATOM     16  C   UNL     1       3.719  -3.471   1.147  0.00  0.00    +0.002 A 
ENDBRANCH   3  14
ENDBRANCH   1   7
BRANCH   2  17
ATOM     17  N   UNL     1      -2.030   4.541   0.096  0.00  0.00    -0.186 N 
ATOM     18  C   UNL     1      -2.754   5.015   1.167  0.00  0.00    +0.189 A 
ATOM     19  N   UNL     1      -3.747   5.724   0.678  0.00  0.00    -0.126 NA
ATOM     20  N   UNL     1      -3.694   5.726  -0.606  0.00  0.00    -0.119 NA
ATOM     21  C   UNL     1      -2.662   5.023  -1.017  0.00  0.00    +0.223 A 
ATOM     22  S   UNL     1      -2.182   4.751  -2.691  0.00  0.00    -0.007 SA
BRANCH  18  23
ATOM     23  C   UNL     1      -2.468   4.773   2.596  0.00  0.00    +0.056 A 
ATOM     24  C   UNL     1      -1.169   4.922   3.087  0.00  0.00    +0.014 A 
ATOM     25  C   UNL     1      -0.909   4.695   4.422  0.00  0.00    +0.001 A 
ATOM     26  C   UNL     1      -1.931   4.320   5.277  0.00  0.00    +0.003 A 
ATOM     27  C   UNL     1      -3.220   4.169   4.799  0.00  0.00    +0.039 A 
ATOM     28  C   UNL     1      -3.497   4.399   3.465  0.00  0.00    +0.134 A 
ATOM     29  F   UNL     1      -4.758   4.258   3.000  0.00  0.00    -0.205 F 
ENDBRANCH  18  23
ENDBRANCH   2  17
TORSDOF 4
