REMARK  Name = ZINC14743444
REMARK  9 active torsions:
REMARK  status: ('A' for Active; 'I' for Inactive)
REMARK    1  A    between atoms: C_1  and  C_2
REMARK    2  A    between atoms: C_2  and  C_3
REMARK    3  A    between atoms: C_2  and  C_4
REMARK    4  A    between atoms: C_4  and  N_5
REMARK    5  A    between atoms: C_8  and  C_10
REMARK    6  A    between atoms: C_19  and  N_67
REMARK    7  A    between atoms: C_23  and  C_24
REMARK    8  A    between atoms: C_23  and  N_67
REMARK    9  A    between atoms: C_24  and  O_30
REMARK                            x       y       z     vdW  Elec       q    Type
REMARK                         _______ _______ _______ _____ _____    ______ ____
ROOT
ATOM      1  N   UNL     1      -3.325   2.678   0.131  0.00  0.00    -0.267 N 
ATOM      2  C   UNL     1      -2.666   3.843   0.015  0.00  0.00    +0.043 A 
ATOM      3  C   UNL     1      -1.343   3.551  -0.045  0.00  0.00    +0.004 A 
ATOM      4  C   UNL     1      -1.253   2.151   0.035  0.00  0.00    +0.151 A 
ATOM      5  N   UNL     1      -2.490   1.697   0.142  0.00  0.00    -0.166 NA
ATOM      6  C   UNL     1      -0.247   4.572  -0.176  0.00  0.00    +0.023 C 
ATOM      7  C   UNL     1      -0.876   5.897  -0.628  0.00  0.00    -0.067 C 
ATOM      8  C   UNL     1      -2.077   6.225   0.264  0.00  0.00    -0.009 C 
ATOM      9  C   UNL     1      -3.220   5.243  -0.036  0.00  0.00    +0.054 C 
ENDROOT
BRANCH   4  10
ATOM     10  C   UNL     1      -0.016   1.344   0.009  0.00  0.00    +0.267 C 
ATOM     11  O   UNL     1       1.068   1.893   0.020  0.00  0.00    -0.268 OA
ATOM     12  N   UNL     1      -0.090  -0.002  -0.031  0.00  0.00    -0.292 N 
ATOM     13  C   UNL     1      -1.387  -0.692   0.056  0.00  0.00    +0.136 C 
ATOM     14  C   UNL     1      -1.474  -1.696  -1.105  0.00  0.00    +0.179 C 
ATOM     15  O   UNL     1      -0.311  -2.527  -1.093  0.00  0.00    -0.377 OA
ATOM     16  C   UNL     1       0.915  -1.822  -1.302  0.00  0.00    +0.179 C 
ATOM     17  C   UNL     1       1.124  -0.824  -0.157  0.00  0.00    +0.136 C 
ENDBRANCH   4  10
BRANCH   7  18
ATOM     18  N   UNL     1       0.127   6.972  -0.518  0.00  0.00    +0.383 N 
ATOM     19  H   UNL     1       1.055   6.594  -0.744  0.00  0.00    -0.085 HD
ATOM     20  H   UNL     1       0.131   7.335   0.443  0.00  0.00    -0.085 HD
BRANCH  18  21
ATOM     21  C   UNL     1      -0.192   8.069  -1.451  0.00  0.00    -0.047 C 
BRANCH  21  22
ATOM     22  C   UNL     1       0.864   9.168  -1.313  0.00  0.00    +0.051 C 
ATOM     23  C   UNL     1       0.953   9.610   0.148  0.00  0.00    +0.033 C 
ATOM     24  C   UNL     1       2.009  10.709   0.286  0.00  0.00    +0.003 C 
ATOM     25  C   UNL     1       1.618  11.904  -0.586  0.00  0.00    +0.000 C 
ATOM     26  C   UNL     1       1.530  11.461  -2.048  0.00  0.00    +0.003 C 
ATOM     27  C   UNL     1       0.474  10.363  -2.186  0.00  0.00    +0.033 C 
BRANCH  22  28
ATOM     28  O   UNL     1       2.133   8.664  -1.736  0.00  0.00    -0.390 OA
ATOM     29  H   UNL     1       2.444   7.904  -1.226  0.00  0.00    +0.210 HD
ENDBRANCH  22  28
ENDBRANCH  21  22
ENDBRANCH  18  21
ENDBRANCH   7  18
BRANCH   1  30
ATOM     30  C   UNL     1      -4.780   2.544   0.230  0.00  0.00    +0.146 C 
BRANCH  30  32
ATOM     31  C   UNL     1      -4.878   3.969   2.280  0.00  0.00    +0.009 C 
ATOM     32  C   UNL     1      -5.197   2.589   1.702  0.00  0.00    +0.004 C 
ATOM     33  C   UNL     1      -6.700   2.324   1.815  0.00  0.00    +0.009 C 
ENDBRANCH  30  32
ENDBRANCH   1  30
TORSDOF 7
