REMARK  Name = ZINC11854988
REMARK  5 active torsions:
REMARK  status: ('A' for Active; 'I' for Inactive)
REMARK    1  A    between atoms: C_1  and  C_2
REMARK    2  A    between atoms: C_3  and  C_28
REMARK    3  A    between atoms: C_11  and  N_20
REMARK    4  A    between atoms: C_13  and  C_15
REMARK    5  A    between atoms: C_21  and  C_23
REMARK                            x       y       z     vdW  Elec       q    Type
REMARK                         _______ _______ _______ _____ _____    ______ ____
ROOT
ATOM      1  C   UNL     1       2.517   1.243  -0.016  0.00  0.00    +0.051 C 
ATOM      2  C   UNL     1       1.187   1.950   0.001  0.00  0.00    +0.035 A 
ATOM      3  C   UNL     1       1.125   3.312   0.009  0.00  0.00    +0.050 A 
ATOM      4  N   UNL     1      -0.056   3.928   0.023  0.00  0.00    -0.217 NA
ATOM      5  C   UNL     1      -1.183   3.248   0.030  0.00  0.00    +0.234 A 
ATOM      6  N   UNL     1      -1.185   1.888   0.018  0.00  0.00    -0.291 N 
ATOM      7  H   UNL     1      -2.025   1.403   0.019  0.00  0.00    +0.172 HD
ATOM      8  C   UNL     1      -0.015   1.216   0.009  0.00  0.00    +0.256 A 
ATOM      9  O   UNL     1       0.002  -0.004   0.002  0.00  0.00    -0.267 OA
ATOM     10  N   UNL     1      -2.385   3.928   0.046  0.00  0.00    -0.185 N 
ATOM     11  C   UNL     1      -2.540   5.285   0.054  0.00  0.00    +0.132 A 
ATOM     12  C   UNL     1      -3.871   5.548   0.069  0.00  0.00    +0.074 A 
ATOM     13  C   UNL     1      -4.555   4.314   0.069  0.00  0.00    +0.102 A 
ATOM     14  N   UNL     1      -3.659   3.347   0.049  0.00  0.00    -0.162 NA
ATOM     15  C   UNL     1       2.395   4.123   0.001  0.00  0.00    +0.066 C 
ENDROOT
BRANCH  13  16
ATOM     16  C   UNL     1      -6.022   4.136   0.081  0.00  0.00    +0.039 A 
ATOM     17  C   UNL     1      -6.751   2.976   0.082  0.00  0.00    +0.018 A 
ATOM     18  C   UNL     1      -8.126   3.058   0.095  0.00  0.00    +0.008 A 
ATOM     19  C   UNL     1      -8.716   4.281   0.107  0.00  0.00    +0.046 A 
ATOM     20  S   UNL     1      -7.306   5.377   0.107  0.00  0.00    -0.095 S 
ENDBRANCH  13  16
BRANCH  11  21
ATOM     21  N   UNL     1      -1.516   6.229   0.049  0.00  0.00    -0.266 N 
ATOM     22  C   UNL     1      -1.812   7.544   0.059  0.00  0.00    +0.256 C 
ATOM     23  O   UNL     1      -2.974   7.906   0.073  0.00  0.00    -0.269 OA
ATOM     24  H   UNL     1      -0.590   5.940   0.039  0.00  0.00    +0.157 HD
BRANCH  22  25
ATOM     25  C   UNL     1      -0.735   8.537   0.054  0.00  0.00    +0.074 A 
ATOM     26  C   UNL     1      -0.822   9.921   0.062  0.00  0.00    +0.021 A 
ATOM     27  C   UNL     1       0.359  10.621   0.054  0.00  0.00    +0.008 A 
ATOM     28  C   UNL     1       1.535   9.940   0.039  0.00  0.00    +0.046 A 
ATOM     29  S   UNL     1       1.031   8.281   0.043  0.00  0.00    -0.092 S 
ENDBRANCH  22  25
ENDBRANCH  11  21
TORSDOF 3
