REMARK  Name = ZINC56159482
REMARK  13 active torsions:
REMARK  status: ('A' for Active; 'I' for Inactive)
REMARK    1  A    between atoms: C_1  and  C_2
REMARK    2  A    between atoms: C_2  and  N_3
REMARK    3  A    between atoms: N_3  and  C_4
REMARK    4  A    between atoms: C_4  and  C_5
REMARK    5  A    between atoms: N_8  and  C_9
REMARK    6  A    between atoms: C_12  and  C_15
REMARK    7  A    between atoms: C_15  and  C_17
REMARK    8  A    between atoms: C_15  and  N_18
REMARK    9  A    between atoms: N_18  and  C_19
REMARK   10  A    between atoms: C_19  and  C_21
REMARK   11  A    between atoms: C_19  and  C_22
REMARK   12  A    between atoms: N_24  and  C_25
REMARK   13  A    between atoms: C_27  and  C_30
REMARK                            x       y       z     vdW  Elec       q    Type
REMARK                         _______ _______ _______ _____ _____    ______ ____
ROOT
ATOM      1  C   UNL     1      -5.810  -1.812   6.226  0.00  0.00    +0.081 C 
ATOM      2  C   UNL     1      -5.739  -3.276   6.664  0.00  0.00    +0.029 C 
ENDROOT
BRANCH   1   6
ATOM      3  C   UNL     1      -3.887  -1.364   2.435  0.00  0.00    +0.035 A 
ATOM      4  C   UNL     1      -3.216  -1.019   3.601  0.00  0.00    +0.023 A 
ATOM      5  C   UNL     1      -3.841  -1.165   4.824  0.00  0.00    +0.007 A 
ATOM      6  C   UNL     1      -5.132  -1.654   4.889  0.00  0.00    -0.031 A 
ATOM      7  C   UNL     1      -5.803  -1.999   3.730  0.00  0.00    +0.007 A 
ATOM      8  C   UNL     1      -5.186  -1.850   2.503  0.00  0.00    +0.023 A 
BRANCH   3  12
ATOM      9  N   UNL     1      -3.355  -0.617  -1.060  0.00  0.00    -0.286 N 
ATOM     10  C   UNL     1      -3.975  -0.848   0.114  0.00  0.00    +0.306 C 
ATOM     11  O   UNL     1      -5.182  -0.725   0.199  0.00  0.00    -0.252 OA
ATOM     12  N   UNL     1      -3.258  -1.217   1.194  0.00  0.00    -0.269 N 
ATOM     13  H   UNL     1      -2.305  -1.381   1.111  0.00  0.00    +0.156 HD
BRANCH   9  15
ATOM     14  C   UNL     1      -4.573  -1.463  -3.004  0.00  0.00    +0.024 C 
ATOM     15  C   UNL     1      -4.134  -0.216  -2.234  0.00  0.00    +0.106 C 
ENDBRANCH   9  15
BRANCH   9  16
ATOM     16  C   UNL     1      -1.901  -0.766  -1.162  0.00  0.00    +0.106 C 
ATOM     17  C   UNL     1      -1.227   0.568  -0.836  0.00  0.00    +0.024 C 
ENDBRANCH   9  16
ENDBRANCH   3  12
ENDBRANCH   1   6
BRANCH   1  18
ATOM     18  N   UNL     1      -7.217  -1.403   6.112  0.00  0.00    -0.299 NA
ATOM     19  H   UNL     1      -7.328  -0.677   5.420  0.00  0.00    +0.123 HD
BRANCH  18  20
ATOM     20  C   UNL     1      -7.746  -0.973   7.414  0.00  0.00    +0.138 C 
ATOM     21  C   UNL     1      -7.404   0.501   7.642  0.00  0.00    +0.034 C 
BRANCH  20  22
ATOM     22  C   UNL     1      -9.243  -1.150   7.430  0.00  0.00    +0.236 C 
ATOM     23  O   UNL     1      -9.812  -1.591   6.454  0.00  0.00    -0.274 OA
ATOM     24  N   UNL     1      -9.948  -0.819   8.529  0.00  0.00    -0.253 N 
ATOM     25  H   UNL     1      -9.493  -0.467   9.310  0.00  0.00    +0.158 HD
BRANCH  24  26
ATOM     26  C   UNL     1     -11.326  -0.982   8.544  0.00  0.00    +0.224 A 
ATOM     27  C   UNL     1     -12.155  -0.685   9.578  0.00  0.00    +0.092 A 
ATOM     28  C   UNL     1     -13.465  -0.996   9.186  0.00  0.00    +0.082 A 
ATOM     29  N   UNL     1     -13.427  -1.461   7.968  0.00  0.00    -0.081 NA
ATOM     30  O   UNL     1     -12.078  -1.456   7.537  0.00  0.00    -0.339 OA
ATOM     31  C   UNL     1     -14.703  -0.824  10.028  0.00  0.00    +0.069 C 
ENDBRANCH  24  26
ENDBRANCH  20  22
ENDBRANCH  18  20
ENDBRANCH   1  18
TORSDOF 8
