REMARK  Name = ZINC44028476
REMARK  6 active torsions:
REMARK  status: ('A' for Active; 'I' for Inactive)
REMARK    1  A    between atoms: C_1  and  C_2
REMARK    2  A    between atoms: C_6  and  C_7
REMARK    3  A    between atoms: C_7  and  C_9
REMARK    4  A    between atoms: C_9  and  C_20
REMARK    5  A    between atoms: C_10  and  C_11
REMARK    6  A    between atoms: C_15  and  N_17
REMARK                            x       y       z     vdW  Elec       q    Type
REMARK                         _______ _______ _______ _____ _____    ______ ____
ROOT
ATOM      1  C   UNL     1       0.280  -1.259   3.665  0.00  0.00    +0.100 C 
ATOM      2  C   UNL     1       0.165  -0.827   4.967  0.00  0.00    +0.030 C 
ENDROOT
BRANCH   2   3
ATOM      3  C   UNL     1       0.149   0.609   5.265  0.00  0.00    -0.022 A 
ATOM      4  C   UNL     1      -0.652   1.476   4.511  0.00  0.00    +0.008 A 
ATOM      5  C   UNL     1      -0.661   2.824   4.798  0.00  0.00    +0.003 A 
ATOM      6  C   UNL     1       0.119   3.322   5.828  0.00  0.00    +0.033 A 
ATOM      7  C   UNL     1       0.914   2.472   6.578  0.00  0.00    +0.127 A 
ATOM      8  C   UNL     1       0.931   1.121   6.308  0.00  0.00    +0.040 A 
BRANCH   7   9
ATOM      9  N   UNL     1       1.744   3.016   7.676  0.00  0.00    +0.056 N 
ATOM     10  O   UNL     1       1.726   4.201   7.918  0.00  0.00    -0.126 OA
ATOM     11  O   UNL     1       2.439   2.276   8.332  0.00  0.00    -0.126 OA
ENDBRANCH   7   9
ENDBRANCH   2   3
BRANCH   1  12
ATOM     12  C   UNL     1       0.624  -0.301   2.600  0.00  0.00    +0.210 C 
ATOM     13  O   UNL     1       0.934   0.842   2.885  0.00  0.00    -0.285 OA
BRANCH  12  19
ATOM     14  C   UNL     1       1.291   1.460   0.116  0.00  0.00    +0.045 C 
ATOM     15  C   UNL     1       0.880   0.011   0.055  0.00  0.00    -0.033 A 
ATOM     16  C   UNL     1       0.770  -0.667  -1.134  0.00  0.00    +0.011 A 
ATOM     17  C   UNL     1       0.395  -1.971  -1.117  0.00  0.00    +0.046 A 
ATOM     18  S   UNL     1       0.180  -2.317   0.513  0.00  0.00    -0.093 S 
ATOM     19  C   UNL     1       0.594  -0.725   1.197  0.00  0.00    +0.063 A 
ENDBRANCH  12  19
ENDBRANCH   1  12
BRANCH   1  20
ATOM     20  C   UNL     1       0.065  -2.638   3.347  0.00  0.00    +0.103 C 
ATOM     21  N   UNL     1      -0.106  -3.732   3.094  0.00  0.00    -0.191 NA
ENDBRANCH   1  20
TORSDOF 5
