REMARK  Name = ZINC06605868
REMARK  7 active torsions:
REMARK  status: ('A' for Active; 'I' for Inactive)
REMARK    1  A    between atoms: C_1  and  C_2
REMARK    2  A    between atoms: C_5  and  N_9
REMARK    3  A    between atoms: C_6  and  C_8
REMARK    4  A    between atoms: C_13  and  S_14
REMARK    5  A    between atoms: S_14  and  C_15
REMARK    6  A    between atoms: C_15  and  C_16
REMARK    7  A    between atoms: N_18  and  C_19
REMARK                            x       y       z     vdW  Elec       q    Type
REMARK                         _______ _______ _______ _____ _____    ______ ____
ROOT
ATOM      1  C   UNL     1      -4.069  -0.498   0.037  0.00  0.00    +0.227 C 
ATOM      2  O   UNL     1      -4.129  -1.709   0.022  0.00  0.00    -0.275 OA
ATOM      3  N   UNL     1      -5.200   0.233   0.053  0.00  0.00    -0.285 N 
ATOM      4  H   UNL     1      -5.153   1.199   0.133  0.00  0.00    +0.155 HD
ENDROOT
BRANCH   3   5
ATOM      5  C   UNL     1      -6.446  -0.401  -0.043  0.00  0.00    +0.035 A 
ATOM      6  C   UNL     1      -7.489   0.218  -0.723  0.00  0.00    +0.025 A 
ATOM      7  C   UNL     1      -8.716  -0.404  -0.827  0.00  0.00    +0.029 A 
ATOM      8  C   UNL     1      -8.915  -1.646  -0.241  0.00  0.00    +0.067 A 
ATOM      9  C   UNL     1      -7.871  -2.268   0.447  0.00  0.00    +0.069 A 
ATOM     10  C   UNL     1      -6.637  -1.643   0.544  0.00  0.00    +0.051 A 
ATOM     11  N   UNL     1      -8.365  -3.483   0.915  0.00  0.00    -0.306 N 
ATOM     12  H   UNL     1      -7.867  -4.137   1.431  0.00  0.00    +0.170 HD
ATOM     13  C   UNL     1      -9.650  -3.596   0.531  0.00  0.00    +0.325 A 
ATOM     14  O   UNL     1     -10.375  -4.541   0.778  0.00  0.00    -0.247 OA
ATOM     15  N   UNL     1     -10.012  -2.504  -0.169  0.00  0.00    -0.306 N 
ATOM     16  H   UNL     1     -10.886  -2.341  -0.556  0.00  0.00    +0.170 HD
ENDBRANCH   3   5
BRANCH   1  17
ATOM     17  C   UNL     1      -2.727   0.189   0.036  0.00  0.00    +0.173 C 
BRANCH  17  18
ATOM     18  S   UNL     1      -1.412  -1.054   0.012  0.00  0.00    -0.078 S 
BRANCH  18  23
ATOM     19  N   UNL     1       1.302  -0.415   0.001  0.00  0.00    -0.294 N 
ATOM     20  C   UNL     1       2.083   0.721   0.010  0.00  0.00    +0.113 A 
ATOM     21  C   UNL     1       1.246   1.772   0.029  0.00  0.00    +0.131 A 
ATOM     22  N   UNL     1      -0.016   1.309   0.032  0.00  0.00    -0.230 NA
ATOM     23  C   UNL     1       0.002  -0.004   0.015  0.00  0.00    +0.174 A 
BRANCH  19  28
ATOM     24  C   UNL     1       3.145  -5.783  -0.077  0.00  0.00    +0.044 C 
ATOM     25  C   UNL     1       2.656  -4.358  -0.056  0.00  0.00    -0.050 A 
ATOM     26  C   UNL     1       2.918  -3.554   1.038  0.00  0.00    +0.005 A 
ATOM     27  C   UNL     1       2.471  -2.247   1.060  0.00  0.00    +0.027 A 
ATOM     28  C   UNL     1       1.758  -1.741  -0.018  0.00  0.00    +0.051 A 
ATOM     29  C   UNL     1       1.491  -2.552  -1.113  0.00  0.00    -0.026 A 
ATOM     30  C   UNL     1       1.945  -3.857  -1.131  0.00  0.00    +0.008 A 
ATOM     31  C   UNL     1       0.712  -2.008  -2.283  0.00  0.00    +0.046 C 
ENDBRANCH  19  28
ENDBRANCH  18  23
ENDBRANCH  17  18
ENDBRANCH   1  17
TORSDOF 5
