REMARK  Name = ZINC06914389
REMARK  6 active torsions:
REMARK  status: ('A' for Active; 'I' for Inactive)
REMARK    1  A    between atoms: C_1  and  C_2
REMARK    2  A    between atoms: C_7  and  C_8
REMARK    3  A    between atoms: C_8  and  O_10
REMARK    4  A    between atoms: O_10  and  C_11
REMARK    5  A    between atoms: C_11  and  C_12
REMARK    6  A    between atoms: N_17  and  C_18
REMARK                            x       y       z     vdW  Elec       q    Type
REMARK                         _______ _______ _______ _____ _____    ______ ____
ROOT
ATOM      1  C   UNL     1      -6.982   0.198   2.677  0.00  0.00    +0.258 C 
ATOM      2  O   UNL     1      -6.579   0.934   3.551  0.00  0.00    -0.272 OA
ATOM      3  N   UNL     1      -6.119  -0.321   1.781  0.00  0.00    -0.237 N 
ATOM      4  C   UNL     1      -4.807  -0.021   1.858  0.00  0.00    +0.306 C 
ATOM      5  O   UNL     1      -4.402   0.717   2.735  0.00  0.00    -0.252 OA
ATOM      6  N   UNL     1      -3.943  -0.540   0.963  0.00  0.00    -0.294 N 
ATOM      7  H   UNL     1      -6.441  -0.910   1.082  0.00  0.00    +0.159 HD
ATOM      8  H   UNL     1      -4.266  -1.129   0.263  0.00  0.00    +0.151 HD
ENDROOT
BRANCH   6   9
ATOM      9  C   UNL     1      -2.517  -0.214   1.046  0.00  0.00    +0.037 C 
ATOM     10  C   UNL     1      -1.764  -0.927  -0.079  0.00  0.00    +0.029 C 
ATOM     11  C   UNL     1      -0.275  -0.587   0.009  0.00  0.00    -0.008 C 
ATOM     12  C   UNL     1       0.274  -1.045   1.361  0.00  0.00    +0.007 C 
ATOM     13  C   UNL     1      -0.479  -0.332   2.486  0.00  0.00    -0.008 C 
ATOM     14  C   UNL     1      -1.968  -0.673   2.399  0.00  0.00    +0.029 C 
ATOM     15  C   UNL     1      -0.292   1.180   2.346  0.00  0.00    +0.007 C 
ATOM     16  C   UNL     1      -0.842   1.639   0.994  0.00  0.00    -0.008 C 
ATOM     17  C   UNL     1      -0.089   0.925  -0.131  0.00  0.00    +0.007 C 
ATOM     18  C   UNL     1      -2.331   1.298   0.906  0.00  0.00    +0.029 C 
ENDBRANCH   6   9
BRANCH   1  19
ATOM     19  C   UNL     1      -8.449  -0.137   2.591  0.00  0.00    +0.328 C 
BRANCH  19  20
ATOM     20  O   UNL     1      -9.163   0.539   3.658  0.00  0.00    -0.452 OA
BRANCH  20  21
ATOM     21  C   UNL     1     -10.494   0.344   3.724  0.00  0.00    +0.340 C 
ATOM     22  O   UNL     1     -11.043  -0.373   2.911  0.00  0.00    -0.245 OA
BRANCH  21  29
ATOM     23  C   UNL     1     -13.379   0.124   3.696  0.00  0.00    +0.044 C 
ATOM     24  C   UNL     1     -12.679   0.901   4.781  0.00  0.00    -0.036 A 
ATOM     25  C   UNL     1     -13.413   1.516   5.774  0.00  0.00    +0.004 A 
ATOM     26  C   UNL     1     -12.772   2.230   6.771  0.00  0.00    +0.000 A 
ATOM     27  C   UNL     1     -11.392   2.331   6.780  0.00  0.00    +0.001 A 
ATOM     28  C   UNL     1     -10.646   1.718   5.796  0.00  0.00    +0.015 A 
ATOM     29  C   UNL     1     -11.287   1.000   4.784  0.00  0.00    +0.062 A 
ENDBRANCH  21  29
ENDBRANCH  20  21
ENDBRANCH  19  20
ENDBRANCH   1  19
TORSDOF 5
