REMARK  Name = ZINC43357421
REMARK  4 active torsions:
REMARK  status: ('A' for Active; 'I' for Inactive)
REMARK    1  A    between atoms: C_1  and  C_2
REMARK    2  A    between atoms: C_7  and  N_8
REMARK    3  A    between atoms: N_14  and  C_17
REMARK    4  A    between atoms: C_20  and  O_23
REMARK                            x       y       z     vdW  Elec       q    Type
REMARK                         _______ _______ _______ _____ _____    ______ ____
ROOT
ATOM      1  N   UNL     1      -0.035   0.042   2.380  0.00  0.00    -0.269 N 
ATOM      2  C   UNL     1      -0.063  -0.635   3.545  0.00  0.00    +0.307 C 
ATOM      3  O   UNL     1       0.002  -1.850   3.543  0.00  0.00    -0.252 OA
ATOM      4  N   UNL     1      -0.162   0.033   4.711  0.00  0.00    -0.282 N 
ATOM      5  C   UNL     1      -0.370   1.488   4.724  0.00  0.00    +0.128 C 
ATOM      6  C   UNL     1      -1.623   1.796   5.552  0.00  0.00    +0.124 C 
ATOM      7  N   UNL     1      -1.527   1.083   6.834  0.00  0.00    -0.327 N 
ATOM      8  C   UNL     1      -1.319  -0.371   6.821  0.00  0.00    +0.124 C 
ATOM      9  C   UNL     1      -0.071  -0.681   5.992  0.00  0.00    +0.128 C 
ATOM     10  H   UNL     1      -0.035   1.012   2.383  0.00  0.00    +0.156 HD
ENDROOT
BRANCH   1  17
ATOM     11  C   UNL     1      -1.201   1.273   0.096  0.00  0.00    +0.045 C 
ATOM     12  C   UNL     1      -0.562  -0.090   0.027  0.00  0.00    -0.029 A 
ATOM     13  C   UNL     1      -0.525  -0.776  -1.171  0.00  0.00    +0.006 A 
ATOM     14  C   UNL     1       0.061  -2.026  -1.236  0.00  0.00    +0.020 A 
ATOM     15  C   UNL     1       0.613  -2.595  -0.101  0.00  0.00    +0.043 A 
ATOM     16  C   UNL     1       0.580  -1.912   1.100  0.00  0.00    +0.043 A 
ATOM     17  C   UNL     1      -0.004  -0.654   1.166  0.00  0.00    +0.039 A 
ATOM     18 CL   UNL     1       1.347  -4.165  -0.187  0.00  0.00    -0.083 Cl
ENDBRANCH   1  17
BRANCH   7  19
ATOM     19  C   UNL     1      -1.630   1.777   8.044  0.00  0.00    +0.030 A 
ATOM     20  C   UNL     1      -1.703   1.078   9.242  0.00  0.00    +0.027 A 
ATOM     21  C   UNL     1      -1.804   1.764  10.436  0.00  0.00    +0.047 A 
ATOM     22  C   UNL     1      -1.834   3.150  10.440  0.00  0.00    +0.117 A 
ATOM     23  C   UNL     1      -1.762   3.849   9.245  0.00  0.00    +0.047 A 
ATOM     24  C   UNL     1      -1.654   3.166   8.050  0.00  0.00    +0.027 A 
BRANCH  22  25
ATOM     25  O   UNL     1      -1.934   3.825  11.617  0.00  0.00    -0.507 OA
ATOM     26  H   UNL     1      -1.082   4.038  12.022  0.00  0.00    +0.292 HD
ENDBRANCH  22  25
ENDBRANCH   7  19
TORSDOF 3
