REMARK  Name = ZINC39675210
REMARK  9 active torsions:
REMARK  status: ('A' for Active; 'I' for Inactive)
REMARK    1  A    between atoms: C_1  and  C_2
REMARK    2  A    between atoms: C_2  and  C_4
REMARK    3  A    between atoms: C_2  and  N_14
REMARK    4  A    between atoms: C_4  and  C_5
REMARK    5  A    between atoms: C_5  and  C_6
REMARK    6  A    between atoms: C_9  and  O_12
REMARK    7  A    between atoms: O_12  and  C_13
REMARK    8  A    between atoms: C_15  and  C_17
REMARK    9  A    between atoms: C_28  and  C_30
REMARK                            x       y       z     vdW  Elec       q    Type
REMARK                         _______ _______ _______ _____ _____    ______ ____
ROOT
ATOM      1  C   UNL     1       0.379  -1.539   3.241  0.00  0.00    +0.100 C 
ATOM      2  C   UNL     1       1.072  -2.919   3.223  0.00  0.00    +0.121 C 
ATOM      3  N   UNL     1       0.901  -3.442   4.599  0.00  0.00    -0.296 N 
ATOM      4  C   UNL     1      -0.474  -3.038   4.979  0.00  0.00    +0.115 C 
ATOM      5  C   UNL     1      -0.636  -1.621   4.394  0.00  0.00    -0.004 C 
ATOM      6  C   UNL     1      -2.054  -1.428   3.866  0.00  0.00    -0.010 C 
ATOM      7  C   UNL     1      -3.039  -1.456   5.038  0.00  0.00    -0.082 C 
ATOM      8  N   UNL     1      -2.700  -0.390   5.989  0.00  0.00    +0.379 N 
ATOM      9  C   UNL     1      -1.371  -0.635   6.563  0.00  0.00    -0.082 C 
ATOM     10  C   UNL     1      -0.316  -0.573   5.456  0.00  0.00    -0.010 C 
ATOM     11  C   UNL     1       1.794  -4.129   5.338  0.00  0.00    +0.247 C 
ATOM     12  O   UNL     1       2.932  -4.275   4.936  0.00  0.00    -0.270 OA
ATOM     13  H   UNL     1      -2.700   0.498   5.512  0.00  0.00    -0.086 HD
ATOM     14  H   UNL     1      -3.386  -0.372   6.729  0.00  0.00    -0.086 HD
ENDROOT
BRANCH  11  15
ATOM     15  C   UNL     1       1.391  -4.705   6.638  0.00  0.00    +0.037 A 
ATOM     16  C   UNL     1       0.030  -4.944   6.903  0.00  0.00    +0.013 A 
ATOM     17  C   UNL     1      -0.366  -5.473   8.089  0.00  0.00    +0.009 A 
ATOM     18  C   UNL     1       0.589  -5.789   9.072  0.00  0.00    -0.018 A 
ATOM     19  C   UNL     1       0.204  -6.337  10.307  0.00  0.00    +0.008 A 
ATOM     20  C   UNL     1       1.151  -6.633  11.239  0.00  0.00    +0.001 A 
ATOM     21  C   UNL     1       2.502  -6.401  10.989  0.00  0.00    +0.001 A 
ATOM     22  C   UNL     1       2.913  -5.872   9.805  0.00  0.00    +0.008 A 
ATOM     23  C   UNL     1       1.964  -5.553   8.817  0.00  0.00    -0.017 A 
ATOM     24  C   UNL     1       2.355  -5.012   7.583  0.00  0.00    +0.021 A 
ENDBRANCH  11  15
BRANCH   1  26
ATOM     25  N   UNL     1      -0.471  -0.032   1.473  0.00  0.00    -0.312 N 
ATOM     26  C   UNL     1      -0.331  -1.290   1.935  0.00  0.00    +0.218 C 
ATOM     27  O   UNL     1      -0.776  -2.223   1.300  0.00  0.00    -0.275 OA
ATOM     28  H   UNL     1      -0.115   0.714   1.981  0.00  0.00    +0.149 HD
BRANCH  25  30
ATOM     29  C   UNL     1      -2.669   0.288   0.449  0.00  0.00    +0.028 C 
ATOM     30  C   UNL     1      -1.161   0.209   0.203  0.00  0.00    +0.070 C 
BRANCH  30  31
ATOM     31  C   UNL     1      -0.673   1.528  -0.400  0.00  0.00    +0.026 C 
BRANCH  31  32
ATOM     32  C   UNL     1       0.809   1.406  -0.761  0.00  0.00    +0.037 C 
BRANCH  32  33
ATOM     33  C   UNL     1       1.290   2.705  -1.355  0.00  0.00    -0.047 A 
ATOM     34  C   UNL     1       1.206   2.913  -2.719  0.00  0.00    +0.007 A 
ATOM     35  C   UNL     1       1.647   4.102  -3.266  0.00  0.00    +0.046 A 
ATOM     36  C   UNL     1       2.173   5.089  -2.445  0.00  0.00    +0.120 A 
ATOM     37  C   UNL     1       2.255   4.878  -1.077  0.00  0.00    +0.046 A 
ATOM     38  C   UNL     1       1.808   3.689  -0.534  0.00  0.00    +0.007 A 
BRANCH  36  39
ATOM     39  O   UNL     1       2.607   6.260  -2.981  0.00  0.00    -0.495 OA
ATOM     40  C   UNL     1       3.137   7.231  -2.076  0.00  0.00    +0.277 C 
ENDBRANCH  36  39
ENDBRANCH  32  33
ENDBRANCH  31  32
ENDBRANCH  30  31
ENDBRANCH  25  30
ENDBRANCH   1  26
TORSDOF 7
