REMARK  Name = ZINC14122024
REMARK  11 active torsions:
REMARK  status: ('A' for Active; 'I' for Inactive)
REMARK    1  A    between atoms: C_1  and  C_2
REMARK    2  A    between atoms: C_2  and  C_4
REMARK    3  A    between atoms: C_2  and  C_16
REMARK    4  A    between atoms: C_9  and  O_14
REMARK    5  A    between atoms: O_14  and  C_15
REMARK    6  A    between atoms: N_18  and  C_19
REMARK    7  A    between atoms: C_19  and  C_20
REMARK    8  A    between atoms: C_20  and  C_22
REMARK    9  A    between atoms: C_20  and  N_64
REMARK   10  A    between atoms: C_25  and  O_28
REMARK   11  A    between atoms: O_28  and  C_29
REMARK                            x       y       z     vdW  Elec       q    Type
REMARK                         _______ _______ _______ _____ _____    ______ ____
ROOT
ATOM      1  C   UNL     1      -0.209  -5.071   0.896  0.00  0.00    +0.220 C 
ATOM      2  O   UNL     1      -0.203  -4.238   1.777  0.00  0.00    -0.275 OA
ATOM      3  N   UNL     1      -0.660  -6.316   1.148  0.00  0.00    -0.316 N 
ATOM      4  H   UNL     1      -0.665  -6.982   0.443  0.00  0.00    +0.149 HD
ENDROOT
BRANCH   1   6
ATOM      5  C   UNL     1      -0.837  -4.912  -1.498  0.00  0.00    +0.022 C 
ATOM      6  C   UNL     1       0.289  -4.715  -0.481  0.00  0.00    +0.102 C 
BRANCH   6   7
ATOM      7  C   UNL     1       0.734  -3.275  -0.497  0.00  0.00    -0.035 A 
ATOM      8  C   UNL     1      -0.182  -2.270  -0.194  0.00  0.00    +0.005 A 
ATOM      9  C   UNL     1       0.187  -0.961  -0.199  0.00  0.00    +0.009 A 
ATOM     10  C   UNL     1       1.512  -0.613  -0.515  0.00  0.00    -0.014 A 
ATOM     11  C   UNL     1       1.929   0.729  -0.531  0.00  0.00    +0.054 A 
ATOM     12  C   UNL     1       3.224   1.029  -0.844  0.00  0.00    +0.121 A 
ATOM     13  C   UNL     1       4.141   0.019  -1.149  0.00  0.00    +0.046 A 
ATOM     14  C   UNL     1       3.769  -1.289  -1.143  0.00  0.00    +0.012 A 
ATOM     15  C   UNL     1       2.444  -1.635  -0.825  0.00  0.00    -0.017 A 
ATOM     16  C   UNL     1       2.025  -2.976  -0.808  0.00  0.00    +0.013 A 
BRANCH  12  17
ATOM     17  O   UNL     1       3.626   2.327  -0.859  0.00  0.00    -0.495 OA
ATOM     18  C   UNL     1       4.992   2.579  -1.194  0.00  0.00    +0.277 C 
ENDBRANCH  12  17
ENDBRANCH   6   7
ENDBRANCH   1   6
BRANCH   3  19
ATOM     19  C   UNL     1      -1.145  -6.662   2.486  0.00  0.00    +0.093 C 
BRANCH  19  20
ATOM     20  C   UNL     1      -1.439  -8.162   2.550  0.00  0.00    -0.020 C 
BRANCH  20  21
ATOM     21  C   UNL     1      -2.013  -8.505   3.901  0.00  0.00    -0.059 A 
ATOM     22  C   UNL     1      -1.191  -8.539   5.012  0.00  0.00    +0.005 A 
ATOM     23  C   UNL     1      -1.716  -8.847   6.252  0.00  0.00    +0.046 A 
ATOM     24  C   UNL     1      -3.067  -9.134   6.380  0.00  0.00    +0.120 A 
ATOM     25  C   UNL     1      -3.889  -9.104   5.263  0.00  0.00    +0.046 A 
ATOM     26  C   UNL     1      -3.360  -8.790   4.026  0.00  0.00    +0.005 A 
BRANCH  24  27
ATOM     27  O   UNL     1      -3.585  -9.444   7.598  0.00  0.00    -0.495 OA
ATOM     28  C   UNL     1      -2.680  -9.455   8.703  0.00  0.00    +0.277 C 
ENDBRANCH  24  27
ENDBRANCH  20  21
BRANCH  20  33
ATOM     29  C   UNL     1      -0.378 -10.350   2.678  0.00  0.00    -0.078 C 
ATOM     30  C   UNL     1       0.788 -11.041   1.927  0.00  0.00    -0.020 C 
ATOM     31  C   UNL     1       0.876 -10.237   0.610  0.00  0.00    -0.020 C 
ATOM     32  C   UNL     1       0.213  -8.882   0.921  0.00  0.00    -0.078 C 
ATOM     33  N   UNL     1      -0.179  -8.934   2.330  0.00  0.00    +0.385 N 
ATOM     34  H   UNL     1       0.567  -8.535   2.912  0.00  0.00    -0.081 HD
ENDBRANCH  20  33
ENDBRANCH  19  20
ENDBRANCH   3  19
TORSDOF 8
