REMARK  Name = ZINC63453689
REMARK  10 active torsions:
REMARK  status: ('A' for Active; 'I' for Inactive)
REMARK    1  A    between atoms: C_1  and  C_2
REMARK    2  A    between atoms: C_4  and  C_29
REMARK    3  A    between atoms: C_5  and  S_9
REMARK    4  A    between atoms: C_6  and  C_8
REMARK    5  A    between atoms: S_9  and  N_12
REMARK    6  A    between atoms: N_12  and  C_13
REMARK    7  A    between atoms: C_13  and  C_14
REMARK    8  A    between atoms: C_14  and  C_15
REMARK    9  A    between atoms: C_20  and  C_28
REMARK   10  A    between atoms: C_21  and  C_27
REMARK                            x       y       z     vdW  Elec       q    Type
REMARK                         _______ _______ _______ _____ _____    ______ ____
ROOT
ATOM      1  C   UNL     1      -0.562  -5.591   1.625  0.00  0.00    +0.107 C 
ENDROOT
BRANCH   1   2
ATOM      2  N   UNL     1      -1.517  -5.831   0.541  0.00  0.00    -0.190 NA
ATOM      3  H   UNL     1      -1.239  -6.315  -0.252  0.00  0.00    +0.148 HD
BRANCH   2   4
ATOM      4  S   UNL     1      -3.073  -5.278   0.670  0.00  0.00    +0.059 S 
ATOM      5  O   UNL     1      -3.543  -5.683   1.948  0.00  0.00    -0.153 OA
ATOM      6  O   UNL     1      -3.734  -5.640  -0.535  0.00  0.00    -0.153 OA
BRANCH   4  11
ATOM      7  C   UNL     1      -2.817   0.750   0.754  0.00  0.00    +0.044 C 
ATOM      8  C   UNL     1      -2.881  -0.756   0.733  0.00  0.00    -0.050 A 
ATOM      9  C   UNL     1      -2.879  -1.464   1.920  0.00  0.00    +0.008 A 
ATOM     10  C   UNL     1      -2.938  -2.845   1.901  0.00  0.00    -0.024 A 
ATOM     11  C   UNL     1      -2.999  -3.518   0.695  0.00  0.00    +0.111 A 
ATOM     12  C   UNL     1      -3.002  -2.809  -0.492  0.00  0.00    -0.024 A 
ATOM     13  C   UNL     1      -2.947  -1.428  -0.473  0.00  0.00    +0.008 A 
ATOM     14  C   UNL     1      -3.067  -3.542  -1.807  0.00  0.00    +0.046 C 
ATOM     15  C   UNL     1      -2.935  -3.618   3.195  0.00  0.00    +0.046 C 
ENDBRANCH   4  11
ENDBRANCH   2   4
ENDBRANCH   1   2
BRANCH   1  16
ATOM     16  C   UNL     1       0.656  -6.498   1.443  0.00  0.00    +0.033 C 
BRANCH  16  17
ATOM     17  C   UNL     1       1.654  -6.247   2.575  0.00  0.00    +0.100 C 
ATOM     18  C   UNL     1       2.931  -6.994   2.244  0.00  0.00    -0.005 C 
ATOM     19  C   UNL     1       3.368  -7.916   3.148  0.00  0.00    -0.007 A 
ATOM     20  C   UNL     1       4.591  -8.682   2.908  0.00  0.00    +0.013 A 
ATOM     21  C   UNL     1       4.988  -9.591   3.836  0.00  0.00    -0.047 A 
ATOM     22  C   UNL     1       4.256  -9.803   5.005  0.00  0.00    -0.046 A 
ATOM     23  C   UNL     1       3.113  -9.124   5.286  0.00  0.00    +0.027 A 
ATOM     24  C   UNL     1       2.614  -8.161   4.390  0.00  0.00    +0.041 A 
ATOM     25  N   UNL     1       1.492  -7.501   4.678  0.00  0.00    -0.284 N 
ATOM     26  C   UNL     1       0.969  -6.586   3.880  0.00  0.00    +0.224 C 
ATOM     27  O   UNL     1      -0.059  -6.017   4.196  0.00  0.00    -0.275 OA
ATOM     28  C   UNL     1       4.752 -10.825   5.994  0.00  0.00    +0.044 C 
ATOM     29  C   UNL     1       6.246 -10.386   3.600  0.00  0.00    +0.044 C 
ATOM     30  H   UNL     1       1.038  -7.703   5.510  0.00  0.00    +0.155 HD
ENDBRANCH  16  17
ENDBRANCH   1  16
TORSDOF 5
