REMARK  Name = ZINC04237326
REMARK  7 active torsions:
REMARK  status: ('A' for Active; 'I' for Inactive)
REMARK    1  A    between atoms: C_1  and  N_64
REMARK    2  A    between atoms: C_2  and  N_64
REMARK    3  A    between atoms: C_3  and  C_4
REMARK    4  A    between atoms: C_3  and  N_64
REMARK    5  A    between atoms: C_9  and  C_10
REMARK    6  A    between atoms: C_25  and  C_26
REMARK    7  A    between atoms: C_25  and  N_66
REMARK                            x       y       z     vdW  Elec       q    Type
REMARK                         _______ _______ _______ _____ _____    ______ ____
ROOT
ATOM      1  C   UNL     1      -1.352   0.295  -0.136  0.00  0.00    +0.047 A 
ATOM      2  C   UNL     1      -1.875  -0.120  -1.351  0.00  0.00    +0.015 A 
ATOM      3  C   UNL     1      -3.170  -0.639  -1.380  0.00  0.00    +0.022 A 
ATOM      4  C   UNL     1      -3.916  -0.711  -0.244  0.00  0.00    +0.023 A 
ATOM      5  N   UNL     1      -3.446  -0.223   0.927  0.00  0.00    -0.311 N 
ATOM      6  C   UNL     1      -2.163   0.209   1.018  0.00  0.00    +0.259 A 
ATOM      7  O   UNL     1      -1.706   0.525   2.103  0.00  0.00    -0.267 OA
ATOM      8  C   UNL     1      -4.277  -0.074   2.123  0.00  0.00    +0.126 C 
ATOM      9  C   UNL     1      -5.515  -0.954   2.079  0.00  0.00    -0.007 C 
ATOM     10  C   UNL     1      -6.202  -0.796   0.719  0.00  0.00    +0.011 C 
ATOM     11  C   UNL     1      -5.267  -1.384  -0.343  0.00  0.00    +0.020 C 
ATOM     12  C   UNL     1      -5.065  -2.875  -0.028  0.00  0.00    -0.069 C 
ATOM     13  C   UNL     1      -5.170  -2.412   2.342  0.00  0.00    -0.073 C 
ATOM     14  N   UNL     1      -4.333  -2.950   1.253  0.00  0.00    +0.385 N 
ATOM     15  H   UNL     1      -3.475  -2.390   1.183  0.00  0.00    -0.081 HD
ENDROOT
BRANCH   1  21
ATOM     16  C   UNL     1       0.248   2.202  -0.005  0.00  0.00    -0.056 A 
ATOM     17  C   UNL     1       1.536   2.691   0.075  0.00  0.00    +0.002 A 
ATOM     18  C   UNL     1       2.608   1.818   0.112  0.00  0.00    +0.000 A 
ATOM     19  C   UNL     1       2.397   0.451   0.068  0.00  0.00    +0.001 A 
ATOM     20  C   UNL     1       1.114  -0.049  -0.012  0.00  0.00    +0.009 A 
ATOM     21  C   UNL     1       0.028   0.826  -0.050  0.00  0.00    -0.011 A 
BRANCH  16  22
ATOM     22  C   UNL     1      -0.920   3.155  -0.046  0.00  0.00    -0.043 C 
BRANCH  22  25
ATOM     23  C   UNL     1      -0.711   4.056   2.192  0.00  0.00    -0.096 C 
ATOM     24  C   UNL     1      -2.902   3.756   1.207  0.00  0.00    -0.096 C 
ATOM     25  N   UNL     1      -1.532   3.211   1.298  0.00  0.00    +0.379 N 
ATOM     26  H   UNL     1      -1.576   2.261   1.685  0.00  0.00    -0.082 HD
ENDBRANCH  22  25
ENDBRANCH  16  22
ENDBRANCH   1  21
BRANCH  14  27
ATOM     27  C   UNL     1      -3.970  -4.354   1.542  0.00  0.00    -0.003 C 
BRANCH  27  28
ATOM     28  C   UNL     1      -2.837  -4.758   0.634  0.00  0.00    +0.090 A 
ATOM     29  C   UNL     1      -1.536  -4.659   0.940  0.00  0.00    +0.051 A 
ATOM     30  C   UNL     1      -0.802  -5.164  -0.227  0.00  0.00    +0.020 A 
ATOM     31  C   UNL     1       0.548  -5.323  -0.534  0.00  0.00    +0.011 A 
ATOM     32  C   UNL     1       0.910  -5.840  -1.748  0.00  0.00    +0.001 A 
ATOM     33  C   UNL     1      -0.057  -6.207  -2.672  0.00  0.00    +0.004 A 
ATOM     34  C   UNL     1      -1.397  -6.056  -2.385  0.00  0.00    +0.047 A 
ATOM     35  C   UNL     1      -1.786  -5.533  -1.159  0.00  0.00    +0.135 A 
ATOM     36  O   UNL     1      -2.985  -5.277  -0.598  0.00  0.00    -0.462 OA
ENDBRANCH  27  28
ENDBRANCH  14  27
TORSDOF 5
