REMARK  Name = ZINC09872506
REMARK  4 active torsions:
REMARK  status: ('A' for Active; 'I' for Inactive)
REMARK    1  A    between atoms: C_1  and  N_2
REMARK    2  A    between atoms: C_6  and  S_7
REMARK    3  A    between atoms: S_7  and  C_8
REMARK    4  A    between atoms: C_8  and  C_9
REMARK                            x       y       z     vdW  Elec       q    Type
REMARK                         _______ _______ _______ _____ _____    ______ ____
ROOT
ATOM      1  C   UNL     1       0.070  -1.805   5.211  0.00  0.00    +0.143 A 
ATOM      2  N   UNL     1       1.227  -1.660   5.833  0.00  0.00    -0.216 NA
ATOM      3  C   UNL     1       1.306  -1.255   7.090  0.00  0.00    +0.128 A 
ATOM      4  C   UNL     1       0.106  -0.966   7.799  0.00  0.00    +0.051 A 
ATOM      5  C   UNL     1      -0.048  -0.508   9.185  0.00  0.00    -0.025 A 
ATOM      6  C   UNL     1      -1.307  -0.310   9.620  0.00  0.00    -0.004 A 
ATOM      7  S   UNL     1      -2.347  -0.703   8.237  0.00  0.00    -0.073 S 
ATOM      8  C   UNL     1      -1.085  -1.144   7.071  0.00  0.00    +0.114 A 
ATOM      9  N   UNL     1      -1.073  -1.548   5.816  0.00  0.00    -0.224 NA
ATOM     10  C   UNL     1      -1.750   0.133  10.980  0.00  0.00    +0.043 C 
ATOM     11  C   UNL     1      -0.943   1.369  11.399  0.00  0.00    +0.005 C 
ATOM     12  C   UNL     1       0.314   0.899  12.124  0.00  0.00    +0.001 C 
ATOM     13  C   UNL     1       0.790  -0.429  11.538  0.00  0.00    +0.005 C 
ATOM     14  C   UNL     1       1.169  -0.261  10.072  0.00  0.00    +0.037 C 
ATOM     15  N   UNL     1       2.536  -1.115   7.707  0.00  0.00    -0.343 N 
ATOM     16  H   UNL     1       2.644  -0.486   8.437  0.00  0.00    +0.144 HD
ATOM     17  H   UNL     1       3.291  -1.647   7.408  0.00  0.00    +0.144 HD
ENDROOT
BRANCH   1  18
ATOM     18  C   UNL     1       0.058  -2.270   3.778  0.00  0.00    +0.153 C 
BRANCH  18  19
ATOM     19  S   UNL     1       0.140  -0.833   2.675  0.00  0.00    -0.078 S 
BRANCH  19  25
ATOM     20  C   UNL     1       0.237   0.601  -0.303  0.00  0.00    +0.152 C 
ATOM     21  N   UNL     1       0.161  -0.851  -0.123  0.00  0.00    -0.312 N 
ATOM     22  C   UNL     1       0.126  -1.804  -1.103  0.00  0.00    +0.225 A 
ATOM     23  N   UNL     1       0.060  -2.964  -0.514  0.00  0.00    -0.137 NA
ATOM     24  N   UNL     1       0.051  -2.811   0.762  0.00  0.00    -0.123 NA
ATOM     25  C   UNL     1       0.117  -1.533   1.058  0.00  0.00    +0.192 A 
ENDBRANCH  19  25
ENDBRANCH  18  19
ENDBRANCH   1  18
TORSDOF 3
