REMARK  Name = ZINC05376723
REMARK  6 active torsions:
REMARK  status: ('A' for Active; 'I' for Inactive)
REMARK    1  A    between atoms: C_1  and  O_2
REMARK    2  A    between atoms: O_2  and  C_3
REMARK    3  A    between atoms: C_6  and  N_11
REMARK    4  A    between atoms: C_7  and  O_9
REMARK    5  A    between atoms: O_9  and  C_10
REMARK    6  A    between atoms: C_17  and  C_18
REMARK                            x       y       z     vdW  Elec       q    Type
REMARK                         _______ _______ _______ _____ _____    ______ ____
ROOT
ATOM      1  N   UNL     1      -1.140   7.025   1.748  0.00  0.00    -0.222 NA
ATOM      2  C   UNL     1      -0.094   7.790   1.533  0.00  0.00    +0.166 C 
ATOM      3  N   UNL     1       0.009   9.159   1.664  0.00  0.00    -0.260 N 
ATOM      4  C   UNL     1       1.150   9.775   1.404  0.00  0.00    +0.257 C 
ATOM      5  O   UNL     1       1.259  10.984   1.515  0.00  0.00    -0.269 OA
ATOM      6  C   UNL     1       2.281   8.939   0.977  0.00  0.00    +0.081 C 
ATOM      7  C   UNL     1       3.554   9.306   0.650  0.00  0.00    +0.066 C 
ATOM      8  S   UNL     1       1.544   7.311   1.007  0.00  0.00    -0.049 S 
ATOM      9  H   UNL     1      -0.762   9.674   1.949  0.00  0.00    +0.157 HD
ENDROOT
BRANCH   1  13
ATOM     10  C   UNL     1      -0.979   2.989   0.819  0.00  0.00    +0.124 A 
ATOM     11  C   UNL     1      -0.572   3.932  -0.114  0.00  0.00    +0.048 A 
ATOM     12  C   UNL     1      -0.629   5.278   0.189  0.00  0.00    +0.035 A 
ATOM     13  C   UNL     1      -1.087   5.690   1.441  0.00  0.00    +0.108 A 
ATOM     14  C   UNL     1      -1.492   4.736   2.382  0.00  0.00    +0.149 A 
ATOM     15  C   UNL     1      -1.435   3.390   2.066  0.00  0.00    +0.093 A 
BRANCH  10  17
ATOM     16  C   UNL     1      -0.444   1.320  -0.789  0.00  0.00    +0.277 C 
ATOM     17  O   UNL     1      -0.924   1.665   0.512  0.00  0.00    -0.495 OA
ENDBRANCH  10  17
BRANCH  14  18
ATOM     18  O   UNL     1      -1.939   5.131   3.604  0.00  0.00    -0.493 OA
ATOM     19  C   UNL     1      -2.336   4.102   4.513  0.00  0.00    +0.277 C 
ENDBRANCH  14  18
ENDBRANCH   1  13
BRANCH   7  20
ATOM     20  C   UNL     1       3.979  10.639   0.853  0.00  0.00    +0.131 A 
ATOM     21  C   UNL     1       5.248  11.131   0.624  0.00  0.00    +0.050 A 
ATOM     22  C   UNL     1       5.214  12.494   0.958  0.00  0.00    +0.057 A 
ATOM     23  C   UNL     1       3.956  12.774   1.367  0.00  0.00    +0.171 A 
ATOM     24  O   UNL     1       3.215  11.658   1.298  0.00  0.00    -0.449 OA
ATOM     25 BR   UNL     1       3.339  14.468   1.938  0.00  0.00    -0.008 Br
ENDBRANCH   7  20
TORSDOF 4
