REMARK  Name = ZINC06769588
REMARK  7 active torsions:
REMARK  status: ('A' for Active; 'I' for Inactive)
REMARK    1  A    between atoms: C_1  and  C_2
REMARK    2  A    between atoms: C_7  and  N_8
REMARK    3  A    between atoms: C_9  and  C_23
REMARK    4  A    between atoms: C_11  and  O_15
REMARK    5  A    between atoms: O_15  and  C_16
REMARK    6  A    between atoms: C_23  and  N_24
REMARK    7  A    between atoms: N_24  and  C_25
REMARK                            x       y       z     vdW  Elec       q    Type
REMARK                         _______ _______ _______ _____ _____    ______ ____
ROOT
ATOM      1  N   UNL     1      -1.638   8.518   0.452  0.00  0.00    -0.263 N 
ATOM      2  C   UNL     1      -1.329   7.856  -0.827  0.00  0.00    +0.114 C 
ATOM      3  C   UNL     1      -1.438   6.574   0.004  0.00  0.00    +0.278 C 
ATOM      4  C   UNL     1      -1.746   7.413   1.220  0.00  0.00    +0.263 C 
ATOM      5  O   UNL     1      -1.987   7.190   2.388  0.00  0.00    -0.271 OA
ENDROOT
BRANCH   1  12
ATOM      6  C   UNL     1       0.709  10.006   1.061  0.00  0.00    +0.045 C 
ATOM      7  C   UNL     1      -0.660  10.636   1.075  0.00  0.00    -0.029 A 
ATOM      8  C   UNL     1      -0.801  11.975   1.385  0.00  0.00    +0.005 A 
ATOM      9  C   UNL     1      -2.058  12.553   1.403  0.00  0.00    +0.000 A 
ATOM     10  C   UNL     1      -3.175  11.794   1.107  0.00  0.00    +0.002 A 
ATOM     11  C   UNL     1      -3.040  10.456   0.791  0.00  0.00    +0.024 A 
ATOM     12  C   UNL     1      -1.779   9.873   0.771  0.00  0.00    +0.040 A 
ENDBRANCH   1  12
BRANCH   3  13
ATOM     13  O   UNL     1      -0.204   5.861   0.107  0.00  0.00    -0.478 OA
BRANCH  13  14
ATOM     14  C   UNL     1      -0.247   4.633   0.689  0.00  0.00    +0.122 A 
ATOM     15  C   UNL     1      -1.431   4.167   1.240  0.00  0.00    +0.047 A 
ATOM     16  C   UNL     1      -1.473   2.918   1.830  0.00  0.00    +0.023 A 
ATOM     17  C   UNL     1      -0.335   2.133   1.871  0.00  0.00    +0.041 A 
ATOM     18  C   UNL     1       0.849   2.599   1.327  0.00  0.00    +0.023 A 
ATOM     19  C   UNL     1       0.894   3.845   0.731  0.00  0.00    +0.047 A 
ATOM     20 CL   UNL     1      -0.390   0.565   2.614  0.00  0.00    -0.084 Cl
ENDBRANCH  13  14
ENDBRANCH   3  13
BRANCH   2  21
ATOM     21  C   UNL     1      -2.418   8.007  -1.891  0.00  0.00    -0.055 C 
BRANCH  21  22
ATOM     22  N   UNL     1      -2.278   9.309  -2.555  0.00  0.00    +0.382 N 
ATOM     23  H   UNL     1      -2.378  10.113  -1.811  0.00  0.00    -0.085 HD
ATOM     24  H   UNL     1      -1.288   9.373  -3.032  0.00  0.00    -0.085 HD
BRANCH  22  25
ATOM     25  C   UNL     1      -3.309   9.489  -3.585  0.00  0.00    -0.072 C 
ATOM     26  C   UNL     1      -2.843   8.846  -4.892  0.00  0.00    -0.016 C 
ATOM     27  C   UNL     1      -3.917   9.033  -5.965  0.00  0.00    -0.002 C 
ATOM     28  C   UNL     1      -4.159  10.527  -6.189  0.00  0.00    -0.000 C 
ATOM     29  C   UNL     1      -4.625  11.171  -4.882  0.00  0.00    -0.002 C 
ATOM     30  C   UNL     1      -3.551  10.983  -3.809  0.00  0.00    -0.016 C 
ENDBRANCH  22  25
ENDBRANCH  21  22
ENDBRANCH   2  21
TORSDOF 6
