REMARK  Name = ZINC39974518
REMARK  13 active torsions:
REMARK  status: ('A' for Active; 'I' for Inactive)
REMARK    1  A    between atoms: C_1  and  C_2
REMARK    2  A    between atoms: C_2  and  N_3
REMARK    3  A    between atoms: C_4  and  C_38
REMARK    4  A    between atoms: C_5  and  C_9
REMARK    5  A    between atoms: C_6  and  C_8
REMARK    6  A    between atoms: C_9  and  N_10
REMARK    7  A    between atoms: N_13  and  C_16
REMARK    8  A    between atoms: C_16  and  N_18
REMARK    9  A    between atoms: N_18  and  C_19
REMARK   10  A    between atoms: C_22  and  S_25
REMARK   11  A    between atoms: S_25  and  N_28
REMARK   12  A    between atoms: C_29  and  C_37
REMARK   13  A    between atoms: C_34  and  C_36
REMARK                            x       y       z     vdW  Elec       q    Type
REMARK                         _______ _______ _______ _____ _____    ______ ____
ROOT
ATOM      1  N   UNL     1       6.226   2.689   7.491  0.00  0.00    -0.297 N 
ATOM      2  H   UNL     1       6.278   2.157   8.300  0.00  0.00    +0.154 HD
ENDROOT
BRANCH   1   3
ATOM      3  C   UNL     1       7.397   3.142   6.873  0.00  0.00    +0.033 A 
ATOM      4  C   UNL     1       7.323   4.008   5.790  0.00  0.00    +0.025 A 
ATOM      5  C   UNL     1       8.481   4.452   5.183  0.00  0.00    +0.030 A 
ATOM      6  C   UNL     1       9.713   4.036   5.652  0.00  0.00    +0.106 A 
ATOM      7  C   UNL     1       9.790   3.174   6.731  0.00  0.00    +0.030 A 
ATOM      8  C   UNL     1       8.636   2.730   7.346  0.00  0.00    +0.025 A 
BRANCH   6   9
ATOM      9  S   UNL     1      11.188   4.605   4.875  0.00  0.00    +0.061 S 
ATOM     10  O   UNL     1      12.144   3.562   5.004  0.00  0.00    -0.153 OA
ATOM     11  O   UNL     1      10.804   5.134   3.613  0.00  0.00    -0.153 OA
BRANCH   9  12
ATOM     12  N   UNL     1      11.754   5.878   5.769  0.00  0.00    -0.171 NA
ATOM     13  C   UNL     1      12.847   5.690   6.732  0.00  0.00    +0.077 C 
ATOM     14  C   UNL     1      13.954   6.703   6.425  0.00  0.00    +0.020 C 
ATOM     15  C   UNL     1      13.361   8.114   6.416  0.00  0.00    +0.003 C 
ATOM     16  C   UNL     1      12.297   8.215   5.321  0.00  0.00    +0.020 C 
ATOM     17  C   UNL     1      11.175   7.220   5.611  0.00  0.00    +0.077 C 
ATOM     18  C   UNL     1      10.182   7.216   4.447  0.00  0.00    +0.026 C 
ATOM     19  C   UNL     1      12.324   5.912   8.152  0.00  0.00    +0.026 C 
ENDBRANCH   9  12
ENDBRANCH   6   9
ENDBRANCH   1   3
BRANCH   1  20
ATOM     20  C   UNL     1       5.024   2.993   6.961  0.00  0.00    +0.137 C 
ATOM     21  S   UNL     1       4.096   4.271   7.622  0.00  0.00    -0.018 S 
BRANCH  20  25
ATOM     22  N   UNL     1       3.283   0.251   4.502  0.00  0.00    -0.295 NA
ATOM     23  C   UNL     1       2.470   1.189   5.288  0.00  0.00    +0.103 C 
ATOM     24  C   UNL     1       3.201   2.533   5.387  0.00  0.00    +0.122 C 
ATOM     25  N   UNL     1       4.553   2.291   5.911  0.00  0.00    -0.310 N 
ATOM     26  C   UNL     1       5.380   1.264   5.258  0.00  0.00    +0.122 C 
ATOM     27  C   UNL     1       4.564  -0.029   5.164  0.00  0.00    +0.103 C 
BRANCH  22  28
ATOM     28  C   UNL     1       2.544  -0.992   4.238  0.00  0.00    +0.123 C 
BRANCH  28  31
ATOM     29  N   UNL     1       0.118  -0.398   1.581  0.00  0.00    -0.268 N 
ATOM     30  C   UNL     1       1.362  -0.719   1.995  0.00  0.00    +0.041 A 
ATOM     31  C   UNL     1       1.365  -0.695   3.348  0.00  0.00    +0.010 A 
ATOM     32  C   UNL     1       0.079  -0.347   3.775  0.00  0.00    +0.065 A 
ATOM     33  N   UNL     1      -0.667  -0.163   2.716  0.00  0.00    -0.176 NA
ATOM     34  C   UNL     1      -0.368  -0.202   5.207  0.00  0.00    +0.068 C 
ATOM     35  C   UNL     1       2.536  -1.047   1.110  0.00  0.00    +0.065 C 
BRANCH  29  37
ATOM     36  C   UNL     1      -0.109   1.119  -0.324  0.00  0.00    +0.029 C 
ATOM     37  C   UNL     1      -0.329  -0.305   0.189  0.00  0.00    +0.140 C 
ENDBRANCH  29  37
ENDBRANCH  28  31
ENDBRANCH  22  28
ENDBRANCH  20  25
ENDBRANCH   1  20
TORSDOF 8
