REMARK  Name = ZINC35747714
REMARK  13 active torsions:
REMARK  status: ('A' for Active; 'I' for Inactive)
REMARK    1  A    between atoms: C_1  and  C_2
REMARK    2  A    between atoms: C_5  and  C_9
REMARK    3  A    between atoms: C_6  and  C_8
REMARK    4  A    between atoms: C_18  and  C_20
REMARK    5  A    between atoms: C_20  and  N_21
REMARK    6  A    between atoms: N_21  and  C_22
REMARK    7  A    between atoms: N_21  and  C_25
REMARK    8  A    between atoms: C_22  and  C_23
REMARK    9  A    between atoms: C_25  and  C_26
REMARK   10  A    between atoms: C_26  and  C_28
REMARK   11  A    between atoms: C_26  and  O_37
REMARK   12  A    between atoms: C_28  and  O_29
REMARK   13  A    between atoms: O_29  and  C_30
REMARK                            x       y       z     vdW  Elec       q    Type
REMARK                         _______ _______ _______ _____ _____    ______ ____
ROOT
ATOM      1  C   UNL     1      -1.071  -4.113  -0.881  0.00  0.00    +0.004 A 
ATOM      2  C   UNL     1       0.075  -4.640  -1.375  0.00  0.00    +0.056 A 
ATOM      3  S   UNL     1      -0.031  -6.360  -0.918  0.00  0.00    -0.076 S 
ATOM      4  C   UNL     1      -1.597  -6.332  -0.084  0.00  0.00    +0.116 A 
ATOM      5  C   UNL     1      -1.998  -4.989  -0.173  0.00  0.00    +0.080 A 
ATOM      6  C   UNL     1      -3.255  -4.675   0.436  0.00  0.00    +0.260 A 
ATOM      7  O   UNL     1      -3.690  -3.536   0.406  0.00  0.00    -0.267 OA
ATOM      8  N   UNL     1      -3.949  -5.656   1.042  0.00  0.00    -0.312 N 
ATOM      9  H   UNL     1      -4.801  -5.449   1.457  0.00  0.00    +0.170 HD
ATOM     10  C   UNL     1      -3.480  -6.929   1.084  0.00  0.00    +0.094 A 
ATOM     11  N   UNL     1      -2.342  -7.248   0.529  0.00  0.00    -0.229 NA
ENDROOT
BRANCH   1  16
ATOM     12  C   UNL     1      -2.253   1.483  -1.546  0.00  0.00    +0.044 C 
ATOM     13  C   UNL     1      -1.944   0.018  -1.372  0.00  0.00    -0.050 A 
ATOM     14  C   UNL     1      -1.875  -0.808  -2.480  0.00  0.00    +0.004 A 
ATOM     15  C   UNL     1      -1.592  -2.150  -2.327  0.00  0.00    +0.009 A 
ATOM     16  C   UNL     1      -1.375  -2.672  -1.052  0.00  0.00    -0.014 A 
ATOM     17  C   UNL     1      -1.446  -1.835   0.060  0.00  0.00    -0.042 A 
ATOM     18  C   UNL     1      -1.724  -0.493  -0.106  0.00  0.00    +0.007 A 
ATOM     19  C   UNL     1      -1.213  -2.393   1.440  0.00  0.00    +0.044 C 
ENDBRANCH   1  16
BRANCH  10  20
ATOM     20  C   UNL     1      -4.292  -7.995   1.774  0.00  0.00    -0.003 C 
BRANCH  20  21
ATOM     21  N   UNL     1      -3.586  -9.280   1.690  0.00  0.00    +0.388 N 
ATOM     22  H   UNL     1      -3.384  -9.490   0.724  0.00  0.00    -0.081 HD
BRANCH  21  23
ATOM     23  C   UNL     1      -2.329  -9.199   2.446  0.00  0.00    -0.051 C 
BRANCH  23  24
ATOM     24  C   UNL     1      -2.627  -8.820   3.874  0.00  0.00    -0.053 C 
ATOM     25  C   UNL     1      -2.221  -9.590   4.854  0.00  0.00    +0.002 C 
ENDBRANCH  23  24
ENDBRANCH  21  23
BRANCH  21  26
ATOM     26  C   UNL     1      -4.430 -10.341   2.255  0.00  0.00    -0.043 C 
BRANCH  26  27
ATOM     27  C   UNL     1      -3.767 -11.700   2.021  0.00  0.00    +0.135 C 
BRANCH  27  28
ATOM     28  O   UNL     1      -3.692 -11.958   0.618  0.00  0.00    -0.390 OA
ATOM     29  H   UNL     1      -4.552 -11.980   0.176  0.00  0.00    +0.210 HD
ENDBRANCH  27  28
BRANCH  27  30
ATOM     30  C   UNL     1      -4.594 -12.794   2.698  0.00  0.00    +0.258 C 
BRANCH  30  31
ATOM     31  O   UNL     1      -3.915 -14.046   2.579  0.00  0.00    -0.489 OA
BRANCH  31  32
ATOM     32  C   UNL     1      -4.520 -15.131   3.132  0.00  0.00    +0.121 A 
ATOM     33  C   UNL     1      -5.744 -14.993   3.770  0.00  0.00    +0.047 A 
ATOM     34  C   UNL     1      -6.358 -16.097   4.331  0.00  0.00    +0.023 A 
ATOM     35  C   UNL     1      -5.751 -17.338   4.258  0.00  0.00    +0.041 A 
ATOM     36  C   UNL     1      -4.530 -17.477   3.622  0.00  0.00    +0.023 A 
ATOM     37  C   UNL     1      -3.917 -16.378   3.054  0.00  0.00    +0.047 A 
ATOM     38 CL   UNL     1      -6.524 -18.724   4.964  0.00  0.00    -0.084 Cl
ENDBRANCH  31  32
ENDBRANCH  30  31
ENDBRANCH  27  30
ENDBRANCH  26  27
ENDBRANCH  21  26
ENDBRANCH  20  21
ENDBRANCH  10  20
TORSDOF 11
