REMARK  Name = ZINC38703650
REMARK  8 active torsions:
REMARK  status: ('A' for Active; 'I' for Inactive)
REMARK    1  A    between atoms: C_1  and  C_2
REMARK    2  A    between atoms: C_5  and  C_9
REMARK    3  A    between atoms: C_6  and  O_8
REMARK    4  A    between atoms: C_11  and  C_15
REMARK    5  A    between atoms: C_21  and  C_23
REMARK    6  A    between atoms: C_23  and  C_24
REMARK    7  A    between atoms: C_24  and  C_25
REMARK    8  A    between atoms: C_24  and  C_26
REMARK                            x       y       z     vdW  Elec       q    Type
REMARK                         _______ _______ _______ _____ _____    ______ ____
ROOT
ATOM      1  C   UNL     1       0.058  -4.259  -0.033  0.00  0.00    +0.095 C 
ATOM      2  C   UNL     1       0.069  -5.037   1.067  0.00  0.00    +0.041 C 
ATOM      3  C   UNL     1       0.086  -6.450   0.512  0.00  0.00    +0.239 C 
ATOM      4  N   UNL     1       0.083  -6.239  -0.945  0.00  0.00    -0.170 NA
ATOM      5  N   UNL     1       0.062  -5.025  -1.156  0.00  0.00    -0.153 NA
ENDROOT
BRANCH   3   6
ATOM      6  C   UNL     1       1.333  -7.176   0.946  0.00  0.00    +0.249 C 
ATOM      7  O   UNL     1       2.271  -7.279   0.183  0.00  0.00    -0.273 OA
ATOM      8  N   UNL     1       1.407  -7.712   2.180  0.00  0.00    -0.261 N 
ATOM      9  C   UNL     1       2.558  -8.382   2.580  0.00  0.00    +0.188 A 
ATOM     10  N   UNL     1       3.673  -8.593   1.909  0.00  0.00    -0.126 NA
ATOM     11  N   UNL     1       4.645  -9.226   2.410  0.00  0.00    -0.145 NA
ATOM     12  C   UNL     1       4.542  -9.690   3.639  0.00  0.00    +0.104 A 
ATOM     13  S   UNL     1       2.896  -9.130   4.053  0.00  0.00    -0.035 S 
ATOM     14  H   UNL     1       0.657  -7.630   2.790  0.00  0.00    +0.157 HD
BRANCH  12  15
ATOM     15  C   UNL     1       5.535 -10.467   4.465  0.00  0.00    +0.068 C 
BRANCH  15  16
ATOM     16  C   UNL     1       6.412  -9.494   5.256  0.00  0.00    -0.011 C 
ATOM     17  C   UNL     1       5.549  -8.736   6.268  0.00  0.00    +0.007 C 
ATOM     18  C   UNL     1       7.499 -10.275   5.998  0.00  0.00    +0.007 C 
ENDBRANCH  15  16
ENDBRANCH  12  15
ENDBRANCH   3   6
BRANCH   1  23
ATOM     19  C   UNL     1      -0.018   1.503   0.010  0.00  0.00    +0.044 C 
ATOM     20  C   UNL     1       0.002  -0.004   0.002  0.00  0.00    -0.047 A 
ATOM     21  C   UNL     1       0.006  -0.686  -1.202  0.00  0.00    +0.004 A 
ATOM     22  C   UNL     1       0.024  -2.066  -1.219  0.00  0.00    +0.014 A 
ATOM     23  C   UNL     1       0.039  -2.776  -0.021  0.00  0.00    +0.043 A 
ATOM     24  C   UNL     1       0.036  -2.084   1.194  0.00  0.00    +0.126 A 
ATOM     25  C   UNL     1       0.023  -0.698   1.197  0.00  0.00    +0.049 A 
BRANCH  24  26
ATOM     26  O   UNL     1       0.051  -2.767   2.368  0.00  0.00    -0.506 OA
ATOM     27  H   UNL     1       0.939  -2.954   2.704  0.00  0.00    +0.292 HD
ENDBRANCH  24  26
ENDBRANCH   1  23
TORSDOF 5
