REMARK  Name = ZINC53303981
REMARK  9 active torsions:
REMARK  status: ('A' for Active; 'I' for Inactive)
REMARK    1  A    between atoms: C_1  and  C_2
REMARK    2  A    between atoms: C_4  and  C_27
REMARK    3  A    between atoms: N_6  and  C_8
REMARK    4  A    between atoms: C_8  and  C_9
REMARK    5  A    between atoms: C_8  and  C_10
REMARK    6  A    between atoms: C_8  and  C_11
REMARK    7  A    between atoms: C_11  and  N_12
REMARK    8  A    between atoms: C_13  and  C_15
REMARK    9  A    between atoms: C_15  and  N_16
REMARK                            x       y       z     vdW  Elec       q    Type
REMARK                         _______ _______ _______ _____ _____    ______ ____
ROOT
ATOM      1  N   UNL     1      -0.750  -2.466   3.616  0.00  0.00    -0.315 N 
ATOM      2  C   UNL     1      -1.628  -2.151   4.588  0.00  0.00    +0.231 C 
ATOM      3  O   UNL     1      -1.281  -1.451   5.515  0.00  0.00    -0.274 OA
ATOM      4  H   UNL     1      -1.027  -3.026   2.874  0.00  0.00    +0.149 HD
ENDROOT
BRANCH   1   5
ATOM      5  C   UNL     1       0.625  -1.963   3.679  0.00  0.00    +0.092 C 
BRANCH   5   6
ATOM      6  C   UNL     1       1.408  -2.463   2.464  0.00  0.00    -0.055 C 
ATOM      7  C   UNL     1       1.425  -3.993   2.463  0.00  0.00    -0.008 C 
ATOM      8  C   UNL     1       2.843  -1.937   2.530  0.00  0.00    -0.008 C 
BRANCH   6  14
ATOM      9  C   UNL     1      -0.019   1.526   0.010  0.00  0.00    +0.005 C 
ATOM     10  C   UNL     1       0.002  -0.004   0.002  0.00  0.00    -0.031 C 
ATOM     11  C   UNL     1       0.724  -0.499  -1.255  0.00  0.00    +0.003 C 
ATOM     12  C   UNL     1       0.808  -2.027  -1.215  0.00  0.00    -0.031 C 
ATOM     13  C   UNL     1       1.518  -2.460   0.070  0.00  0.00    -0.075 C 
ATOM     14  N   UNL     1       0.765  -1.980   1.235  0.00  0.00    +0.384 N 
ATOM     15  C   UNL     1       0.742  -0.512   1.241  0.00  0.00    -0.075 C 
ATOM     16  C   UNL     1       1.595  -2.527  -2.428  0.00  0.00    +0.005 C 
ATOM     17  H   UNL     1      -0.180  -2.330   1.191  0.00  0.00    -0.081 HD
ENDBRANCH   6  14
ENDBRANCH   5   6
ENDBRANCH   1   5
BRANCH   2  18
ATOM     18  C   UNL     1      -3.042  -2.669   4.523  0.00  0.00    +0.213 C 
BRANCH  18  19
ATOM     19  N   UNL     1      -3.792  -2.190   5.686  0.00  0.00    -0.215 N 
ATOM     20  C   UNL     1      -3.870  -2.848   6.863  0.00  0.00    +0.247 C 
ATOM     21  O   UNL     1      -3.353  -3.907   7.149  0.00  0.00    -0.273 OA
ATOM     22  C   UNL     1      -4.735  -1.985   7.745  0.00  0.00    +0.113 C 
ATOM     23  C   UNL     1      -3.974  -1.542   9.002  0.00  0.00    +0.035 C 
ATOM     24  C   UNL     1      -5.059  -1.518  10.109  0.00  0.00    +0.003 C 
ATOM     25  C   UNL     1      -5.944  -2.739   9.751  0.00  0.00    +0.003 C 
ATOM     26  C   UNL     1      -5.984  -2.739   8.207  0.00  0.00    +0.035 C 
ATOM     27  N   UNL     1      -5.084  -0.837   6.906  0.00  0.00    -0.285 N 
ATOM     28  C   UNL     1      -4.481  -1.042   5.718  0.00  0.00    +0.310 C 
ATOM     29  O   UNL     1      -4.558  -0.274   4.779  0.00  0.00    -0.252 OA
ATOM     30  H   UNL     1      -5.635  -0.079   7.156  0.00  0.00    +0.151 HD
ENDBRANCH  18  19
ENDBRANCH   2  18
TORSDOF 5
