REMARK  Name = ZINC59935669
REMARK  10 active torsions:
REMARK  status: ('A' for Active; 'I' for Inactive)
REMARK    1  A    between atoms: C_1  and  C_2
REMARK    2  A    between atoms: C_4  and  C_7
REMARK    3  A    between atoms: C_7  and  O_8
REMARK    4  A    between atoms: O_8  and  C_9
REMARK    5  A    between atoms: C_13  and  C_15
REMARK    6  A    between atoms: C_16  and  C_17
REMARK    7  A    between atoms: N_19  and  C_20
REMARK    8  A    between atoms: C_24  and  C_26
REMARK    9  A    between atoms: C_26  and  N_27
REMARK   10  A    between atoms: C_31  and  C_33
REMARK                            x       y       z     vdW  Elec       q    Type
REMARK                         _______ _______ _______ _____ _____    ______ ____
ROOT
ATOM      1  C   UNL     1      -3.090 -11.563  -0.027  0.00  0.00    +0.241 C 
ATOM      2  O   UNL     1      -1.907 -11.846  -0.037  0.00  0.00    -0.270 OA
ATOM      3  N   UNL     1      -4.017 -12.541  -0.027  0.00  0.00    -0.282 N 
ATOM      4  H   UNL     1      -4.958 -12.318   0.049  0.00  0.00    +0.155 HD
ENDROOT
BRANCH   3   5
ATOM      5  C   UNL     1      -3.623 -13.878  -0.135  0.00  0.00    +0.034 A 
ATOM      6  C   UNL     1      -2.442 -14.306   0.459  0.00  0.00    +0.023 A 
ATOM      7  C   UNL     1      -2.056 -15.627   0.350  0.00  0.00    +0.002 A 
ATOM      8  C   UNL     1      -2.842 -16.524  -0.349  0.00  0.00    +0.002 A 
ATOM      9  C   UNL     1      -4.018 -16.101  -0.942  0.00  0.00    -0.062 A 
ATOM     10  C   UNL     1      -4.413 -14.783  -0.832  0.00  0.00    +0.025 A 
BRANCH   9  11
ATOM     11  C   UNL     1      -4.871 -17.082  -1.704  0.00  0.00    -0.042 C 
BRANCH  11  12
ATOM     12  N   UNL     1      -5.842 -17.700  -0.791  0.00  0.00    +0.390 N 
ATOM     13  C   UNL     1      -6.843 -16.695  -0.352  0.00  0.00    -0.077 C 
ATOM     14  C   UNL     1      -8.046 -17.564   0.095  0.00  0.00    -0.020 C 
ATOM     15  C   UNL     1      -8.042 -18.715  -0.938  0.00  0.00    -0.008 C 
ATOM     16  C   UNL     1      -6.607 -18.751  -1.495  0.00  0.00    +0.019 C 
ATOM     17  H   UNL     1      -5.367 -18.091   0.009  0.00  0.00    -0.080 HD
BRANCH  16  18
ATOM     18  C   UNL     1      -5.988 -20.100  -1.232  0.00  0.00    +0.197 C 
ATOM     19  O   UNL     1      -5.005 -20.189  -0.528  0.00  0.00    -0.278 OA
ATOM     20  N   UNL     1      -6.528 -21.207  -1.779  0.00  0.00    -0.331 N 
ATOM     21  H   UNL     1      -7.314 -21.136  -2.342  0.00  0.00    +0.145 HD
ATOM     22  H   UNL     1      -6.129 -22.075  -1.610  0.00  0.00    +0.145 HD
ENDBRANCH  16  18
ENDBRANCH  11  12
ENDBRANCH   9  11
ENDBRANCH   3   5
BRANCH   1  24
ATOM     23  C   UNL     1      -2.580  -9.181  -0.017  0.00  0.00    +0.013 C 
ATOM     24  C   UNL     1      -3.507 -10.159  -0.016  0.00  0.00    +0.068 C 
BRANCH  23  29
ATOM     25  C   UNL     1      -2.442  -5.429   0.004  0.00  0.00    +0.122 A 
ATOM     26  C   UNL     1      -3.795  -5.113   0.015  0.00  0.00    +0.046 A 
ATOM     27  C   UNL     1      -4.746  -6.117   0.016  0.00  0.00    +0.004 A 
ATOM     28  C   UNL     1      -4.358  -7.441   0.006  0.00  0.00    +0.008 A 
ATOM     29  C   UNL     1      -2.999  -7.770  -0.006  0.00  0.00    -0.021 A 
ATOM     30  C   UNL     1      -2.040  -6.753  -0.012  0.00  0.00    +0.053 A 
BRANCH  25  31
ATOM     31  O   UNL     1      -1.514  -4.437   0.004  0.00  0.00    -0.486 OA
BRANCH  31  32
ATOM     32  C   UNL     1      -2.000  -3.093   0.021  0.00  0.00    +0.285 C 
BRANCH  32  36
ATOM     33  C   UNL     1      -0.019   1.503   0.044  0.00  0.00    +0.073 C 
ATOM     34  C   UNL     1       0.001  -0.004   0.029  0.00  0.00    +0.076 A 
ATOM     35  N   UNL     1      -1.014  -0.831   0.032  0.00  0.00    -0.246 NA
ATOM     36  C   UNL     1      -0.834  -2.137   0.018  0.00  0.00    +0.086 A 
ATOM     37  C   UNL     1       0.448  -2.582   0.000  0.00  0.00    +0.073 A 
ATOM     38  S   UNL     1       1.334  -1.031  -0.002  0.00  0.00    -0.080 S 
ENDBRANCH  32  36
ENDBRANCH  31  32
ENDBRANCH  25  31
ENDBRANCH  23  29
ENDBRANCH   1  24
TORSDOF 9
