REMARK  Name = ZINC16886279
REMARK  8 active torsions:
REMARK  status: ('A' for Active; 'I' for Inactive)
REMARK    1  A    between atoms: C_1  and  C_2
REMARK    2  A    between atoms: C_4  and  C_25
REMARK    3  A    between atoms: C_5  and  C_9
REMARK    4  A    between atoms: C_6  and  C_8
REMARK    5  A    between atoms: C_9  and  C_10
REMARK    6  A    between atoms: C_11  and  C_24
REMARK    7  A    between atoms: C_15  and  O_16
REMARK    8  A    between atoms: C_21  and  C_23
REMARK                            x       y       z     vdW  Elec       q    Type
REMARK                         _______ _______ _______ _____ _____    ______ ____
ROOT
ATOM      1  C   UNL     1       1.407   1.377   0.410  0.00  0.00    +0.039 A 
ATOM      2  C   UNL     1       0.447   0.576  -0.179  0.00  0.00    +0.050 A 
ATOM      3  N   UNL     1       0.422  -0.718   0.102  0.00  0.00    -0.219 NA
ATOM      4  C   UNL     1       1.303  -1.249   0.938  0.00  0.00    +0.224 A 
ATOM      5  N   UNL     1       2.237  -0.514   1.522  0.00  0.00    -0.179 NA
ATOM      6  C   UNL     1       2.319   0.789   1.284  0.00  0.00    +0.221 A 
ATOM      7  N   UNL     1       1.245  -2.607   1.207  0.00  0.00    -0.261 N 
ATOM      8  C   UNL     1       2.160  -3.182   2.080  0.00  0.00    +0.188 A 
ATOM      9  N   UNL     1       3.160  -2.630   2.753  0.00  0.00    -0.126 NA
ATOM     10  N   UNL     1       3.901  -3.306   3.517  0.00  0.00    -0.145 NA
ATOM     11  C   UNL     1       3.738  -4.603   3.687  0.00  0.00    +0.101 A 
ATOM     12  S   UNL     1       2.332  -4.882   2.614  0.00  0.00    -0.036 S 
ATOM     13  C   UNL     1       4.514  -5.573   4.540  0.00  0.00    +0.075 C 
ATOM     14  C   UNL     1      -0.556   1.166  -1.136  0.00  0.00    +0.066 C 
ATOM     15  H   UNL     1       0.566  -3.157   0.785  0.00  0.00    +0.157 HD
ENDROOT
BRANCH   6  16
ATOM     16  O   UNL     1       3.277   1.538   1.884  0.00  0.00    -0.492 OA
ATOM     17  H   UNL     1       4.101   1.598   1.381  0.00  0.00    +0.294 HD
ENDBRANCH   6  16
BRANCH   1  18
ATOM     18  C   UNL     1       1.465   2.854   0.114  0.00  0.00    +0.078 C 
BRANCH  18  23
ATOM     19  C   UNL     1       1.310   5.822   5.070  0.00  0.00    +0.044 C 
ATOM     20  C   UNL     1       1.350   5.048   3.777  0.00  0.00    -0.050 A 
ATOM     21  C   UNL     1       2.549   4.877   3.111  0.00  0.00    +0.007 A 
ATOM     22  C   UNL     1       2.587   4.167   1.925  0.00  0.00    -0.046 A 
ATOM     23  C   UNL     1       1.425   3.628   1.406  0.00  0.00    -0.037 A 
ATOM     24  C   UNL     1       0.225   3.804   2.069  0.00  0.00    -0.046 A 
ATOM     25  C   UNL     1       0.188   4.510   3.257  0.00  0.00    +0.007 A 
ATOM     26  C   UNL     1      -1.043   3.221   1.500  0.00  0.00    +0.044 C 
ATOM     27  C   UNL     1       3.894   3.981   1.200  0.00  0.00    +0.044 C 
ENDBRANCH  18  23
ENDBRANCH   1  18
TORSDOF 3
