REMARK  Name = ZINC36045046
REMARK  10 active torsions:
REMARK  status: ('A' for Active; 'I' for Inactive)
REMARK    1  A    between atoms: C_1  and  C_2
REMARK    2  A    between atoms: C_5  and  N_9
REMARK    3  A    between atoms: C_7  and  C_8
REMARK    4  A    between atoms: C_11  and  C_27
REMARK    5  A    between atoms: C_15  and  C_17
REMARK    6  A    between atoms: C_17  and  N_18
REMARK    7  A    between atoms: N_18  and  C_19
REMARK    8  A    between atoms: C_22  and  C_24
REMARK    9  A    between atoms: C_24  and  C_25
REMARK   10  A    between atoms: C_24  and  C_26
REMARK                            x       y       z     vdW  Elec       q    Type
REMARK                         _______ _______ _______ _____ _____    ______ ____
ROOT
ATOM      1  N   UNL     1      -1.862  -1.286  -1.343  0.00  0.00    -0.287 N 
ATOM      2  C   UNL     1      -1.060  -1.437  -0.238  0.00  0.00    +0.122 A 
ATOM      3  C   UNL     1      -1.040  -2.762   0.055  0.00  0.00    +0.091 A 
ATOM      4  N   UNL     1      -1.812  -3.401  -0.850  0.00  0.00    -0.214 NA
ATOM      5  C   UNL     1      -2.312  -2.526  -1.687  0.00  0.00    +0.207 A 
ATOM      6  N   UNL     1      -3.158  -2.814  -2.750  0.00  0.00    -0.254 N 
ATOM      7  C   UNL     1      -3.533  -4.087  -2.987  0.00  0.00    +0.237 C 
ATOM      8  O   UNL     1      -3.131  -4.981  -2.272  0.00  0.00    -0.274 OA
ATOM      9  H   UNL     1      -3.479  -2.100  -3.322  0.00  0.00    +0.158 HD
ENDROOT
BRANCH   1  14
ATOM     10  C   UNL     1      -3.094   3.591  -3.971  0.00  0.00    +0.044 C 
ATOM     11  C   UNL     1      -2.767   2.296  -3.274  0.00  0.00    -0.047 A 
ATOM     12  C   UNL     1      -2.328   1.209  -4.007  0.00  0.00    +0.005 A 
ATOM     13  C   UNL     1      -2.027   0.021  -3.370  0.00  0.00    +0.026 A 
ATOM     14  C   UNL     1      -2.166  -0.081  -1.992  0.00  0.00    +0.049 A 
ATOM     15  C   UNL     1      -2.606   1.012  -1.259  0.00  0.00    +0.029 A 
ATOM     16  C   UNL     1      -2.901   2.200  -1.901  0.00  0.00    -0.046 A 
ATOM     17  C   UNL     1      -3.374   3.389  -1.105  0.00  0.00    +0.044 C 
ENDBRANCH   1  14
BRANCH   3  18
ATOM     18  C   UNL     1      -0.301  -3.396   1.173  0.00  0.00    +0.002 A 
ATOM     19  C   UNL     1       0.458  -2.615   2.042  0.00  0.00    +0.011 A 
ATOM     20  C   UNL     1       1.144  -3.210   3.081  0.00  0.00    +0.020 A 
ATOM     21  C   UNL     1       1.079  -4.581   3.261  0.00  0.00    +0.041 A 
ATOM     22  C   UNL     1       0.326  -5.362   2.401  0.00  0.00    +0.020 A 
ATOM     23  C   UNL     1      -0.368  -4.776   1.362  0.00  0.00    +0.011 A 
ATOM     24 CL   UNL     1       1.945  -5.324   4.569  0.00  0.00    -0.084 Cl
ENDBRANCH   3  18
BRANCH   7  25
ATOM     25  C   UNL     1      -4.450  -4.400  -4.141  0.00  0.00    +0.204 C 
BRANCH  25  26
ATOM     26  N   UNL     1      -4.706  -5.842  -4.185  0.00  0.00    -0.289 N 
ATOM     27  C   UNL     1      -3.935  -6.639  -4.951  0.00  0.00    +0.219 C 
ATOM     28  O   UNL     1      -4.205  -7.817  -5.063  0.00  0.00    -0.275 OA
BRANCH  26  29
ATOM     29  C   UNL     1      -5.798  -6.416  -3.396  0.00  0.00    +0.077 C 
ATOM     30  C   UNL     1      -5.792  -7.931  -3.179  0.00  0.00    +0.024 C 
ATOM     31  C   UNL     1      -6.811  -7.298  -4.130  0.00  0.00    +0.024 C 
ENDBRANCH  26  29
BRANCH  27  32
ATOM     32  C   UNL     1      -2.739  -6.069  -5.667  0.00  0.00    +0.069 C 
ATOM     33  C   UNL     1      -1.506  -6.177  -4.768  0.00  0.00    +0.017 C 
ATOM     34  C   UNL     1      -2.497  -6.852  -6.960  0.00  0.00    +0.017 C 
ENDBRANCH  27  32
ENDBRANCH  25  26
ENDBRANCH   7  25
TORSDOF 6
