REMARK  Name = ZINC35545349
REMARK  9 active torsions:
REMARK  status: ('A' for Active; 'I' for Inactive)
REMARK    1  A    between atoms: C_1  and  C_2
REMARK    2  A    between atoms: C_2  and  C_3
REMARK    3  A    between atoms: C_3  and  C_5
REMARK    4  A    between atoms: C_3  and  N_6
REMARK    5  A    between atoms: C_7  and  C_9
REMARK    6  A    between atoms: C_15  and  O_33
REMARK    7  A    between atoms: N_22  and  C_25
REMARK    8  A    between atoms: C_25  and  C_26
REMARK    9  A    between atoms: O_33  and  C_34
REMARK                            x       y       z     vdW  Elec       q    Type
REMARK                         _______ _______ _______ _____ _____    ______ ____
ROOT
ATOM      1  C   UNL     1       4.271   0.470  -2.304  0.00  0.00    +0.098 C 
ATOM      2  C   UNL     1       4.384   1.837  -1.630  0.00  0.00    +0.051 C 
ATOM      3  C   UNL     1       3.709   2.876  -2.486  0.00  0.00    -0.025 A 
ATOM      4  C   UNL     1       3.214   4.024  -1.891  0.00  0.00    +0.009 A 
ATOM      5  C   UNL     1       2.587   4.988  -2.656  0.00  0.00    +0.046 A 
ATOM      6  C   UNL     1       2.450   4.808  -4.026  0.00  0.00    +0.122 A 
ATOM      7  C   UNL     1       2.946   3.663  -4.624  0.00  0.00    +0.069 A 
ATOM      8  C   UNL     1       3.580   2.695  -3.853  0.00  0.00    +0.037 A 
ATOM      9  N   UNL     1       4.083   1.549  -4.491  0.00  0.00    -0.329 N 
ATOM     10  C   UNL     1       4.826   0.557  -3.730  0.00  0.00    +0.069 C 
ATOM     11  C   UNL     1       4.801  -0.829  -4.354  0.00  0.00    -0.055 C 
ATOM     12  N   UNL     1       4.889  -0.773  -5.813  0.00  0.00    +0.385 N 
ATOM     13  C   UNL     1       3.723  -0.043  -6.332  0.00  0.00    -0.059 C 
ATOM     14  C   UNL     1       3.855   1.426  -5.933  0.00  0.00    +0.087 C 
ATOM     15  H   UNL     1       5.735  -0.293  -6.082  0.00  0.00    -0.081 HD
ENDROOT
BRANCH   1  17
ATOM     16  N   UNL     1       2.125  -0.091  -1.209  0.00  0.00    -0.312 N 
ATOM     17  C   UNL     1       2.824   0.051  -2.353  0.00  0.00    +0.218 C 
ATOM     18  O   UNL     1       2.289  -0.157  -3.421  0.00  0.00    -0.275 OA
ATOM     19  H   UNL     1       2.553   0.075  -0.355  0.00  0.00    +0.149 HD
BRANCH  16  20
ATOM     20  C   UNL     1       0.718  -0.497  -1.257  0.00  0.00    +0.070 C 
ATOM     21  C   UNL     1       0.630  -2.023  -1.329  0.00  0.00    +0.028 C 
BRANCH  20  23
ATOM     22  C   UNL     1      -0.019   1.526   0.010  0.00  0.00    +0.005 C 
ATOM     23  C   UNL     1       0.002  -0.004   0.002  0.00  0.00    +0.018 C 
ENDBRANCH  20  23
ENDBRANCH  16  20
ENDBRANCH   1  17
BRANCH   6  24
ATOM     24  O   UNL     1       1.831   5.756  -4.777  0.00  0.00    -0.495 OA
ATOM     25  C   UNL     1       1.344   6.912  -4.093  0.00  0.00    +0.277 C 
ENDBRANCH   6  24
BRANCH  12  26
ATOM     26  C   UNL     1       4.898  -2.137  -6.358  0.00  0.00    -0.043 C 
BRANCH  26  27
ATOM     27  C   UNL     1       5.112  -2.080  -7.849  0.00  0.00    -0.064 A 
ATOM     28  C   UNL     1       4.026  -1.990  -8.699  0.00  0.00    +0.003 A 
ATOM     29  C   UNL     1       4.221  -1.938 -10.067  0.00  0.00    +0.020 A 
ATOM     30  C   UNL     1       5.504  -1.977 -10.584  0.00  0.00    +0.041 A 
ATOM     31  C   UNL     1       6.590  -2.067  -9.732  0.00  0.00    +0.020 A 
ATOM     32  C   UNL     1       6.394  -2.113  -8.365  0.00  0.00    +0.003 A 
ATOM     33 CL   UNL     1       5.750  -1.912 -12.301  0.00  0.00    -0.084 Cl
ENDBRANCH  26  27
ENDBRANCH  12  26
TORSDOF 6
