REMARK  Name = ZINC01021438
REMARK  7 active torsions:
REMARK  status: ('A' for Active; 'I' for Inactive)
REMARK    1  A    between atoms: C_4  and  O_27
REMARK    2  A    between atoms: C_5  and  C_7
REMARK    3  A    between atoms: N_8  and  C_9
REMARK    4  A    between atoms: C_14  and  C_15
REMARK    5  A    between atoms: N_17  and  N_18
REMARK    6  A    between atoms: C_19  and  C_20
REMARK    7  A    between atoms: C_25  and  O_26
REMARK                            x       y       z     vdW  Elec       q    Type
REMARK                         _______ _______ _______ _____ _____    ______ ____
ROOT
ATOM      1  C   UNL     1       4.828   9.470   0.012  0.00  0.00    +0.076 A 
ATOM      2  C   UNL     1       6.018  10.146   0.287  0.00  0.00    +0.028 A 
ATOM      3  C   UNL     1       7.216   9.464   0.277  0.00  0.00    +0.002 A 
ATOM      4  C   UNL     1       7.251   8.107  -0.004  0.00  0.00    +0.001 A 
ATOM      5  C   UNL     1       6.088   7.418  -0.273  0.00  0.00    +0.015 A 
ATOM      6  C   UNL     1       4.864   8.089  -0.274  0.00  0.00    +0.064 A 
ENDROOT
BRANCH   6   7
ATOM      7  C   UNL     1       3.617   7.359  -0.566  0.00  0.00    +0.265 C 
ATOM      8  O   UNL     1       2.552   7.947  -0.561  0.00  0.00    -0.268 OA
ATOM      9  N   UNL     1       3.657   6.040  -0.839  0.00  0.00    -0.203 N 
ATOM     10  H   UNL     1       4.506   5.571  -0.843  0.00  0.00    +0.178 HD
BRANCH   9  11
ATOM     11  N   UNL     1       2.472   5.346  -1.116  0.00  0.00    -0.187 NA
ATOM     12  C   UNL     1       2.510   4.075  -1.379  0.00  0.00    +0.142 C 
BRANCH  12  13
ATOM     13  C   UNL     1       1.264   3.345  -1.671  0.00  0.00    +0.036 A 
ATOM     14  C   UNL     1       1.300   1.978  -1.954  0.00  0.00    +0.013 A 
ATOM     15  C   UNL     1       0.131   1.301  -2.226  0.00  0.00    +0.001 A 
ATOM     16  C   UNL     1      -1.081   1.971  -2.225  0.00  0.00    +0.004 A 
ATOM     17  C   UNL     1      -1.131   3.323  -1.941  0.00  0.00    +0.046 A 
ATOM     18  C   UNL     1       0.035   4.019  -1.666  0.00  0.00    +0.125 A 
BRANCH  18  19
ATOM     19  O   UNL     1      -0.013   5.348  -1.392  0.00  0.00    -0.506 OA
ATOM     20  H   UNL     1       0.069   5.914  -2.171  0.00  0.00    +0.292 HD
ENDBRANCH  18  19
ENDBRANCH  12  13
ENDBRANCH   9  11
ENDBRANCH   6   7
BRANCH   1  22
ATOM     21  C   UNL     1       3.522  11.270  -0.621  0.00  0.00    +0.123 C 
ATOM     22  N   UNL     1       3.639  10.139   0.021  0.00  0.00    -0.254 NA
BRANCH  21  27
ATOM     23  C   UNL     1       0.984  13.987  -1.098  0.00  0.00    +0.001 A 
ATOM     24  C   UNL     1      -0.062  13.521  -0.318  0.00  0.00    +0.004 A 
ATOM     25  C   UNL     1       0.052  12.326   0.365  0.00  0.00    +0.046 A 
ATOM     26  C   UNL     1       1.218  11.582   0.273  0.00  0.00    +0.125 A 
ATOM     27  C   UNL     1       2.281  12.049  -0.515  0.00  0.00    +0.034 A 
ATOM     28  C   UNL     1       2.153  13.265  -1.196  0.00  0.00    +0.013 A 
BRANCH  26  29
ATOM     29  O   UNL     1       1.331  10.407   0.943  0.00  0.00    -0.506 OA
ATOM     30  H   UNL     1       1.693  10.496   1.835  0.00  0.00    +0.292 HD
ENDBRANCH  26  29
ENDBRANCH  21  27
ENDBRANCH   1  22
TORSDOF 7
