REMARK  Name = ZINC05928949
REMARK  11 active torsions:
REMARK  status: ('A' for Active; 'I' for Inactive)
REMARK    1  A    between atoms: C_1  and  C_2
REMARK    2  A    between atoms: C_5  and  N_8
REMARK    3  A    between atoms: C_9  and  C_11
REMARK    4  A    between atoms: C_11  and  O_12
REMARK    5  A    between atoms: O_12  and  C_13
REMARK    6  A    between atoms: C_16  and  C_19
REMARK    7  A    between atoms: N_20  and  N_21
REMARK    8  A    between atoms: C_22  and  C_24
REMARK    9  A    between atoms: N_26  and  C_27
REMARK   10  A    between atoms: C_27  and  C_28
REMARK   11  A    between atoms: C_27  and  C_29
REMARK                            x       y       z     vdW  Elec       q    Type
REMARK                         _______ _______ _______ _____ _____    ______ ____
ROOT
ATOM      1  C   UNL     1       0.545  -8.175   2.625  0.00  0.00    +0.121 A 
ATOM      2  C   UNL     1       0.571  -9.008   1.514  0.00  0.00    +0.046 A 
ATOM      3  C   UNL     1       0.701 -10.370   1.674  0.00  0.00    +0.013 A 
ATOM      4  C   UNL     1       0.806 -10.914   2.958  0.00  0.00    -0.005 A 
ATOM      5  C   UNL     1       0.779 -10.071   4.073  0.00  0.00    +0.013 A 
ATOM      6  C   UNL     1       0.654  -8.710   3.902  0.00  0.00    +0.046 A 
ENDROOT
BRANCH   4   7
ATOM      7  C   UNL     1       0.944 -12.370   3.135  0.00  0.00    +0.138 C 
ATOM      8  N   UNL     1       1.042 -12.873   4.329  0.00  0.00    -0.187 NA
BRANCH   8   9
ATOM      9  N   UNL     1       1.174 -14.258   4.497  0.00  0.00    -0.199 N 
ATOM     10  C   UNL     1       1.275 -14.779   5.736  0.00  0.00    +0.318 C 
ATOM     11  O   UNL     1       1.252 -14.049   6.706  0.00  0.00    -0.263 OA
ATOM     12  H   UNL     1       1.192 -14.841   3.722  0.00  0.00    +0.178 HD
BRANCH  10  13
ATOM     13  C   UNL     1       1.415 -16.253   5.915  0.00  0.00    +0.301 C 
ATOM     14  O   UNL     1       1.438 -16.983   4.945  0.00  0.00    -0.265 OA
ATOM     15  N   UNL     1       1.516 -16.775   7.154  0.00  0.00    -0.305 N 
ATOM     16  H   UNL     1       1.498 -16.192   7.928  0.00  0.00    +0.149 HD
BRANCH  15  17
ATOM     17  C   UNL     1       1.654 -18.223   7.330  0.00  0.00    +0.067 C 
ATOM     18  C   UNL     1       3.127 -18.614   7.203  0.00  0.00    +0.027 C 
ATOM     19  C   UNL     1       1.138 -18.620   8.714  0.00  0.00    +0.027 C 
ENDBRANCH  15  17
ENDBRANCH  10  13
ENDBRANCH   8   9
ENDBRANCH   4   7
BRANCH   1  20
ATOM     20  O   UNL     1       0.417  -6.833   2.462  0.00  0.00    -0.483 OA
BRANCH  20  21
ATOM     21  C   UNL     1       0.309  -6.349   1.121  0.00  0.00    +0.324 C 
BRANCH  21  23
ATOM     22  N   UNL     1       0.059  -4.170  -0.021  0.00  0.00    -0.283 N 
ATOM     23  C   UNL     1       0.175  -4.848   1.138  0.00  0.00    +0.255 C 
ATOM     24  O   UNL     1       0.173  -4.251   2.193  0.00  0.00    -0.272 OA
ATOM     25  H   UNL     1      -0.017  -4.651  -0.860  0.00  0.00    +0.155 HD
BRANCH  22  30
ATOM     26  C   UNL     1       0.008   1.503   0.007  0.00  0.00    +0.044 C 
ATOM     27  C   UNL     1       0.022  -0.004  -0.001  0.00  0.00    -0.050 A 
ATOM     28  C   UNL     1       0.777  -0.692   0.931  0.00  0.00    +0.005 A 
ATOM     29  C   UNL     1       0.791  -2.073   0.927  0.00  0.00    +0.023 A 
ATOM     30  C   UNL     1       0.046  -2.771  -0.014  0.00  0.00    +0.034 A 
ATOM     31  C   UNL     1      -0.712  -2.077  -0.948  0.00  0.00    +0.023 A 
ATOM     32  C   UNL     1      -0.726  -0.696  -0.936  0.00  0.00    +0.005 A 
ENDBRANCH  22  30
ENDBRANCH  21  23
ENDBRANCH  20  21
ENDBRANCH   1  20
TORSDOF 8
