REMARK  Name = ZINC44428327
REMARK  5 active torsions:
REMARK  status: ('A' for Active; 'I' for Inactive)
REMARK    1  A    between atoms: C_3  and  C_6
REMARK    2  A    between atoms: C_8  and  C_12
REMARK    3  A    between atoms: C_14  and  C_17
REMARK    4  A    between atoms: N_22  and  C_24
REMARK    5  A    between atoms: C_24  and  C_25
REMARK                            x       y       z     vdW  Elec       q    Type
REMARK                         _______ _______ _______ _____ _____    ______ ____
ROOT
ATOM      1  C   UNL     1       7.394   1.456  -0.071  0.00  0.00    +0.276 A 
ATOM      2  N   UNL     1       8.433   2.265  -0.071  0.00  0.00    -0.190 NA
ATOM      3  C   UNL     1       9.563   1.555  -0.091  0.00  0.00    +0.177 A 
ATOM      4  N   UNL     1       9.270   0.285  -0.105  0.00  0.00    -0.060 NA
ATOM      5  O   UNL     1       7.853   0.192  -0.087  0.00  0.00    -0.331 OA
ENDROOT
BRANCH   1   8
ATOM      6  C   UNL     1       3.741   1.826  -0.025  0.00  0.00    +0.100 A 
ATOM      7  C   UNL     1       4.897   1.028  -0.045  0.00  0.00    +0.063 A 
ATOM      8  C   UNL     1       5.980   1.864  -0.051  0.00  0.00    +0.123 A 
ATOM      9  N   UNL     1       5.508   3.147  -0.034  0.00  0.00    -0.272 N 
ATOM     10  H   UNL     1       6.048   3.953  -0.033  0.00  0.00    +0.189 HD
ATOM     11  N   UNL     1       4.109   3.092  -0.022  0.00  0.00    -0.173 NA
BRANCH   6  14
ATOM     12  C   UNL     1      -0.016   1.353   0.009  0.00  0.00    +0.008 A 
ATOM     13  C   UNL     1       1.178   2.041   0.002  0.00  0.00    +0.018 A 
ATOM     14  C   UNL     1       2.347   1.329  -0.013  0.00  0.00    +0.039 A 
ATOM     15  S   UNL     1       1.752  -0.354  -0.017  0.00  0.00    -0.095 S 
ATOM     16  C   UNL     1       0.002  -0.004   0.002  0.00  0.00    +0.046 A 
ENDBRANCH   6  14
ENDBRANCH   1   8
BRANCH   3  17
ATOM     17  C   UNL     1      10.956   2.130  -0.098  0.00  0.00    +0.086 C 
ATOM     18  C   UNL     1      11.791   1.571   1.077  0.00  0.00    +0.109 C 
ATOM     19  C   UNL     1      13.180   1.410   0.500  0.00  0.00    +0.217 C 
ATOM     20  O   UNL     1      14.191   1.264   1.154  0.00  0.00    -0.276 OA
ATOM     21  N   UNL     1      13.131   1.451  -0.842  0.00  0.00    -0.296 N 
ATOM     22  C   UNL     1      11.755   1.629  -1.321  0.00  0.00    +0.120 C 
BRANCH  21  23
ATOM     23  C   UNL     1      14.301   1.334  -1.716  0.00  0.00    +0.143 C 
BRANCH  23  24
ATOM     24  C   UNL     1      14.534  -0.116  -2.053  0.00  0.00    -0.026 A 
ATOM     25  C   UNL     1      15.342  -0.892  -1.243  0.00  0.00    +0.009 A 
ATOM     26  C   UNL     1      15.558  -2.223  -1.548  0.00  0.00    +0.050 A 
ATOM     27  C   UNL     1      14.964  -2.783  -2.668  0.00  0.00    +0.166 A 
ATOM     28  C   UNL     1      14.150  -2.001  -3.484  0.00  0.00    +0.167 A 
ATOM     29  C   UNL     1      13.933  -0.670  -3.169  0.00  0.00    +0.054 A 
ATOM     30  O   UNL     1      13.689  -2.775  -4.510  0.00  0.00    -0.453 OA
ATOM     31  C   UNL     1      14.555  -3.926  -4.542  0.00  0.00    +0.466 C 
ATOM     32  O   UNL     1      15.014  -4.046  -3.182  0.00  0.00    -0.453 OA
ENDBRANCH  23  24
ENDBRANCH  21  23
ENDBRANCH   3  17
TORSDOF 5
