REMARK  Name = ZINC65366170
REMARK  8 active torsions:
REMARK  status: ('A' for Active; 'I' for Inactive)
REMARK    1  A    between atoms: C_1  and  C_2
REMARK    2  A    between atoms: C_2  and  C_3
REMARK    3  A    between atoms: C_3  and  N_4
REMARK    4  A    between atoms: C_5  and  C_26
REMARK    5  A    between atoms: C_7  and  C_10
REMARK    6  A    between atoms: N_12  and  C_13
REMARK    7  A    between atoms: N_12  and  C_14
REMARK    8  A    between atoms: C_14  and  C_15
REMARK                            x       y       z     vdW  Elec       q    Type
REMARK                         _______ _______ _______ _____ _____    ______ ____
ROOT
ATOM      1  C   UNL     1       0.683  -4.060  -4.365  0.00  0.00    +0.245 C 
ATOM      2  O   UNL     1      -0.248  -4.635  -4.900  0.00  0.00    -0.270 OA
ATOM      3  N   UNL     1       1.913  -4.111  -4.915  0.00  0.00    -0.297 N 
ATOM      4  C   UNL     1       3.054  -3.522  -4.212  0.00  0.00    +0.132 C 
ENDROOT
BRANCH   1   7
ATOM      5  N   UNL     1       0.189  -2.723  -0.909  0.00  0.00    -0.222 NA
ATOM      6  C   UNL     1       0.434  -3.903  -1.761  0.00  0.00    +0.109 C 
ATOM      7  C   UNL     1       0.474  -3.339  -3.166  0.00  0.00    +0.048 C 
ATOM      8  C   UNL     1       0.271  -2.012  -3.045  0.00  0.00    +0.094 C 
ATOM      9  N   UNL     1       0.105  -1.650  -1.747  0.00  0.00    -0.284 N 
ATOM     10  C   UNL     1      -0.705  -4.915  -1.618  0.00  0.00    +0.031 C 
ATOM     11  H   UNL     1      -0.053  -0.740  -1.452  0.00  0.00    +0.166 HD
BRANCH   5  12
ATOM     12  C   UNL     1       1.272  -2.545   0.068  0.00  0.00    +0.106 C 
BRANCH  12  14
ATOM     13  C   UNL     1       2.072  -1.177   1.999  0.00  0.00    +0.005 C 
ATOM     14  C   UNL     1       0.945  -1.362   0.982  0.00  0.00    +0.014 C 
ENDBRANCH  12  14
ENDBRANCH   5  12
ENDBRANCH   1   7
BRANCH   3  15
ATOM     15  C   UNL     1       2.107  -4.756  -6.216  0.00  0.00    +0.154 C 
BRANCH  15  16
ATOM     16  C   UNL     1       1.931  -3.722  -7.330  0.00  0.00    +0.192 C 
ATOM     17  N   UNL     1       2.880  -2.616  -7.145  0.00  0.00    -0.362 N 
ATOM     18  C   UNL     1       2.186  -1.527  -6.990  0.00  0.00    +0.060 A 
ATOM     19  C   UNL     1       2.566  -0.124  -6.769  0.00  0.00    +0.030 A 
ATOM     20  C   UNL     1       1.606   0.813  -6.641  0.00  0.00    +0.040 A 
ATOM     21  C   UNL     1       0.232   0.506  -6.711  0.00  0.00    +0.125 A 
ATOM     22  C   UNL     1      -0.223  -0.750  -6.910  0.00  0.00    +0.065 A 
ATOM     23  C   UNL     1       0.735  -1.851  -7.063  0.00  0.00    +0.063 A 
ATOM     24  N   UNL     1       0.588  -3.132  -7.262  0.00  0.00    -0.362 N 
ATOM     25  F   UNL     1      -0.665   1.507  -6.572  0.00  0.00    -0.205 F 
ATOM     26  H   UNL     1       3.847  -2.686  -7.139  0.00  0.00    +0.162 HD
ATOM     27  H   UNL     1      -0.253  -3.607  -7.349  0.00  0.00    +0.162 HD
ENDBRANCH  15  16
ENDBRANCH   3  15
TORSDOF 5
