REMARK  Name = ZINC52879543
REMARK  3 active torsions:
REMARK  status: ('A' for Active; 'I' for Inactive)
REMARK    1  A    between atoms: C_1  and  C_2
REMARK    2  A    between atoms: C_2  and  C_16
REMARK    3  A    between atoms: N_5  and  C_9
REMARK                            x       y       z     vdW  Elec       q    Type
REMARK                         _______ _______ _______ _____ _____    ______ ____
ROOT
ATOM      1  C   UNL     1      -0.019   1.526   0.010  0.00  0.00    +0.047 C 
ATOM      2  C   UNL     1       0.002  -0.004   0.002  0.00  0.00    +0.135 C 
ATOM      3  C   UNL     1      -1.403  -0.557   0.139  0.00  0.00    +0.255 C 
ATOM      4  O   UNL     1      -2.332  -0.392  -0.621  0.00  0.00    -0.272 OA
ATOM      5  N   UNL     1      -1.403  -1.272   1.282  0.00  0.00    -0.189 N 
ATOM      6  C   UNL     1      -0.206  -1.247   1.879  0.00  0.00    +0.314 C 
ATOM      7  O   UNL     1       0.040  -1.819   2.924  0.00  0.00    -0.252 OA
ATOM      8  N   UNL     1       0.695  -0.520   1.195  0.00  0.00    -0.281 N 
ATOM      9  H   UNL     1       1.621  -0.365   1.440  0.00  0.00    +0.152 HD
ENDROOT
BRANCH   5  10
ATOM     10  C   UNL     1      -2.520  -1.956   1.783  0.00  0.00    +0.081 A 
ATOM     11  C   UNL     1      -2.745  -3.277   1.423  0.00  0.00    +0.027 A 
ATOM     12  C   UNL     1      -3.846  -3.949   1.919  0.00  0.00    +0.002 A 
ATOM     13  C   UNL     1      -4.724  -3.307   2.773  0.00  0.00    +0.003 A 
ATOM     14  C   UNL     1      -4.504  -1.991   3.134  0.00  0.00    +0.040 A 
ATOM     15  C   UNL     1      -3.401  -1.314   2.646  0.00  0.00    +0.145 A 
ATOM     16  F   UNL     1      -3.182  -0.030   3.004  0.00  0.00    -0.204 F 
ENDBRANCH   5  10
BRANCH   2  17
ATOM     17  C   UNL     1       0.657  -0.517  -1.255  0.00  0.00    -0.016 A 
ATOM     18  C   UNL     1      -0.107  -0.772  -2.378  0.00  0.00    +0.006 A 
ATOM     19  C   UNL     1       0.493  -1.242  -3.530  0.00  0.00    +0.000 A 
ATOM     20  C   UNL     1       1.859  -1.457  -3.560  0.00  0.00    +0.000 A 
ATOM     21  C   UNL     1       2.623  -1.202  -2.437  0.00  0.00    +0.000 A 
ATOM     22  C   UNL     1       2.023  -0.727  -1.286  0.00  0.00    +0.006 A 
ENDBRANCH   2  17
TORSDOF 2
