REMARK  Name = ZINC05351339
REMARK  4 active torsions:
REMARK  status: ('A' for Active; 'I' for Inactive)
REMARK    1  A    between atoms: C_5  and  N_8
REMARK    2  A    between atoms: C_9  and  C_11
REMARK    3  A    between atoms: N_13  and  C_14
REMARK    4  A    between atoms: C_14  and  C_15
REMARK                            x       y       z     vdW  Elec       q    Type
REMARK                         _______ _______ _______ _____ _____    ______ ____
ROOT
ATOM      1  C   UNL     1      -1.156  -0.694   0.009  0.00  0.00    +0.299 C 
ATOM      2  O   UNL     1      -2.215  -0.101   0.023  0.00  0.00    -0.265 OA
ATOM      3  N   UNL     1       0.002  -0.004   0.002  0.00  0.00    -0.305 N 
ATOM      4  H   UNL     1       0.849  -0.478  -0.009  0.00  0.00    +0.149 HD
ENDROOT
BRANCH   1   6
ATOM      5  N   UNL     1      -2.293  -2.878   0.009  0.00  0.00    -0.305 N 
ATOM      6  C   UNL     1      -1.136  -2.188   0.001  0.00  0.00    +0.299 C 
ATOM      7  O   UNL     1      -0.077  -2.780  -0.012  0.00  0.00    -0.265 OA
ATOM      8  H   UNL     1      -3.140  -2.404   0.019  0.00  0.00    +0.149 HD
BRANCH   5  13
ATOM      9  C   UNL     1      -2.719  -7.291  -1.501  0.00  0.00    +0.000 C 
ATOM     10  C   UNL     1      -3.932  -6.925  -0.624  0.00  0.00    +0.000 C 
ATOM     11  C   UNL     1      -3.528  -6.373   0.716  0.00  0.00    +0.002 C 
ATOM     12  C   UNL     1      -3.495  -4.834   0.622  0.00  0.00    +0.022 C 
ATOM     13  C   UNL     1      -2.274  -4.343   0.000  0.00  0.00    +0.073 C 
ATOM     14  C   UNL     1      -2.118  -4.832  -1.454  0.00  0.00    +0.022 C 
ATOM     15  C   UNL     1      -1.592  -6.242  -1.429  0.00  0.00    +0.002 C 
ENDBRANCH   5  13
ENDBRANCH   1   6
BRANCH   3  16
ATOM     16  C   UNL     1      -0.018   1.461   0.010  0.00  0.00    +0.138 C 
BRANCH  16  17
ATOM     17  C   UNL     1       1.418   1.990  -0.001  0.00  0.00    +0.164 C 
ATOM     18  C   UNL     1       1.431   3.533   0.072  0.00  0.00    +0.196 C 
ATOM     19  O   UNL     1       2.479   3.941  -0.828  0.00  0.00    -0.346 OA
ATOM     20  C   UNL     1       3.062   2.745  -1.363  0.00  0.00    +0.171 C 
ATOM     21  O   UNL     1       2.056   1.716  -1.272  0.00  0.00    -0.342 OA
ATOM     22  C   UNL     1       4.283   2.343  -0.540  0.00  0.00    +0.065 C 
ATOM     23  C   UNL     1       5.346   3.440  -0.633  0.00  0.00    +0.005 C 
ATOM     24  C   UNL     1       5.745   3.639  -2.097  0.00  0.00    +0.000 C 
ATOM     25  C   UNL     1       4.518   4.056  -2.910  0.00  0.00    +0.005 C 
ATOM     26  C   UNL     1       3.453   2.960  -2.823  0.00  0.00    +0.065 C 
ENDBRANCH  16  17
ENDBRANCH   3  16
TORSDOF 4
