REMARK  Name = ZINC16534468
REMARK  12 active torsions:
REMARK  status: ('A' for Active; 'I' for Inactive)
REMARK    1  A    between atoms: C_1  and  C_2
REMARK    2  A    between atoms: C_2  and  C_3
REMARK    3  A    between atoms: C_3  and  N_4
REMARK    4  A    between atoms: N_4  and  C_5
REMARK    5  A    between atoms: C_5  and  C_6
REMARK    6  A    between atoms: N_10  and  C_11
REMARK    7  A    between atoms: C_11  and  C_12
REMARK    8  A    between atoms: C_14  and  C_17
REMARK    9  A    between atoms: C_21  and  C_30
REMARK   10  A    between atoms: C_26  and  C_28
REMARK   11  A    between atoms: C_26  and  C_29
REMARK   12  A    between atoms: C_31  and  C_33
REMARK                            x       y       z     vdW  Elec       q    Type
REMARK                         _______ _______ _______ _____ _____    ______ ____
ROOT
ATOM      1  C   UNL     1      -5.771   4.021  -2.065  0.00  0.00    +0.036 A 
ATOM      2  C   UNL     1      -5.941   4.646  -3.248  0.00  0.00    +0.024 A 
ATOM      3  C   UNL     1      -4.866   5.542  -3.410  0.00  0.00    +0.019 A 
ATOM      4  C   UNL     1      -4.083   5.436  -2.317  0.00  0.00    +0.086 A 
ATOM      5  N   UNL     1      -4.630   4.500  -1.491  0.00  0.00    -0.343 N 
ENDROOT
BRANCH   1   6
ATOM      6  C   UNL     1      -6.683   2.975  -1.480  0.00  0.00    +0.161 C 
BRANCH   6   7
ATOM      7  N   UNL     1      -8.036   3.154  -2.011  0.00  0.00    -0.292 N 
ATOM      8  C   UNL     1      -8.377   2.595  -3.189  0.00  0.00    +0.250 C 
ATOM      9  O   UNL     1      -7.577   1.902  -3.787  0.00  0.00    -0.270 OA
BRANCH   8  10
ATOM     10  C   UNL     1      -9.722   2.823  -3.754  0.00  0.00    +0.072 A 
ATOM     11  C   UNL     1     -10.383   4.032  -3.525  0.00  0.00    +0.016 A 
ATOM     12  C   UNL     1     -11.637   4.242  -4.059  0.00  0.00    +0.001 A 
ATOM     13  C   UNL     1     -12.247   3.253  -4.813  0.00  0.00    +0.003 A 
ATOM     14  C   UNL     1     -11.604   2.051  -5.040  0.00  0.00    +0.039 A 
ATOM     15  C   UNL     1     -10.343   1.829  -4.516  0.00  0.00    +0.135 A 
ATOM     16  F   UNL     1      -9.714   0.654  -4.738  0.00  0.00    -0.205 F 
ENDBRANCH   8  10
BRANCH   7  17
ATOM     17  C   UNL     1      -9.019   3.941  -1.263  0.00  0.00    +0.108 C 
BRANCH  17  19
ATOM     18  C   UNL     1      -9.611   6.229  -0.453  0.00  0.00    +0.005 C 
ATOM     19  C   UNL     1      -8.584   5.407  -1.235  0.00  0.00    +0.016 C 
ENDBRANCH  17  19
ENDBRANCH   7  17
ENDBRANCH   6   7
ENDBRANCH   1   6
BRANCH   5  20
ATOM     20  C   UNL     1      -4.086   4.081  -0.197  0.00  0.00    +0.184 C 
BRANCH  20  21
ATOM     21  C   UNL     1      -3.254   2.838  -0.380  0.00  0.00    +0.099 A 
ATOM     22  N   UNL     1      -1.998   2.741  -0.730  0.00  0.00    -0.238 NA
ATOM     23  C   UNL     1      -1.428   1.540  -0.842  0.00  0.00    +0.133 A 
ATOM     24  C   UNL     1      -2.207   0.442  -0.583  0.00  0.00    +0.080 A 
ATOM     25  S   UNL     1      -3.724   1.181  -0.179  0.00  0.00    -0.078 S 
BRANCH  23  26
ATOM     26  C   UNL     1      -0.015   1.399  -1.235  0.00  0.00    +0.266 C 
ATOM     27  O   UNL     1       0.481   0.293  -1.330  0.00  0.00    -0.268 OA
ATOM     28  N   UNL     1       0.727   2.496  -1.488  0.00  0.00    -0.293 N 
ATOM     29  C   UNL     1       0.257   3.888  -1.413  0.00  0.00    +0.115 C 
ATOM     30  C   UNL     1       1.485   4.778  -1.720  0.00  0.00    -0.014 C 
ATOM     31  C   UNL     1       2.331   3.858  -2.640  0.00  0.00    +0.030 C 
ATOM     32  C   UNL     1       2.143   2.509  -1.903  0.00  0.00    +0.077 C 
ATOM     33  C   UNL     1       3.033   2.551  -0.662  0.00  0.00    +0.029 C 
ATOM     34  C   UNL     1       2.758   3.734   0.249  0.00  0.00    -0.033 C 
ATOM     35  C   UNL     1       2.269   4.998  -0.430  0.00  0.00    +0.014 C 
ATOM     36  C   UNL     1       4.089   4.081   0.961  0.00  0.00    +0.011 C 
ATOM     37  C   UNL     1       1.773   3.318   1.353  0.00  0.00    +0.011 C 
ATOM     38  C   UNL     1       1.091   6.094  -2.409  0.00  0.00    +0.013 C 
ENDBRANCH  23  26
ENDBRANCH  20  21
ENDBRANCH   5  20
TORSDOF 8
