REMARK  Name = ZINC38549287
REMARK  6 active torsions:
REMARK  status: ('A' for Active; 'I' for Inactive)
REMARK    1  A    between atoms: C_3  and  N_11
REMARK    2  A    between atoms: C_5  and  O_7
REMARK    3  A    between atoms: O_7  and  C_8
REMARK    4  A    between atoms: C_12  and  C_14
REMARK    5  A    between atoms: C_14  and  C_15
REMARK    6  A    between atoms: C_21  and  C_23
REMARK                            x       y       z     vdW  Elec       q    Type
REMARK                         _______ _______ _______ _____ _____    ______ ____
ROOT
ATOM      1  C   UNL     1       4.559   5.716  -0.328  0.00  0.00    +0.059 A 
ATOM      2  C   UNL     1       5.122   6.605   0.527  0.00  0.00    +0.072 A 
ATOM      3  S   UNL     1       4.409   8.132  -0.063  0.00  0.00    -0.060 S 
ATOM      4  C   UNL     1       3.485   7.489  -1.314  0.00  0.00    +0.165 A 
ATOM      5  N   UNL     1       3.743   6.201  -1.246  0.00  0.00    -0.229 NA
ATOM      6  N   UNL     1       2.656   8.157  -2.206  0.00  0.00    -0.261 N 
ATOM      7  C   UNL     1       2.519   9.496  -2.125  0.00  0.00    +0.251 C 
ATOM      8  O   UNL     1       3.121  10.118  -1.272  0.00  0.00    -0.270 OA
ATOM      9  H   UNL     1       2.175   7.661  -2.886  0.00  0.00    +0.157 HD
ENDROOT
BRANCH   7  10
ATOM     10  C   UNL     1       1.638  10.205  -3.071  0.00  0.00    +0.053 A 
ATOM     11  C   UNL     1       0.929   9.484  -4.064  0.00  0.00    +0.020 A 
ATOM     12  C   UNL     1       0.124  10.164  -4.923  0.00  0.00    +0.071 A 
ATOM     13  C   UNL     1       0.012  11.562  -4.809  0.00  0.00    +0.249 A 
ATOM     14  O   UNL     1      -0.709  12.177  -5.577  0.00  0.00    -0.268 OA
ATOM     15  N   UNL     1       0.695  12.227  -3.859  0.00  0.00    -0.328 N 
ATOM     16  H   UNL     1       0.606  13.191  -3.793  0.00  0.00    +0.168 HD
ATOM     17  C   UNL     1       1.494  11.575  -2.994  0.00  0.00    +0.099 A 
ENDBRANCH   7  10
BRANCH   1  18
ATOM     18  C   UNL     1       4.856   4.241  -0.238  0.00  0.00    +0.152 C 
BRANCH  18  20
ATOM     19  N   UNL     1       3.583   2.131  -0.021  0.00  0.00    -0.285 N 
ATOM     20  C   UNL     1       3.563   3.475  -0.116  0.00  0.00    +0.223 C 
ATOM     21  O   UNL     1       2.506   4.069  -0.103  0.00  0.00    -0.275 OA
ATOM     22  H   UNL     1       4.430   1.662   0.045  0.00  0.00    +0.155 HD
BRANCH  19  25
ATOM     23  C   UNL     1       0.113   1.158  -0.755  0.00  0.00    +0.005 A 
ATOM     24  C   UNL     1       1.298   1.868  -0.757  0.00  0.00    +0.023 A 
ATOM     25  C   UNL     1       2.383   1.412  -0.019  0.00  0.00    +0.037 A 
ATOM     26  C   UNL     1       2.275   0.242   0.720  0.00  0.00    +0.069 A 
ATOM     27  C   UNL     1       1.085  -0.467   0.720  0.00  0.00    +0.129 A 
ATOM     28  C   UNL     1       0.004  -0.007  -0.019  0.00  0.00    +0.046 A 
BRANCH  27  29
ATOM     29  O   UNL     1       0.976  -1.613   1.442  0.00  0.00    -0.434 OA
BRANCH  29  30
ATOM     30  C   UNL     1      -0.280  -2.293   1.395  0.00  0.00    +0.541 C 
ATOM     31  F   UNL     1      -1.286  -1.448   1.877  0.00  0.00    -0.166 F 
ATOM     32  F   UNL     1      -0.567  -2.653   0.074  0.00  0.00    -0.166 F 
ENDBRANCH  29  30
ENDBRANCH  27  29
ENDBRANCH  19  25
ENDBRANCH  18  20
ENDBRANCH   1  18
TORSDOF 6
