REMARK  Name = ZINC55752370
REMARK  9 active torsions:
REMARK  status: ('A' for Active; 'I' for Inactive)
REMARK    1  A    between atoms: C_1  and  C_2
REMARK    2  A    between atoms: C_4  and  C_7
REMARK    3  A    between atoms: C_8  and  C_9
REMARK    4  A    between atoms: N_11  and  C_12
REMARK    5  A    between atoms: C_12  and  C_13
REMARK    6  A    between atoms: C_13  and  C_15
REMARK    7  A    between atoms: C_13  and  N_23
REMARK    8  A    between atoms: C_20  and  O_21
REMARK    9  A    between atoms: O_21  and  C_22
REMARK                            x       y       z     vdW  Elec       q    Type
REMARK                         _______ _______ _______ _____ _____    ______ ____
ROOT
ATOM      1  C   UNL     1      -7.850  -3.433  -0.022  0.00  0.00    -0.017 C 
ENDROOT
BRANCH   1   2
ATOM      2  N   UNL     1      -7.850  -2.566  -1.209  0.00  0.00    +0.385 N 
ATOM      3  C   UNL     1      -6.627  -1.754  -1.219  0.00  0.00    -0.078 C 
ATOM      4  C   UNL     1      -6.582  -0.909  -2.494  0.00  0.00    -0.019 C 
ATOM      5  C   UNL     1      -7.807   0.009  -2.534  0.00  0.00    -0.004 C 
ATOM      6  C   UNL     1      -9.076  -0.845  -2.449  0.00  0.00    -0.019 C 
ATOM      7  C   UNL     1      -9.028  -1.692  -1.175  0.00  0.00    -0.078 C 
ATOM      8  H   UNL     1      -7.879  -3.137  -2.041  0.00  0.00    -0.081 HD
ENDBRANCH   1   2
BRANCH   1   9
ATOM      9  C   UNL     1      -9.052  -4.341  -0.064  0.00  0.00    -0.018 A 
ATOM     10  C   UNL     1      -9.636  -4.660  -1.275  0.00  0.00    +0.005 A 
ATOM     11  C   UNL     1     -10.739  -5.493  -1.314  0.00  0.00    +0.000 A 
ATOM     12  C   UNL     1     -11.261  -6.008  -0.142  0.00  0.00    +0.004 A 
ATOM     13  C   UNL     1     -10.681  -5.692   1.071  0.00  0.00    +0.046 A 
ATOM     14  C   UNL     1      -9.570  -4.861   1.113  0.00  0.00    +0.122 A 
BRANCH  14  15
ATOM     15  O   UNL     1      -8.995  -4.553   2.305  0.00  0.00    -0.495 OA
ATOM     16  C   UNL     1      -9.582  -5.125   3.475  0.00  0.00    +0.277 C 
ENDBRANCH  14  15
ENDBRANCH   1   9
BRANCH   1  17
ATOM     17  C   UNL     1      -6.574  -4.276  -0.006  0.00  0.00    +0.094 C 
BRANCH  17  20
ATOM     18  C   UNL     1      -5.346  -5.729  -1.529  0.00  0.00    +0.237 C 
ATOM     19  O   UNL     1      -4.452  -5.789  -0.704  0.00  0.00    -0.271 OA
ATOM     20  N   UNL     1      -6.450  -4.998  -1.274  0.00  0.00    -0.313 N 
ATOM     21  H   UNL     1      -7.162  -4.951  -1.931  0.00  0.00    +0.149 HD
BRANCH  18  23
ATOM     22  C   UNL     1      -4.119  -7.160  -3.011  0.00  0.00    +0.033 C 
ATOM     23  C   UNL     1      -5.226  -6.428  -2.756  0.00  0.00    +0.069 C 
BRANCH  22  27
ATOM     24  C   UNL     1      -5.688  -8.627  -7.506  0.00  0.00    +0.073 C 
ATOM     25  C   UNL     1      -4.763  -8.518  -6.321  0.00  0.00    +0.076 A 
ATOM     26  N   UNL     1      -4.949  -7.848  -5.217  0.00  0.00    -0.245 NA
ATOM     27  C   UNL     1      -3.994  -7.884  -4.281  0.00  0.00    +0.071 A 
ATOM     28  C   UNL     1      -2.882  -8.645  -4.588  0.00  0.00    +0.074 A 
ATOM     29  S   UNL     1      -3.261  -9.236  -6.114  0.00  0.00    -0.080 S 
ENDBRANCH  22  27
ENDBRANCH  18  23
ENDBRANCH  17  20
ENDBRANCH   1  17
TORSDOF 7
