REMARK  Name = ZINC04236606
REMARK  12 active torsions:
REMARK  status: ('A' for Active; 'I' for Inactive)
REMARK    1  A    between atoms: C_1  and  C_2
REMARK    2  A    between atoms: N_4  and  C_5
REMARK    3  A    between atoms: C_11  and  C_13
REMARK    4  A    between atoms: C_13  and  C_14
REMARK    5  A    between atoms: C_16  and  O_42
REMARK    6  A    between atoms: C_22  and  C_41
REMARK    7  A    between atoms: C_25  and  O_31
REMARK    8  A    between atoms: C_27  and  C_28
REMARK    9  A    between atoms: C_27  and  C_29
REMARK   10  A    between atoms: C_29  and  O_30
REMARK   11  A    between atoms: O_31  and  C_32
REMARK   12  A    between atoms: N_34  and  C_35
REMARK                            x       y       z     vdW  Elec       q    Type
REMARK                         _______ _______ _______ _____ _____    ______ ____
ROOT
ATOM      1  C   UNL     1       5.399   0.473   2.564  0.00  0.00    +0.032 C 
ATOM      2  C   UNL     1       6.395   0.686   1.423  0.00  0.00    +0.119 C 
ATOM      3  C   UNL     1       7.748   1.107   1.998  0.00  0.00    +0.032 C 
ATOM      4  C   UNL     1       8.269   0.011   2.931  0.00  0.00    +0.007 C 
ATOM      5  C   UNL     1       7.273  -0.202   4.072  0.00  0.00    +0.007 C 
ATOM      6  C   UNL     1       5.920  -0.623   3.497  0.00  0.00    -0.023 C 
ATOM      7  C   UNL     1       4.924  -0.837   4.638  0.00  0.00    +0.011 C 
ATOM      8  C   UNL     1       5.444  -1.933   5.570  0.00  0.00    +0.046 C 
ATOM      9  C   UNL     1       6.798  -1.512   6.146  0.00  0.00    +0.186 C 
ATOM     10  C   UNL     1       7.794  -1.298   5.005  0.00  0.00    +0.031 C 
ATOM     11  C   UNL     1       9.147  -0.877   5.581  0.00  0.00    +0.017 C 
ATOM     12  C   UNL     1       6.082  -1.926   2.711  0.00  0.00    +0.012 C 
ENDROOT
BRANCH   2  13
ATOM     13  O   UNL     1       6.547  -0.530   0.689  0.00  0.00    -0.391 OA
ATOM     14  H   UNL     1       7.165  -0.468  -0.052  0.00  0.00    +0.210 HD
ENDBRANCH   2  13
BRANCH   1  15
ATOM     15  C   UNL     1       4.046   0.052   1.988  0.00  0.00    +0.102 C 
BRANCH  15  21
ATOM     16  C   UNL     1       0.106   1.690  -0.201  0.00  0.00    +0.092 C 
ATOM     17  C   UNL     1       0.160   0.140  -0.204  0.00  0.00    +0.043 C 
ATOM     18  C   UNL     1       1.433  -0.164   0.613  0.00  0.00    +0.109 C 
ATOM     19  N   UNL     1       2.282   1.036   0.560  0.00  0.00    -0.300 N 
ATOM     20  C   UNL     1       1.610   2.054  -0.268  0.00  0.00    +0.130 C 
ATOM     21  C   UNL     1       3.476   1.181   1.168  0.00  0.00    +0.216 C 
ATOM     22  O   UNL     1       4.092   2.219   1.056  0.00  0.00    -0.276 OA
BRANCH  16  26
ATOM     23  C   UNL     1      -2.685   2.839  -2.556  0.00  0.00    +0.109 C 
ATOM     24  C   UNL     1      -1.950   2.321  -1.346  0.00  0.00    +0.210 C 
ATOM     25  O   UNL     1      -2.566   2.020  -0.346  0.00  0.00    -0.276 OA
ATOM     26  N   UNL     1      -0.609   2.193  -1.377  0.00  0.00    -0.311 N 
ATOM     27  H   UNL     1      -0.117   2.434  -2.177  0.00  0.00    +0.149 HD
ENDBRANCH  16  26
ENDBRANCH  15  21
ENDBRANCH   1  15
BRANCH  10  28
ATOM     28  C   UNL     1       7.957  -2.601   4.219  0.00  0.00    +0.166 C 
BRANCH  28  29
ATOM     29  O   UNL     1       8.623  -3.568   5.033  0.00  0.00    -0.394 OA
ATOM     30  H   UNL     1       8.761  -4.421   4.598  0.00  0.00    +0.209 HD
ENDBRANCH  28  29
ENDBRANCH  10  28
BRANCH   9  31
ATOM     31  O   UNL     1       7.292  -2.552   7.031  0.00  0.00    -0.446 OA
BRANCH  31  32
ATOM     32  C   UNL     1       6.943  -2.467   8.329  0.00  0.00    +0.401 C 
ATOM     33  O   UNL     1       6.246  -1.549   8.712  0.00  0.00    -0.226 OA
ATOM     34  N   UNL     1       7.369  -3.400   9.203  0.00  0.00    -0.278 N 
ATOM     35  H   UNL     1       7.926  -4.133   8.898  0.00  0.00    +0.152 HD
BRANCH  34  36
ATOM     36  C   UNL     1       6.989  -3.308  10.615  0.00  0.00    +0.076 C 
ATOM     37  C   UNL     1       7.968  -2.387  11.347  0.00  0.00    +0.022 C 
ATOM     38  C   UNL     1       7.573  -2.290  12.822  0.00  0.00    +0.002 C 
ATOM     39  C   UNL     1       7.614  -3.683  13.453  0.00  0.00    +0.000 C 
ATOM     40  C   UNL     1       6.635  -4.604  12.722  0.00  0.00    +0.002 C 
ATOM     41  C   UNL     1       7.030  -4.701  11.247  0.00  0.00    +0.022 C 
ENDBRANCH  34  36
ENDBRANCH  31  32
ENDBRANCH   9  31
TORSDOF 9
