REMARK  Name = ZINC09541450
REMARK  7 active torsions:
REMARK  status: ('A' for Active; 'I' for Inactive)
REMARK    1  A    between atoms: C_1  and  C_2
REMARK    2  A    between atoms: C_2  and  O_3
REMARK    3  A    between atoms: O_3  and  C_4
REMARK    4  A    between atoms: C_8  and  C_11
REMARK    5  A    between atoms: C_9  and  O_10
REMARK    6  A    between atoms: C_14  and  C_25
REMARK    7  A    between atoms: C_16  and  C_18
REMARK                            x       y       z     vdW  Elec       q    Type
REMARK                         _______ _______ _______ _____ _____    ______ ____
ROOT
ATOM      1  C   UNL     1       3.709  -0.723  -0.039  0.00  0.00    -0.028 C 
ATOM      2  C   UNL     1       4.268  -0.752  -1.465  0.00  0.00    +0.044 C 
ATOM      3  C   UNL     1       5.393  -1.746  -1.543  0.00  0.00    +0.040 C 
ATOM      4  N   UNL     1       5.600  -2.639  -0.649  0.00  0.00    -0.299 NA
ATOM      5  C   UNL     1       4.789  -2.797   0.552  0.00  0.00    +0.081 C 
ATOM      6  N   UNL     1       3.495  -2.115   0.402  0.00  0.00    +0.401 N 
ATOM      7  H   UNL     1       2.928  -2.610  -0.297  0.00  0.00    -0.081 HD
ATOM      8  H   UNL     1       3.003  -2.115   1.303  0.00  0.00    -0.081 HD
ENDROOT
BRANCH   5   9
ATOM      9  C   UNL     1       5.526  -2.213   1.729  0.00  0.00    -0.040 A 
ATOM     10  C   UNL     1       4.820  -1.669   2.786  0.00  0.00    +0.006 A 
ATOM     11  C   UNL     1       5.494  -1.139   3.869  0.00  0.00    +0.038 A 
ATOM     12  C   UNL     1       6.879  -1.141   3.890  0.00  0.00    +0.123 A 
ATOM     13  C   UNL     1       7.585  -1.681   2.829  0.00  0.00    +0.038 A 
ATOM     14  C   UNL     1       6.909  -2.217   1.750  0.00  0.00    +0.006 A 
ATOM     15  F   UNL     1       7.540  -0.617   4.946  0.00  0.00    -0.205 F 
ENDBRANCH   5   9
BRANCH   3  16
ATOM     16  C   UNL     1       6.300  -1.692  -2.705  0.00  0.00    -0.004 A 
ATOM     17  C   UNL     1       6.103  -0.737  -3.705  0.00  0.00    +0.011 A 
ATOM     18  C   UNL     1       6.958  -0.687  -4.786  0.00  0.00    +0.016 A 
ATOM     19  C   UNL     1       8.003  -1.590  -4.887  0.00  0.00    +0.018 A 
ATOM     20  C   UNL     1       8.201  -2.543  -3.903  0.00  0.00    +0.016 A 
ATOM     21  C   UNL     1       7.356  -2.599  -2.814  0.00  0.00    +0.011 A 
ATOM     22 BR   UNL     1       9.166  -1.520  -6.377  0.00  0.00    -0.050 Br
ENDBRANCH   3  16
BRANCH   1  27
ATOM     23  C   UNL     1       1.174   2.087   0.002  0.00  0.00    +0.162 A 
ATOM     24  C   UNL     1      -0.017   1.378   0.010  0.00  0.00    +0.049 A 
ATOM     25  C   UNL     1       0.002  -0.004   0.002  0.00  0.00    +0.004 A 
ATOM     26  C   UNL     1       1.207  -0.682  -0.013  0.00  0.00    +0.006 A 
ATOM     27  C   UNL     1       2.398   0.019  -0.021  0.00  0.00    -0.016 A 
ATOM     28  C   UNL     1       2.386   1.405  -0.014  0.00  0.00    +0.160 A 
BRANCH  28  29
ATOM     29  O   UNL     1       3.557   2.096  -0.022  0.00  0.00    -0.503 OA
ATOM     30  H   UNL     1       3.887   2.301  -0.908  0.00  0.00    +0.292 HD
ENDBRANCH  28  29
BRANCH  23  31
ATOM     31  O   UNL     1       1.157   3.447   0.009  0.00  0.00    -0.489 OA
BRANCH  31  33
ATOM     32  C   UNL     1       0.058   5.599   0.030  0.00  0.00    +0.048 C 
ATOM     33  C   UNL     1      -0.124   4.080   0.024  0.00  0.00    +0.226 C 
ENDBRANCH  31  33
ENDBRANCH  23  31
ENDBRANCH   1  27
TORSDOF 6
