REMARK  Name = ZINC39746967
REMARK  6 active torsions:
REMARK  status: ('A' for Active; 'I' for Inactive)
REMARK    1  A    between atoms: C_1  and  C_2
REMARK    2  A    between atoms: C_8  and  C_10
REMARK    3  A    between atoms: C_10  and  N_11
REMARK    4  A    between atoms: C_12  and  C_14
REMARK    5  A    between atoms: C_14  and  C_15
REMARK    6  A    between atoms: C_18  and  C_20
REMARK                            x       y       z     vdW  Elec       q    Type
REMARK                         _______ _______ _______ _____ _____    ______ ____
ROOT
ATOM      1  N   UNL     1      -1.339  -1.298   3.261  0.00  0.00    -0.314 N 
ATOM      2  C   UNL     1      -2.465  -1.370   3.999  0.00  0.00    +0.219 C 
ATOM      3  O   UNL     1      -3.507  -0.933   3.559  0.00  0.00    -0.275 OA
ATOM      4  H   UNL     1      -0.505  -1.647   3.613  0.00  0.00    +0.149 HD
ENDROOT
BRANCH   1   5
ATOM      5  C   UNL     1      -1.375  -0.691   1.928  0.00  0.00    +0.121 C 
BRANCH   5  13
ATOM      6  C   UNL     1      -0.018   1.503   0.010  0.00  0.00    +0.040 C 
ATOM      7  C   UNL     1       0.002  -0.004   0.002  0.00  0.00    -0.058 C 
ATOM      8  C   UNL     1       0.005  -0.637  -1.160  0.00  0.00    +0.022 C 
ATOM      9  C   UNL     1       0.034  -2.113  -1.190  0.00  0.00    +0.026 C 
ATOM     10  N   UNL     1       0.413  -2.800  -0.030  0.00  0.00    -0.285 N 
ATOM     11  C   UNL     1       0.436  -2.165   1.152  0.00  0.00    +0.226 C 
ATOM     12  O   UNL     1       0.809  -2.774   2.133  0.00  0.00    -0.275 OA
ATOM     13  C   UNL     1       0.024  -0.735   1.310  0.00  0.00    +0.118 C 
ATOM     14  C   UNL     1      -0.295  -2.779  -2.300  0.00  0.00    +0.033 C 
ATOM     15  H   UNL     1       0.660  -3.737  -0.081  0.00  0.00    +0.155 HD
ENDBRANCH   5  13
ENDBRANCH   1   5
BRANCH   2  16
ATOM     16  C   UNL     1      -2.428  -1.994   5.370  0.00  0.00    +0.151 C 
BRANCH  16  17
ATOM     17  C   UNL     1      -3.806  -1.950   5.978  0.00  0.00    +0.058 A 
ATOM     18  C   UNL     1      -4.390  -3.095   6.427  0.00  0.00    +0.071 A 
ATOM     19  S   UNL     1      -5.952  -2.457   7.020  0.00  0.00    -0.074 S 
ATOM     20  C   UNL     1      -5.658  -0.743   6.607  0.00  0.00    +0.127 A 
ATOM     21  N   UNL     1      -4.443  -0.809   6.082  0.00  0.00    -0.242 NA
BRANCH  20  22
ATOM     22  C   UNL     1      -6.532   0.433   6.805  0.00  0.00    +0.096 A 
ATOM     23  C   UNL     1      -7.785   0.273   7.398  0.00  0.00    +0.030 A 
ATOM     24  C   UNL     1      -8.591   1.383   7.577  0.00  0.00    +0.004 A 
ATOM     25  C   UNL     1      -8.119   2.619   7.156  0.00  0.00    +0.020 A 
ATOM     26  C   UNL     1      -6.867   2.706   6.576  0.00  0.00    +0.111 A 
ATOM     27  N   UNL     1      -6.116   1.635   6.422  0.00  0.00    -0.253 NA
ENDBRANCH  20  22
ENDBRANCH  16  17
ENDBRANCH   2  16
TORSDOF 5
