REMARK  Name = ZINC35374946
REMARK  7 active torsions:
REMARK  status: ('A' for Active; 'I' for Inactive)
REMARK    1  A    between atoms: C_1  and  C_2
REMARK    2  A    between atoms: C_2  and  C_3
REMARK    3  A    between atoms: C_3  and  C_5
REMARK    4  A    between atoms: C_3  and  N_6
REMARK    5  A    between atoms: C_27  and  C_29
REMARK    6  A    between atoms: C_29  and  C_31
REMARK    7  A    between atoms: C_29  and  O_32
REMARK                            x       y       z     vdW  Elec       q    Type
REMARK                         _______ _______ _______ _____ _____    ______ ____
ROOT
ATOM      1  N   UNL     1      -2.082  -0.162   1.273  0.00  0.00    -0.239 N 
ATOM      2  C   UNL     1      -1.617  -0.547   2.467  0.00  0.00    +0.228 C 
ATOM      3  O   UNL     1      -0.633  -1.232   2.648  0.00  0.00    -0.275 OA
ATOM      4  C   UNL     1      -2.510   0.004   3.556  0.00  0.00    +0.109 C 
ATOM      5  C   UNL     1      -3.591   0.794   2.766  0.00  0.00    +0.123 C 
ATOM      6  C   UNL     1      -3.183   0.596   1.324  0.00  0.00    +0.228 C 
ATOM      7  O   UNL     1      -3.765   1.051   0.363  0.00  0.00    -0.275 OA
ATOM      8  C   UNL     1      -4.902   0.058   3.062  0.00  0.00    +0.136 C 
ATOM      9  C   UNL     1      -5.276  -0.880   1.950  0.00  0.00    +0.005 A 
ATOM     10  C   UNL     1      -4.649  -1.962   1.371  0.00  0.00    +0.008 A 
ATOM     11  C   UNL     1      -5.262  -2.645   0.336  0.00  0.00    +0.002 A 
ATOM     12  C   UNL     1      -6.505  -2.240  -0.116  0.00  0.00    +0.022 A 
ATOM     13  C   UNL     1      -7.137  -1.157   0.461  0.00  0.00    +0.062 A 
ATOM     14  C   UNL     1      -6.526  -0.463   1.504  0.00  0.00    +0.057 A 
ATOM     15  N   UNL     1      -6.955   0.646   2.237  0.00  0.00    -0.282 N 
ATOM     16  C   UNL     1      -6.058   1.015   3.172  0.00  0.00    +0.243 C 
ATOM     17  O   UNL     1      -6.162   1.938   3.951  0.00  0.00    -0.273 OA
ATOM     18 CL   UNL     1      -8.697  -0.658  -0.114  0.00  0.00    -0.082 Cl
ATOM     19  N   UNL     1      -4.683  -0.667   4.328  0.00  0.00    -0.293 NA
ATOM     20  C   UNL     1      -3.264  -1.161   4.231  0.00  0.00    +0.096 C 
ATOM     21  H   UNL     1      -7.800   1.099   2.090  0.00  0.00    +0.155 HD
ATOM     22  H   UNL     1      -4.801  -0.054   5.121  0.00  0.00    +0.124 HD
ENDROOT
BRANCH   1  23
ATOM     23  C   UNL     1      -1.433  -0.534   0.013  0.00  0.00    +0.081 C 
ATOM     24  C   UNL     1      -1.416  -2.058  -0.121  0.00  0.00    +0.028 C 
BRANCH  23  26
ATOM     25  C   UNL     1      -0.019   1.526   0.010  0.00  0.00    +0.006 C 
ATOM     26  C   UNL     1       0.002  -0.004   0.002  0.00  0.00    +0.019 C 
ENDBRANCH  23  26
ENDBRANCH   1  23
BRANCH  20  27
ATOM     27  C   UNL     1      -2.696  -1.427   5.626  0.00  0.00    +0.129 C 
ATOM     28  C   UNL     1      -3.457  -2.584   6.276  0.00  0.00    +0.039 C 
BRANCH  27  29
ATOM     29  O   UNL     1      -1.312  -1.767   5.520  0.00  0.00    -0.390 OA
ATOM     30  H   UNL     1      -1.141  -2.556   4.987  0.00  0.00    +0.210 HD
ENDBRANCH  27  29
ENDBRANCH  20  27
TORSDOF 4
