REMARK  Name = ZINC38670647
REMARK  8 active torsions:
REMARK  status: ('A' for Active; 'I' for Inactive)
REMARK    1  A    between atoms: C_1  and  N_2
REMARK    2  A    between atoms: C_10  and  C_12
REMARK    3  A    between atoms: C_12  and  C_14
REMARK    4  A    between atoms: C_12  and  N_29
REMARK    5  A    between atoms: C_14  and  N_15
REMARK    6  A    between atoms: N_15  and  S_16
REMARK    7  A    between atoms: S_16  and  C_19
REMARK    8  A    between atoms: C_22  and  C_25
REMARK                            x       y       z     vdW  Elec       q    Type
REMARK                         _______ _______ _______ _____ _____    ______ ____
ROOT
ATOM      1  C   UNL     1       5.065  -2.863  -0.569  0.00  0.00    -0.022 C 
ENDROOT
BRANCH   1  11
ATOM      2  C   UNL     1       0.167   1.060   1.221  0.00  0.00    +0.129 C 
ATOM      3  N   UNL     1       0.191  -0.373   0.920  0.00  0.00    -0.333 N 
ATOM      4  C   UNL     1      -1.040  -1.172   0.993  0.00  0.00    +0.105 C 
ATOM      5  C   UNL     1      -0.709  -2.478   1.726  0.00  0.00    +0.024 C 
ATOM      6  C   UNL     1       0.311  -3.263   0.900  0.00  0.00    +0.038 C 
ATOM      7  C   UNL     1       1.482  -2.388   0.539  0.00  0.00    -0.026 A 
ATOM      8  C   UNL     1       1.385  -1.003   0.552  0.00  0.00    +0.033 A 
ATOM      9  C   UNL     1       2.482  -0.224   0.204  0.00  0.00    +0.023 A 
ATOM     10  C   UNL     1       3.670  -0.826  -0.159  0.00  0.00    +0.004 A 
ATOM     11  C   UNL     1       3.768  -2.205  -0.174  0.00  0.00    -0.059 A 
ATOM     12  C   UNL     1       2.679  -2.984   0.182  0.00  0.00    +0.007 A 
ENDBRANCH   1  11
BRANCH   1  13
ATOM     13  N   UNL     1       6.189  -2.113   0.008  0.00  0.00    +0.385 N 
ATOM     14  C   UNL     1       6.097  -2.112   1.491  0.00  0.00    -0.078 C 
ATOM     15  C   UNL     1       7.552  -1.819   1.936  0.00  0.00    -0.020 C 
ATOM     16  C   UNL     1       8.394  -2.599   0.901  0.00  0.00    -0.020 C 
ATOM     17  C   UNL     1       7.468  -2.781  -0.316  0.00  0.00    -0.078 C 
ATOM     18  H   UNL     1       6.193  -1.167  -0.341  0.00  0.00    -0.081 HD
ENDBRANCH   1  13
BRANCH   1  19
ATOM     19  C   UNL     1       5.189  -2.874  -2.094  0.00  0.00    +0.095 C 
BRANCH  19  20
ATOM     20  N   UNL     1       4.133  -3.715  -2.663  0.00  0.00    -0.191 NA
ATOM     21  H   UNL     1       3.637  -4.323  -2.093  0.00  0.00    +0.148 HD
BRANCH  20  22
ATOM     22  S   UNL     1       3.788  -3.630  -4.280  0.00  0.00    +0.058 S 
ATOM     23  O   UNL     1       2.753  -4.572  -4.525  0.00  0.00    -0.153 OA
ATOM     24  O   UNL     1       3.653  -2.251  -4.594  0.00  0.00    -0.153 OA
BRANCH  22  25
ATOM     25  C   UNL     1       5.210  -4.206  -5.147  0.00  0.00    +0.105 A 
ATOM     26  C   UNL     1       6.202  -3.318  -5.516  0.00  0.00    +0.029 A 
ATOM     27  C   UNL     1       7.318  -3.770  -6.196  0.00  0.00    +0.014 A 
ATOM     28  C   UNL     1       7.440  -5.111  -6.508  0.00  0.00    +0.055 A 
ATOM     29  C   UNL     1       6.448  -6.000  -6.138  0.00  0.00    +0.014 A 
ATOM     30  C   UNL     1       5.335  -5.548  -5.454  0.00  0.00    +0.029 A 
BRANCH  28  31
ATOM     31  C   UNL     1       8.656  -5.604  -7.250  0.00  0.00    +0.417 C 
ATOM     32  F   UNL     1       9.648  -5.967  -6.332  0.00  0.00    -0.166 F 
ATOM     33  F   UNL     1       8.309  -6.715  -8.026  0.00  0.00    -0.166 F 
ATOM     34  F   UNL     1       9.139  -4.588  -8.081  0.00  0.00    -0.166 F 
ENDBRANCH  28  31
ENDBRANCH  22  25
ENDBRANCH  20  22
ENDBRANCH  19  20
ENDBRANCH   1  19
TORSDOF 7
