REMARK  Name = ZINC18435101
REMARK  6 active torsions:
REMARK  status: ('A' for Active; 'I' for Inactive)
REMARK    1  A    between atoms: C_1  and  C_2
REMARK    2  A    between atoms: C_2  and  C_4
REMARK    3  A    between atoms: C_2  and  S_19
REMARK    4  A    between atoms: N_6  and  C_7
REMARK    5  A    between atoms: S_19  and  C_20
REMARK    6  A    between atoms: N_24  and  C_25
REMARK                            x       y       z     vdW  Elec       q    Type
REMARK                         _______ _______ _______ _____ _____    ______ ____
ROOT
ATOM      1  C   UNL     1       1.940   3.586   0.288  0.00  0.00    +0.230 C 
ATOM      2  O   UNL     1       1.018   4.366   0.175  0.00  0.00    -0.274 OA
ATOM      3  N   UNL     1       3.183   4.043   0.538  0.00  0.00    -0.285 N 
ATOM      4  H   UNL     1       3.905   3.417   0.705  0.00  0.00    +0.155 HD
ENDROOT
BRANCH   3   5
ATOM      5  C   UNL     1       3.431   5.421   0.559  0.00  0.00    +0.035 A 
ATOM      6  C   UNL     1       4.388   5.941   1.423  0.00  0.00    +0.025 A 
ATOM      7  C   UNL     1       4.638   7.298   1.448  0.00  0.00    +0.029 A 
ATOM      8  C   UNL     1       3.933   8.147   0.609  0.00  0.00    +0.067 A 
ATOM      9  C   UNL     1       2.971   7.628  -0.261  0.00  0.00    +0.069 A 
ATOM     10  C   UNL     1       2.727   6.264  -0.287  0.00  0.00    +0.051 A 
ATOM     11  N   UNL     1       2.441   8.707  -0.965  0.00  0.00    -0.306 N 
ATOM     12  H   UNL     1       1.750   8.657  -1.644  0.00  0.00    +0.170 HD
ATOM     13  C   UNL     1       3.051   9.831  -0.544  0.00  0.00    +0.325 A 
ATOM     14  O   UNL     1       2.819  10.951  -0.958  0.00  0.00    -0.247 OA
ATOM     15  N   UNL     1       3.956   9.527   0.405  0.00  0.00    -0.306 N 
ATOM     16  H   UNL     1       4.527  10.159   0.869  0.00  0.00    +0.170 HD
ENDBRANCH   3   5
BRANCH   1  18
ATOM     17  C   UNL     1       2.104   1.651  -1.255  0.00  0.00    +0.029 C 
ATOM     18  C   UNL     1       1.696   2.105   0.148  0.00  0.00    +0.137 C 
BRANCH  18  19
ATOM     19  S   UNL     1      -0.062   1.757   0.407  0.00  0.00    -0.075 S 
BRANCH  19  20
ATOM     20  C   UNL     1      -0.037  -0.004   0.341  0.00  0.00    +0.174 A 
ATOM     21  N   UNL     1       1.024  -0.751   0.145  0.00  0.00    -0.230 NA
ATOM     22  C   UNL     1       0.666  -2.046   0.160  0.00  0.00    +0.131 A 
ATOM     23  C   UNL     1      -0.660  -2.117   0.362  0.00  0.00    +0.113 A 
ATOM     24  N   UNL     1      -1.119  -0.823   0.479  0.00  0.00    -0.295 N 
BRANCH  24  25
ATOM     25  C   UNL     1      -2.445  -0.424   0.698  0.00  0.00    +0.050 A 
ATOM     26  C   UNL     1      -3.465  -0.934  -0.095  0.00  0.00    +0.026 A 
ATOM     27  C   UNL     1      -4.771  -0.540   0.123  0.00  0.00    +0.003 A 
ATOM     28  C   UNL     1      -5.064   0.361   1.130  0.00  0.00    +0.020 A 
ATOM     29  C   UNL     1      -4.050   0.872   1.922  0.00  0.00    +0.043 A 
ATOM     30  C   UNL     1      -2.742   0.477   1.711  0.00  0.00    +0.046 A 
ATOM     31 CL   UNL     1      -4.422   2.003   3.186  0.00  0.00    -0.083 Cl
ENDBRANCH  24  25
ENDBRANCH  19  20
ENDBRANCH  18  19
ENDBRANCH   1  18
TORSDOF 5
