REMARK  Name = ZINC04116312
REMARK  6 active torsions:
REMARK  status: ('A' for Active; 'I' for Inactive)
REMARK    1  A    between atoms: C_1  and  C_2
REMARK    2  A    between atoms: C_5  and  C_8
REMARK    3  A    between atoms: C_13  and  C_23
REMARK    4  A    between atoms: C_15  and  C_19
REMARK    5  A    between atoms: C_19  and  O_21
REMARK    6  A    between atoms: O_21  and  C_22
REMARK                            x       y       z     vdW  Elec       q    Type
REMARK                         _______ _______ _______ _____ _____    ______ ____
ROOT
ATOM      1  C   UNL     1       0.518  -0.734  -1.136  0.00  0.00    +0.136 C 
ATOM      2  C   UNL     1       1.981  -0.429  -1.356  0.00  0.00    +0.037 C 
ATOM      3  C   UNL     1       2.689   0.527  -0.732  0.00  0.00    +0.017 C 
ATOM      4  C   UNL     1       4.162   0.727  -1.049  0.00  0.00    +0.055 C 
ATOM      5  C   UNL     1       4.437   0.366  -2.507  0.00  0.00    +0.013 C 
ATOM      6  C   UNL     1       4.039  -1.102  -2.707  0.00  0.00    +0.171 C 
ATOM      7  C   UNL     1       2.599  -1.260  -2.320  0.00  0.00    +0.177 C 
ATOM      8  O   UNL     1       1.940  -2.131  -2.853  0.00  0.00    -0.291 OA
ATOM      9  C   UNL     1       3.606   1.260  -3.429  0.00  0.00    +0.009 C 
ATOM     10  N   UNL     1       2.198   1.367   0.216  0.00  0.00    -0.316 N 
ATOM     11  C   UNL     1       0.997   2.062   0.118  0.00  0.00    +0.052 A 
ATOM     12  C   UNL     1       0.941   3.444   0.101  0.00  0.00    +0.025 A 
ATOM     13  C   UNL     1      -0.293   4.072   0.085  0.00  0.00    +0.002 A 
ATOM     14  C   UNL     1      -1.456   3.323   0.086  0.00  0.00    +0.002 A 
ATOM     15  C   UNL     1      -1.400   1.940   0.079  0.00  0.00    +0.025 A 
ATOM     16  C   UNL     1      -0.166   1.308   0.075  0.00  0.00    +0.049 A 
ATOM     17  N   UNL     1      -0.063  -0.080   0.017  0.00  0.00    -0.331 N 
ATOM     18  H   UNL     1       2.724   1.490   1.022  0.00  0.00    +0.152 HD
ATOM     19  H   UNL     1      -0.386  -0.615   0.758  0.00  0.00    +0.147 HD
ENDROOT
BRANCH   1  24
ATOM     20  C   UNL     1      -2.418   0.890  -5.841  0.00  0.00    +0.044 C 
ATOM     21  C   UNL     1      -1.653   0.466  -4.614  0.00  0.00    -0.050 A 
ATOM     22  C   UNL     1      -1.024   1.415  -3.830  0.00  0.00    +0.004 A 
ATOM     23  C   UNL     1      -0.321   1.027  -2.704  0.00  0.00    +0.006 A 
ATOM     24  C   UNL     1      -0.248  -0.310  -2.363  0.00  0.00    -0.023 A 
ATOM     25  C   UNL     1      -0.873  -1.260  -3.150  0.00  0.00    +0.006 A 
ATOM     26  C   UNL     1      -1.579  -0.871  -4.272  0.00  0.00    +0.004 A 
ENDBRANCH   1  24
BRANCH   6  27
ATOM     27  C   UNL     1       4.225  -1.485  -4.153  0.00  0.00    +0.318 C 
ATOM     28  O   UNL     1       4.633  -0.670  -4.946  0.00  0.00    -0.250 OA
BRANCH  27  29
ATOM     29  O   UNL     1       3.936  -2.731  -4.559  0.00  0.00    -0.467 OA
ATOM     30  C   UNL     1       4.139  -3.029  -5.966  0.00  0.00    +0.280 C 
ENDBRANCH  27  29
ENDBRANCH   6  27
TORSDOF 3
