REMARK  Name = ZINC00688711
REMARK  9 active torsions:
REMARK  status: ('A' for Active; 'I' for Inactive)
REMARK    1  A    between atoms: C_1  and  C_2
REMARK    2  A    between atoms: C_2  and  C_3
REMARK    3  A    between atoms: C_3  and  C_4
REMARK    4  A    between atoms: C_3  and  C_5
REMARK    5  A    between atoms: C_3  and  C_6
REMARK    6  A    between atoms: C_13  and  N_18
REMARK    7  A    between atoms: C_14  and  C_15
REMARK    8  A    between atoms: C_19  and  C_21
REMARK    9  A    between atoms: C_24  and  C_26
REMARK                            x       y       z     vdW  Elec       q    Type
REMARK                         _______ _______ _______ _____ _____    ______ ____
ROOT
ATOM      1  C   UNL     1       0.011   1.072   2.506  0.00  0.00    -0.000 C 
ATOM      2  C   UNL     1      -0.704   1.565   3.768  0.00  0.00    +0.009 C 
ATOM      3  C   UNL     1       0.157   1.276   5.000  0.00  0.00    +0.037 C 
ATOM      4  C   UNL     1       0.548  -0.196   4.990  0.00  0.00    -0.023 A 
ATOM      5  C   UNL     1       0.469  -0.930   3.859  0.00  0.00    -0.004 A 
ATOM      6  S   UNL     1       1.015  -2.547   4.330  0.00  0.00    -0.077 S 
ATOM      7  C   UNL     1       1.345  -2.255   6.005  0.00  0.00    +0.085 A 
ATOM      8  C   UNL     1       1.024  -0.913   6.161  0.00  0.00    +0.068 A 
ATOM      9  C   UNL     1       0.018  -0.463   2.510  0.00  0.00    +0.046 C 
ENDROOT
BRANCH   8  10
ATOM     10  C   UNL     1       1.162  -0.244   7.458  0.00  0.00    +0.244 C 
ATOM     11  O   UNL     1       0.227  -0.231   8.238  0.00  0.00    -0.270 OA
ATOM     12  N   UNL     1       2.323   0.356   7.788  0.00  0.00    -0.325 N 
ATOM     13  H   UNL     1       3.067   0.346   7.166  0.00  0.00    +0.145 HD
ATOM     14  H   UNL     1       2.413   0.798   8.646  0.00  0.00    +0.145 HD
ENDBRANCH   8  10
BRANCH   7  15
ATOM     15  N   UNL     1       1.813  -3.144   6.958  0.00  0.00    -0.273 N 
ATOM     16  C   UNL     1       2.072  -4.422   6.618  0.00  0.00    +0.284 C 
ATOM     17  O   UNL     1       1.893  -4.795   5.473  0.00  0.00    -0.266 OA
ATOM     18  H   UNL     1       1.956  -2.847   7.870  0.00  0.00    +0.156 HD
BRANCH  16  19
ATOM     19  C   UNL     1       2.568  -5.363   7.626  0.00  0.00    +0.190 A 
ATOM     20  C   UNL     1       2.863  -6.681   7.418  0.00  0.00    +0.055 A 
ATOM     21  C   UNL     1       3.305  -7.194   8.648  0.00  0.00    +0.045 A 
ATOM     22  C   UNL     1       3.252  -6.183   9.543  0.00  0.00    +0.103 A 
ATOM     23  O   UNL     1       2.807  -5.082   8.924  0.00  0.00    -0.455 OA
ATOM     24  C   UNL     1       3.630  -6.279  10.998  0.00  0.00    +0.086 C 
ENDBRANCH  16  19
ENDBRANCH   7  15
BRANCH   1  25
ATOM     25  C   UNL     1      -0.729   1.579   1.267  0.00  0.00    -0.032 C 
ATOM     26  C   UNL     1      -0.750   3.109   1.275  0.00  0.00    +0.011 C 
ATOM     27  C   UNL     1      -2.164   1.050   1.278  0.00  0.00    +0.011 C 
BRANCH  25  29
ATOM     28  C   UNL     1      -0.753   1.593  -1.232  0.00  0.00    +0.004 C 
ATOM     29  C   UNL     1      -0.013   1.086   0.008  0.00  0.00    +0.003 C 
ENDBRANCH  25  29
ENDBRANCH   1  25
TORSDOF 5
