REMARK  Name = ZINC63067868
REMARK  5 active torsions:
REMARK  status: ('A' for Active; 'I' for Inactive)
REMARK    1  A    between atoms: C_6  and  C_10
REMARK    2  A    between atoms: C_13  and  N_16
REMARK    3  A    between atoms: C_17  and  C_19
REMARK    4  A    between atoms: C_19  and  O_20
REMARK    5  A    between atoms: O_20  and  C_21
REMARK                            x       y       z     vdW  Elec       q    Type
REMARK                         _______ _______ _______ _____ _____    ______ ____
ROOT
ATOM      1  C   UNL     1       3.533  -2.761  -1.292  0.00  0.00    -0.005 A 
ATOM      2  C   UNL     1       4.640  -2.303  -1.982  0.00  0.00    +0.009 A 
ATOM      3  C   UNL     1       5.067  -2.960  -3.119  0.00  0.00    +0.024 A 
ATOM      4  C   UNL     1       4.384  -4.082  -3.569  0.00  0.00    +0.034 A 
ATOM      5  C   UNL     1       3.273  -4.540  -2.873  0.00  0.00    +0.024 A 
ATOM      6  C   UNL     1       2.853  -3.881  -1.734  0.00  0.00    +0.009 A 
ENDROOT
BRANCH   1  12
ATOM      7  C   UNL     1      -0.400   0.973   0.066  0.00  0.00    +0.002 A 
ATOM      8  C   UNL     1       0.668   1.879  -0.060  0.00  0.00    +0.002 A 
ATOM      9  C   UNL     1       1.954   1.480  -0.139  0.00  0.00    +0.027 A 
ATOM     10  C   UNL     1       2.273   0.047  -0.093  0.00  0.00    +0.060 A 
ATOM     11  N   UNL     1       3.394  -0.613  -0.146  0.00  0.00    -0.360 N 
ATOM     12  C   UNL     1       3.069  -2.042  -0.051  0.00  0.00    +0.206 C 
ATOM     13  N   UNL     1       1.608  -2.128   0.065  0.00  0.00    -0.360 N 
ATOM     14  C   UNL     1       1.142  -0.912   0.041  0.00  0.00    +0.060 A 
ATOM     15  C   UNL     1      -0.218  -0.362   0.117  0.00  0.00    +0.027 A 
ATOM     16  H   UNL     1       4.281  -0.230  -0.233  0.00  0.00    +0.162 HD
ATOM     17  H   UNL     1       1.086  -2.941   0.144  0.00  0.00    +0.162 HD
ENDBRANCH   1  12
BRANCH   4  18
ATOM     18  N   UNL     1       4.814  -4.750  -4.721  0.00  0.00    -0.283 N 
ATOM     19  C   UNL     1       6.128  -4.803  -5.018  0.00  0.00    +0.255 C 
ATOM     20  O   UNL     1       6.944  -4.357  -4.240  0.00  0.00    -0.272 OA
ATOM     21  H   UNL     1       4.167  -5.174  -5.306  0.00  0.00    +0.155 HD
BRANCH  19  22
ATOM     22  C   UNL     1       6.582  -5.418  -6.317  0.00  0.00    +0.324 C 
BRANCH  22  23
ATOM     23  O   UNL     1       8.007  -5.357  -6.400  0.00  0.00    -0.483 OA
BRANCH  23  24
ATOM     24  C   UNL     1       8.583  -5.872  -7.518  0.00  0.00    +0.121 A 
ATOM     25  C   UNL     1       7.792  -6.420  -8.517  0.00  0.00    +0.047 A 
ATOM     26  C   UNL     1       8.379  -6.944  -9.653  0.00  0.00    +0.019 A 
ATOM     27  C   UNL     1       9.755  -6.922  -9.794  0.00  0.00    +0.018 A 
ATOM     28  C   UNL     1      10.546  -6.376  -8.799  0.00  0.00    +0.019 A 
ATOM     29  C   UNL     1       9.962  -5.846  -7.664  0.00  0.00    +0.047 A 
ATOM     30 BR   UNL     1      10.556  -7.639 -11.350  0.00  0.00    -0.050 Br
ENDBRANCH  23  24
ENDBRANCH  22  23
ENDBRANCH  19  22
ENDBRANCH   4  18
TORSDOF 5
