REMARK  Name = ZINC64651429
REMARK  9 active torsions:
REMARK  status: ('A' for Active; 'I' for Inactive)
REMARK    1  A    between atoms: C_1  and  O_2
REMARK    2  A    between atoms: O_2  and  C_3
REMARK    3  A    between atoms: C_6  and  C_10
REMARK    4  A    between atoms: N_24  and  C_25
REMARK    5  A    between atoms: C_25  and  C_26
REMARK    6  A    between atoms: C_29  and  O_32
REMARK    7  A    between atoms: O_32  and  C_33
REMARK    8  A    between atoms: C_33  and  C_34
REMARK    9  A    between atoms: C_34  and  O_35
REMARK                            x       y       z     vdW  Elec       q    Type
REMARK                         _______ _______ _______ _____ _____    ______ ____
ROOT
ATOM      1  C   UNL     1       2.505  -2.499  -4.385  0.00  0.00    +0.116 C 
ATOM      2  C   UNL     1       3.960  -2.821  -4.035  0.00  0.00    +0.128 C 
ATOM      3  C   UNL     1       4.664  -1.480  -3.866  0.00  0.00    -0.035 C 
ATOM      4  C   UNL     1       5.236  -1.504  -2.670  0.00  0.00    -0.001 A 
ATOM      5  C   UNL     1       6.116  -0.546  -1.983  0.00  0.00    +0.010 A 
ATOM      6  C   UNL     1       6.516  -0.890  -0.730  0.00  0.00    +0.001 A 
ATOM      7  C   UNL     1       6.132  -2.078  -0.099  0.00  0.00    +0.002 A 
ATOM      8  C   UNL     1       5.330  -3.018  -0.658  0.00  0.00    +0.026 A 
ATOM      9  C   UNL     1       4.851  -2.772  -1.978  0.00  0.00    +0.043 A 
ATOM     10  N   UNL     1       4.090  -3.518  -2.756  0.00  0.00    -0.376 N 
ATOM     11  C   UNL     1       4.555  -0.391  -4.906  0.00  0.00    +0.049 C 
ATOM     12  C   UNL     1       3.058  -0.269  -5.244  0.00  0.00    +0.090 C 
ATOM     13  N   UNL     1       2.497  -1.591  -5.543  0.00  0.00    -0.289 NA
ATOM     14  H   UNL     1       3.684  -4.369  -2.530  0.00  0.00    +0.160 HD
ENDROOT
BRANCH   1  18
ATOM     15  C   UNL     1       0.606  -0.607  -1.056  0.00  0.00    +0.123 A 
ATOM     16  C   UNL     1       1.796  -0.099  -1.560  0.00  0.00    +0.046 A 
ATOM     17  C   UNL     1       2.407  -0.713  -2.635  0.00  0.00    +0.011 A 
ATOM     18  C   UNL     1       1.836  -1.833  -3.211  0.00  0.00    +0.007 A 
ATOM     19  C   UNL     1       0.649  -2.341  -2.711  0.00  0.00    +0.132 A 
ATOM     20  C   UNL     1       0.036  -1.733  -1.630  0.00  0.00    +0.084 A 
ATOM     21  F   UNL     1       0.092  -3.435  -3.276  0.00  0.00    -0.205 F 
BRANCH  15  23
ATOM     22  C   UNL     1       0.647   1.152   0.544  0.00  0.00    +0.277 C 
ATOM     23  O   UNL     1       0.004  -0.004   0.003  0.00  0.00    -0.495 OA
ENDBRANCH  15  23
ENDBRANCH   1  18
BRANCH  13  24
ATOM     24  C   UNL     1       1.148  -1.476  -6.112  0.00  0.00    +0.120 C 
BRANCH  24  25
ATOM     25  C   UNL     1       1.219  -0.743  -7.428  0.00  0.00    -0.033 A 
ATOM     26  C   UNL     1       1.104   0.634  -7.457  0.00  0.00    +0.008 A 
ATOM     27  C   UNL     1       1.168   1.308  -8.662  0.00  0.00    +0.046 A 
ATOM     28  C   UNL     1       1.348   0.601  -9.842  0.00  0.00    +0.121 A 
ATOM     29  C   UNL     1       1.464  -0.781  -9.809  0.00  0.00    +0.046 A 
ATOM     30  C   UNL     1       1.404  -1.449  -8.602  0.00  0.00    +0.008 A 
BRANCH  28  31
ATOM     31  O   UNL     1       1.411   1.262 -11.028  0.00  0.00    -0.490 OA
BRANCH  31  32
ATOM     32  C   UNL     1       1.598   0.470 -12.202  0.00  0.00    +0.256 C 
BRANCH  32  33
ATOM     33  C   UNL     1       1.644   1.381 -13.430  0.00  0.00    +0.196 C 
BRANCH  33  34
ATOM     34  O   UNL     1       2.795   2.224 -13.356  0.00  0.00    -0.392 OA
ATOM     35  H   UNL     1       2.889   2.830 -14.103  0.00  0.00    +0.210 HD
ENDBRANCH  33  34
ENDBRANCH  32  33
ENDBRANCH  31  32
ENDBRANCH  28  31
ENDBRANCH  24  25
ENDBRANCH  13  24
TORSDOF 8
