REMARK  Name = ZINC20255771
REMARK  5 active torsions:
REMARK  status: ('A' for Active; 'I' for Inactive)
REMARK    1  A    between atoms: C_1  and  C_2
REMARK    2  A    between atoms: N_5  and  S_8
REMARK    3  A    between atoms: S_8  and  N_11
REMARK    4  A    between atoms: N_11  and  C_12
REMARK    5  A    between atoms: C_15  and  C_18
REMARK                            x       y       z     vdW  Elec       q    Type
REMARK                         _______ _______ _______ _____ _____    ______ ____
ROOT
ATOM      1  S   UNL     1       2.331  -2.801  -1.024  0.00  0.00    +0.046 S 
ATOM      2  O   UNL     1       2.163  -4.202  -0.857  0.00  0.00    -0.169 OA
ATOM      3  O   UNL     1       2.215  -2.166  -2.290  0.00  0.00    -0.169 OA
ENDROOT
BRANCH   1   8
ATOM      4  C   UNL     1       6.230  -0.621   2.571  0.00  0.00    +0.007 C 
ATOM      5  C   UNL     1       5.779  -1.365   1.312  0.00  0.00    -0.017 C 
ATOM      6  C   UNL     1       4.962  -2.596   1.713  0.00  0.00    -0.012 C 
ATOM      7  C   UNL     1       4.542  -3.357   0.453  0.00  0.00    -0.043 C 
ATOM      8  N   UNL     1       3.838  -2.433  -0.446  0.00  0.00    +0.442 N 
ATOM      9  C   UNL     1       4.500  -1.177  -0.828  0.00  0.00    -0.043 C 
ATOM     10  C   UNL     1       4.918  -0.437   0.452  0.00  0.00    -0.012 C 
ATOM     11  H   UNL     1       4.821  -2.169  -0.029  0.00  0.00    -0.043 HD
ENDBRANCH   1   8
BRANCH   1  12
ATOM     12  N   UNL     1       1.231  -2.070  -0.025  0.00  0.00    -0.116 NA
BRANCH  12  13
ATOM     13  C   UNL     1       1.180  -2.412   1.323  0.00  0.00    +0.072 A 
ATOM     14  C   UNL     1       1.112  -1.414   2.291  0.00  0.00    +0.028 A 
ATOM     15  C   UNL     1       1.061  -1.750   3.625  0.00  0.00    +0.021 A 
ATOM     16  C   UNL     1       1.078  -3.094   4.007  0.00  0.00    +0.052 A 
ATOM     17  C   UNL     1       1.147  -4.094   3.032  0.00  0.00    +0.021 A 
ATOM     18  C   UNL     1       1.197  -3.752   1.700  0.00  0.00    +0.028 A 
BRANCH  16  19
ATOM     19  C   UNL     1       1.025  -3.447   5.394  0.00  0.00    +0.099 C 
ATOM     20  N   UNL     1       0.983  -3.726   6.494  0.00  0.00    -0.191 NA
ENDBRANCH  16  19
ENDBRANCH  12  13
ENDBRANCH   1  12
TORSDOF 4
