REMARK  Name = ZINC53158026
REMARK  7 active torsions:
REMARK  status: ('A' for Active; 'I' for Inactive)
REMARK    1  A    between atoms: C_1  and  C_2
REMARK    2  A    between atoms: C_2  and  C_4
REMARK    3  A    between atoms: C_2  and  S_12
REMARK    4  A    between atoms: C_6  and  C_9
REMARK    5  A    between atoms: S_12  and  C_13
REMARK    6  A    between atoms: C_16  and  C_19
REMARK    7  A    between atoms: N_17  and  N_18
REMARK                            x       y       z     vdW  Elec       q    Type
REMARK                         _______ _______ _______ _____ _____    ______ ____
ROOT
ATOM      1  C   UNL     1       2.528  -0.093  -1.242  0.00  0.00    +0.209 A 
ATOM      2  N   UNL     1       2.963   0.720  -0.305  0.00  0.00    -0.121 NA
ATOM      3  N   UNL     1       4.200   1.004  -0.506  0.00  0.00    -0.127 NA
ATOM      4  C   UNL     1       4.631   0.390  -1.583  0.00  0.00    +0.183 A 
ATOM      5  N   UNL     1       3.576  -0.336  -2.085  0.00  0.00    -0.224 N 
ENDROOT
BRANCH   4   6
ATOM      6  C   UNL     1       5.996   0.461  -2.147  0.00  0.00    +0.039 A 
ATOM      7  C   UNL     1       6.179   0.687  -3.513  0.00  0.00    +0.014 A 
ATOM      8  C   UNL     1       7.454   0.753  -4.033  0.00  0.00    +0.021 A 
ATOM      9  C   UNL     1       8.553   0.594  -3.205  0.00  0.00    +0.042 A 
ATOM     10  C   UNL     1       8.379   0.369  -1.850  0.00  0.00    +0.040 A 
ATOM     11  C   UNL     1       7.107   0.307  -1.316  0.00  0.00    +0.053 A 
ATOM     12 CL   UNL     1       6.891   0.032   0.385  0.00  0.00    -0.083 Cl
ATOM     13 CL   UNL     1      10.155   0.677  -3.869  0.00  0.00    -0.083 Cl
ENDBRANCH   4   6
BRANCH   5  14
ATOM     14  N   UNL     1       3.575  -1.131  -3.195  0.00  0.00    -0.295 N 
ATOM     15  H   UNL     1       3.404  -0.589  -4.028  0.00  0.00    +0.163 HD
ATOM     16  H   UNL     1       4.438  -1.648  -3.270  0.00  0.00    +0.163 HD
ENDBRANCH   5  14
BRANCH   1  17
ATOM     17  S   UNL     1       0.900  -0.752  -1.382  0.00  0.00    -0.072 S 
BRANCH  17  19
ATOM     18  C   UNL     1      -0.077   1.476  -0.132  0.00  0.00    +0.029 C 
ATOM     19  C   UNL     1       0.016  -0.042   0.034  0.00  0.00    +0.140 C 
BRANCH  19  20
ATOM     20  C   UNL     1      -1.371  -0.626   0.105  0.00  0.00    +0.241 A 
ATOM     21  N   UNL     1      -1.965  -1.056   1.183  0.00  0.00    -0.195 NA
ATOM     22  C   UNL     1      -3.188  -1.509   0.884  0.00  0.00    +0.175 A 
ATOM     23  N   UNL     1      -3.387  -1.372  -0.395  0.00  0.00    -0.061 NA
ATOM     24  O   UNL     1      -2.208  -0.787  -0.927  0.00  0.00    -0.337 OA
BRANCH  22  25
ATOM     25  C   UNL     1      -4.173  -2.085   1.868  0.00  0.00    +0.060 C 
ATOM     26  C   UNL     1      -5.439  -2.733   1.303  0.00  0.00    +0.012 C 
ATOM     27  C   UNL     1      -5.523  -1.379   2.011  0.00  0.00    +0.012 C 
ENDBRANCH  22  25
ENDBRANCH  19  20
ENDBRANCH  17  19
ENDBRANCH   1  17
TORSDOF 6
