REMARK  Name = ZINC39709841
REMARK  11 active torsions:
REMARK  status: ('A' for Active; 'I' for Inactive)
REMARK    1  A    between atoms: C_1  and  C_2
REMARK    2  A    between atoms: C_2  and  C_3
REMARK    3  A    between atoms: C_8  and  C_12
REMARK    4  A    between atoms: C_12  and  C_14
REMARK    5  A    between atoms: C_14  and  S_15
REMARK    6  A    between atoms: S_15  and  C_16
REMARK    7  A    between atoms: C_20  and  C_28
REMARK    8  A    between atoms: N_22  and  C_23
REMARK    9  A    between atoms: C_23  and  C_24
REMARK   10  A    between atoms: C_24  and  C_25
REMARK   11  A    between atoms: C_31  and  C_34
REMARK                            x       y       z     vdW  Elec       q    Type
REMARK                         _______ _______ _______ _____ _____    ______ ____
ROOT
ATOM      1  C   UNL     1      -1.323  -2.490   9.909  0.00  0.00    +0.077 C 
ATOM      2  N   UNL     1      -1.969  -1.155  10.011  0.00  0.00    -0.262 NA
ATOM      3  N   UNL     1      -3.313  -1.474  10.517  0.00  0.00    -0.267 NA
ATOM      4  C   UNL     1      -3.678  -2.734   9.830  0.00  0.00    +0.049 C 
ATOM      5  N   UNL     1      -2.407  -3.386   9.444  0.00  0.00    +0.411 N 
ATOM      6  H   UNL     1      -2.020  -0.707   9.108  0.00  0.00    +0.140 HD
ATOM      7  H   UNL     1      -3.968  -0.739  10.295  0.00  0.00    +0.139 HD
ATOM      8  H   UNL     1      -2.328  -4.287   9.892  0.00  0.00    -0.075 HD
ENDROOT
BRANCH   4   9
ATOM      9  C   UNL     1      -4.452  -3.627  10.765  0.00  0.00    -0.046 A 
ATOM     10  C   UNL     1      -4.345  -5.001  10.656  0.00  0.00    +0.003 A 
ATOM     11  C   UNL     1      -5.055  -5.820  11.513  0.00  0.00    +0.003 A 
ATOM     12  C   UNL     1      -5.872  -5.266  12.481  0.00  0.00    -0.050 A 
ATOM     13  C   UNL     1      -5.978  -3.892  12.591  0.00  0.00    +0.003 A 
ATOM     14  C   UNL     1      -5.265  -3.072  11.736  0.00  0.00    +0.003 A 
ATOM     15  C   UNL     1      -6.646  -6.159  13.415  0.00  0.00    +0.044 C 
ENDBRANCH   4   9
BRANCH   1  16
ATOM     16  S   UNL     1       0.029  -2.449   8.700  0.00  0.00    -0.152 S 
BRANCH  16  17
ATOM     17  C   UNL     1       1.413  -1.717   9.616  0.00  0.00    +0.148 C 
BRANCH  17  18
ATOM     18  C   UNL     1       2.651  -1.737   8.755  0.00  0.00    +0.171 C 
ATOM     19  O   UNL     1       2.603  -2.200   7.634  0.00  0.00    -0.291 OA
BRANCH  18  25
ATOM     20  C   UNL     1       7.449  -0.372   9.002  0.00  0.00    -0.024 A 
ATOM     21  C   UNL     1       7.746  -0.795   7.754  0.00  0.00    +0.005 A 
ATOM     22  C   UNL     1       6.782  -1.386   6.921  0.00  0.00    +0.001 A 
ATOM     23  C   UNL     1       5.500  -1.568   7.310  0.00  0.00    +0.010 A 
ATOM     24  C   UNL     1       5.081  -1.160   8.598  0.00  0.00    +0.006 A 
ATOM     25  C   UNL     1       3.864  -1.217   9.253  0.00  0.00    +0.024 C 
ATOM     26  C   UNL     1       4.107  -0.605  10.615  0.00  0.00    +0.152 C 
ATOM     27  N   UNL     1       5.522  -0.221  10.642  0.00  0.00    -0.380 N 
ATOM     28  C   UNL     1       6.076  -0.539   9.507  0.00  0.00    +0.046 A 
ATOM     29  H   UNL     1       5.976   0.199  11.389  0.00  0.00    +0.160 HD
BRANCH  20  31
ATOM     30  C   UNL     1       9.133  -0.813  10.769  0.00  0.00    +0.009 C 
ATOM     31  C   UNL     1       8.511   0.256   9.868  0.00  0.00    +0.034 C 
ENDBRANCH  20  31
ENDBRANCH  18  25
ENDBRANCH  17  18
ENDBRANCH  16  17
ENDBRANCH   1  16
BRANCH   5  32
ATOM     32  C   UNL     1      -2.343  -3.540   7.984  0.00  0.00    -0.061 C 
BRANCH  32  33
ATOM     33  C   UNL     1      -3.409  -4.540   7.530  0.00  0.00    +0.107 C 
BRANCH  33  34
ATOM     34  C   UNL     1      -3.423  -4.609   6.024  0.00  0.00    +0.354 C 
ATOM     35  O   UNL     1      -2.653  -3.922   5.375  0.00  0.00    -0.246 OA
ATOM     36  O   UNL     1      -4.205  -5.351   5.455  0.00  0.00    -0.246 OA
ENDBRANCH  33  34
ENDBRANCH  32  33
ENDBRANCH   5  32
TORSDOF 9
