REMARK  Name = ZINC63654942
REMARK  11 active torsions:
REMARK  status: ('A' for Active; 'I' for Inactive)
REMARK    1  A    between atoms: C_1  and  O_2
REMARK    2  A    between atoms: O_2  and  C_3
REMARK    3  A    between atoms: C_6  and  C_11
REMARK    4  A    between atoms: C_8  and  O_9
REMARK    5  A    between atoms: O_9  and  C_10
REMARK    6  A    between atoms: C_12  and  C_13
REMARK    7  A    between atoms: N_15  and  C_16
REMARK    8  A    between atoms: C_16  and  C_17
REMARK    9  A    between atoms: C_17  and  S_18
REMARK   10  A    between atoms: S_18  and  C_19
REMARK   11  A    between atoms: C_27  and  C_29
REMARK                            x       y       z     vdW  Elec       q    Type
REMARK                         _______ _______ _______ _____ _____    ______ ____
ROOT
ATOM      1  C   UNL     1     -10.950  -1.484   0.094  0.00  0.00    +0.093 C 
ENDROOT
BRANCH   1   2
ATOM      2  C   UNL     1      -9.829  -2.526   0.103  0.00  0.00    +0.115 C 
BRANCH   2   5
ATOM      3  C   UNL     1      -7.393  -2.569   0.110  0.00  0.00    +0.237 C 
ATOM      4  O   UNL     1      -7.444  -3.785   0.117  0.00  0.00    -0.271 OA
ATOM      5  N   UNL     1      -8.531  -1.847   0.102  0.00  0.00    -0.311 N 
ATOM      6  H   UNL     1      -8.491  -0.878   0.096  0.00  0.00    +0.149 HD
BRANCH   3   8
ATOM      7  C   UNL     1      -4.957  -2.615   0.116  0.00  0.00    +0.013 C 
ATOM      8  C   UNL     1      -6.097  -1.891   0.108  0.00  0.00    +0.068 C 
BRANCH   7  12
ATOM      9  C   UNL     1      -1.198  -0.642   0.113  0.00  0.00    +0.162 A 
ATOM     10  C   UNL     1      -2.372   0.100   0.104  0.00  0.00    +0.050 A 
ATOM     11  C   UNL     1      -3.594  -0.535   0.105  0.00  0.00    +0.012 A 
ATOM     12  C   UNL     1      -3.655  -1.933   0.114  0.00  0.00    -0.021 A 
ATOM     13  C   UNL     1      -2.472  -2.681   0.122  0.00  0.00    +0.057 A 
ATOM     14  C   UNL     1      -1.251  -2.036   0.117  0.00  0.00    +0.162 A 
BRANCH   9  16
ATOM     15  C   UNL     1      -0.015   1.419   0.108  0.00  0.00    +0.277 C 
ATOM     16  O   UNL     1       0.004  -0.010   0.112  0.00  0.00    -0.491 OA
ENDBRANCH   9  16
BRANCH  14  17
ATOM     17  O   UNL     1      -0.099  -2.759   0.120  0.00  0.00    -0.491 OA
ATOM     18  C   UNL     1      -0.227  -4.183   0.124  0.00  0.00    +0.277 C 
ENDBRANCH  14  17
ENDBRANCH   7  12
ENDBRANCH   3   8
ENDBRANCH   2   5
ENDBRANCH   1   2
BRANCH   1  19
ATOM     19  S   UNL     1     -12.557  -2.324   0.096  0.00  0.00    -0.125 S 
BRANCH  19  20
ATOM     20  C   UNL     1     -13.656  -1.089   0.246  0.00  0.00    +0.021 C 
ATOM     21  C   UNL     1     -13.390   0.277   0.244  0.00  0.00    +0.010 A 
ATOM     22  C   UNL     1     -12.192   1.014   0.124  0.00  0.00    +0.011 A 
ATOM     23  C   UNL     1     -12.230   2.371   0.156  0.00  0.00    +0.001 A 
ATOM     24  C   UNL     1     -13.432   3.065   0.307  0.00  0.00    +0.002 A 
ATOM     25  C   UNL     1     -14.620   2.421   0.428  0.00  0.00    +0.026 A 
ATOM     26  C   UNL     1     -14.659   1.004   0.403  0.00  0.00    +0.044 A 
ATOM     27  N   UNL     1     -15.667   0.157   0.500  0.00  0.00    -0.373 N 
ATOM     28  C   UNL     1     -15.155  -1.214   0.408  0.00  0.00    +0.147 C 
ATOM     29  H   UNL     1     -16.599   0.402   0.611  0.00  0.00    +0.161 HD
BRANCH  28  30
ATOM     30  C   UNL     1     -15.479  -1.972   1.669  0.00  0.00    -0.020 A 
ATOM     31  C   UNL     1     -15.450  -1.326   2.891  0.00  0.00    +0.007 A 
ATOM     32  C   UNL     1     -15.748  -2.021   4.048  0.00  0.00    +0.020 A 
ATOM     33  C   UNL     1     -16.075  -3.364   3.983  0.00  0.00    +0.041 A 
ATOM     34  C   UNL     1     -16.104  -4.010   2.760  0.00  0.00    +0.020 A 
ATOM     35  C   UNL     1     -15.812  -3.312   1.603  0.00  0.00    +0.007 A 
ATOM     36 CL   UNL     1     -16.448  -4.237   5.436  0.00  0.00    -0.084 Cl
ENDBRANCH  28  30
ENDBRANCH  19  20
ENDBRANCH   1  19
TORSDOF 9
