REMARK  Name = ZINC01182620
REMARK  11 active torsions:
REMARK  status: ('A' for Active; 'I' for Inactive)
REMARK    1  A    between atoms: C_1  and  C_2
REMARK    2  A    between atoms: C_2  and  C_3
REMARK    3  A    between atoms: C_2  and  C_4
REMARK    4  A    between atoms: C_2  and  C_5
REMARK    5  A    between atoms: C_8  and  O_25
REMARK    6  A    between atoms: C_9  and  N_11
REMARK    7  A    between atoms: N_11  and  C_12
REMARK    8  A    between atoms: C_12  and  N_14
REMARK    9  A    between atoms: C_15  and  C_17
REMARK   10  A    between atoms: C_21  and  O_23
REMARK   11  A    between atoms: O_23  and  C_24
REMARK                            x       y       z     vdW  Elec       q    Type
REMARK                         _______ _______ _______ _____ _____    ______ ____
ROOT
ATOM      1  N   UNL     1       2.242   8.046   0.024  0.00  0.00    -0.294 N 
ATOM      2  H   UNL     1       2.826   7.580   0.642  0.00  0.00    +0.154 HD
ENDROOT
BRANCH   1   7
ATOM      3  C   UNL     1       1.145  11.555  -0.121  0.00  0.00    -0.040 A 
ATOM      4  C   UNL     1       2.359  12.208  -0.224  0.00  0.00    +0.008 A 
ATOM      5  C   UNL     1       3.538  11.486  -0.244  0.00  0.00    +0.047 A 
ATOM      6  C   UNL     1       3.504  10.103  -0.163  0.00  0.00    +0.138 A 
ATOM      7  C   UNL     1       2.281   9.444  -0.059  0.00  0.00    +0.075 A 
ATOM      8  C   UNL     1       1.103  10.175  -0.044  0.00  0.00    +0.031 A 
BRANCH   3  10
ATOM      9  C   UNL     1       0.186  13.840  -0.204  0.00  0.00    +0.015 C 
ATOM     10  C   UNL     1      -0.136  12.348  -0.100  0.00  0.00    -0.013 C 
ATOM     11  C   UNL     1      -1.014  11.932  -1.283  0.00  0.00    +0.015 C 
ATOM     12  C   UNL     1      -0.882  12.078   1.208  0.00  0.00    +0.015 C 
ENDBRANCH   3  10
BRANCH   6  13
ATOM     13  O   UNL     1       4.663   9.391  -0.184  0.00  0.00    -0.505 OA
ATOM     14  H   UNL     1       4.950   9.134  -1.071  0.00  0.00    +0.292 HD
ENDBRANCH   6  13
ENDBRANCH   1   7
BRANCH   1  15
ATOM     15  C   UNL     1       1.391   7.349  -0.755  0.00  0.00    +0.141 C 
ATOM     16  S   UNL     1       0.283   8.175  -1.765  0.00  0.00    -0.018 S 
BRANCH  15  17
ATOM     17  N   UNL     1       1.413   6.001  -0.739  0.00  0.00    -0.264 N 
ATOM     18  C   UNL     1       0.563   5.304  -1.518  0.00  0.00    +0.250 C 
ATOM     19  O   UNL     1      -0.224   5.890  -2.235  0.00  0.00    -0.270 OA
ATOM     20  H   UNL     1       2.042   5.533  -0.167  0.00  0.00    +0.157 HD
BRANCH  18  21
ATOM     21  C   UNL     1       0.587   3.826  -1.500  0.00  0.00    +0.041 A 
ATOM     22  C   UNL     1       1.490   3.150  -0.677  0.00  0.00    +0.013 A 
ATOM     23  C   UNL     1       1.510   1.771  -0.663  0.00  0.00    +0.004 A 
ATOM     24  C   UNL     1       0.638   1.054  -1.462  0.00  0.00    +0.045 A 
ATOM     25  C   UNL     1      -0.260   1.718  -2.287  0.00  0.00    +0.121 A 
ATOM     26  C   UNL     1      -0.292   3.102  -2.305  0.00  0.00    +0.058 A 
BRANCH  25  27
ATOM     27  O   UNL     1      -1.112   1.008  -3.073  0.00  0.00    -0.495 OA
ATOM     28  C   UNL     1      -1.028  -0.417  -3.000  0.00  0.00    +0.277 C 
ENDBRANCH  25  27
ENDBRANCH  18  21
ENDBRANCH  15  17
ENDBRANCH   1  15
TORSDOF 7
