REMARK  Name = ZINC49023552
REMARK  3 active torsions:
REMARK  status: ('A' for Active; 'I' for Inactive)
REMARK    1  A    between atoms: C_6  and  C_7
REMARK    2  A    between atoms: C_7  and  C_8
REMARK    3  A    between atoms: C_14  and  C_16
REMARK                            x       y       z     vdW  Elec       q    Type
REMARK                         _______ _______ _______ _____ _____    ______ ____
ROOT
ATOM      1  C   UNL     1      -1.738  -1.024  -1.408  0.00  0.00    +0.223 C 
ATOM      2  O   UNL     1      -1.070  -0.616  -2.334  0.00  0.00    -0.275 OA
ATOM      3  N   UNL     1      -2.879  -1.700  -1.647  0.00  0.00    -0.263 N 
ATOM      4  C   UNL     1      -3.290  -1.930  -2.955  0.00  0.00    +0.188 A 
ATOM      5  N   UNL     1      -2.707  -1.577  -4.084  0.00  0.00    -0.125 NA
ATOM      6  N   UNL     1      -3.206  -1.861  -5.210  0.00  0.00    -0.139 NA
ATOM      7  C   UNL     1      -4.342  -2.527  -5.259  0.00  0.00    +0.169 A 
ATOM      8  S   UNL     1      -4.660  -2.739  -3.513  0.00  0.00    -0.030 S 
ATOM      9  H   UNL     1      -3.414  -2.026  -0.906  0.00  0.00    +0.157 HD
ENDROOT
BRANCH   7  10
ATOM     10  C   UNL     1      -5.142  -2.987  -6.450  0.00  0.00    +0.398 C 
ATOM     11  F   UNL     1      -4.280  -3.237  -7.523  0.00  0.00    -0.202 F 
ATOM     12  F   UNL     1      -5.832  -4.160  -6.124  0.00  0.00    -0.202 F 
ENDBRANCH   7  10
BRANCH   1  13
ATOM     13  C   UNL     1      -1.293  -0.775   0.010  0.00  0.00    +0.131 C 
BRANCH  13  19
ATOM     14  C   UNL     1      -0.017   1.378   0.010  0.00  0.00    +0.007 A 
ATOM     15  C   UNL     1       1.170   2.086   0.002  0.00  0.00    +0.040 A 
ATOM     16  C   UNL     1       2.379   1.411  -0.013  0.00  0.00    +0.137 A 
ATOM     17  C   UNL     1       2.397   0.026  -0.021  0.00  0.00    +0.053 A 
ATOM     18  C   UNL     1       1.208  -0.680  -0.013  0.00  0.00    +0.022 A 
ATOM     19  C   UNL     1       0.002  -0.004   0.002  0.00  0.00    -0.037 A 
ATOM     20 BR   UNL     1       4.046  -0.899  -0.042  0.00  0.00    -0.047 Br
ATOM     21  F   UNL     1       3.539   2.103  -0.021  0.00  0.00    -0.204 F 
ENDBRANCH  13  19
ENDBRANCH   1  13
TORSDOF 3
