REMARK  Name = ZINC01152564
REMARK  7 active torsions:
REMARK  status: ('A' for Active; 'I' for Inactive)
REMARK    1  A    between atoms: C_1  and  C_2
REMARK    2  A    between atoms: C_2  and  C_3
REMARK    3  A    between atoms: C_3  and  C_5
REMARK    4  A    between atoms: C_3  and  N_6
REMARK    5  A    between atoms: C_10  and  C_11
REMARK    6  A    between atoms: C_12  and  C_24
REMARK    7  A    between atoms: C_18  and  N_21
REMARK                            x       y       z     vdW  Elec       q    Type
REMARK                         _______ _______ _______ _____ _____    ______ ____
ROOT
ATOM      1  N   UNL     1      -0.191   1.035   2.488  0.00  0.00    -0.245 N 
ATOM      2  C   UNL     1      -0.976   0.279   3.283  0.00  0.00    +0.257 C 
ATOM      3  O   UNL     1      -2.183   0.254   3.128  0.00  0.00    -0.269 OA
ATOM      4  C   UNL     1      -0.333  -0.519   4.341  0.00  0.00    +0.102 C 
ATOM      5  C   UNL     1      -1.075  -1.325   5.194  0.00  0.00    +0.028 C 
ATOM      6  C   UNL     1       1.133  -0.422   4.458  0.00  0.00    +0.274 C 
ATOM      7  O   UNL     1       1.735  -1.048   5.310  0.00  0.00    -0.268 OA
ATOM      8  N   UNL     1       1.789   0.381   3.595  0.00  0.00    -0.154 NA
ATOM      9  C   UNL     1       1.139   1.076   2.652  0.00  0.00    +0.167 C 
ATOM     10  S   UNL     1       2.054   2.068   1.599  0.00  0.00    -0.016 S 
ENDROOT
BRANCH   5  11
ATOM     11  C   UNL     1      -0.450  -1.961   6.286  0.00  0.00    +0.004 A 
ATOM     12  C   UNL     1      -0.316  -3.323   6.491  0.00  0.00    +0.021 A 
ATOM     13  N   UNL     1       0.340  -3.542   7.645  0.00  0.00    -0.358 N 
ATOM     14  H   UNL     1       0.541  -4.572   7.976  0.00  0.00    +0.166 HD
ATOM     15  C   UNL     1       0.670  -2.349   8.256  0.00  0.00    +0.047 A 
ATOM     16  C   UNL     1       0.201  -1.307   7.440  0.00  0.00    +0.009 A 
ATOM     17  C   UNL     1       0.391   0.018   7.819  0.00  0.00    +0.043 A 
ATOM     18  C   UNL     1       1.052   0.303   8.995  0.00  0.00    +0.127 A 
ATOM     19  C   UNL     1       1.522  -0.723   9.799  0.00  0.00    +0.035 A 
ATOM     20  C   UNL     1       1.334  -2.041   9.438  0.00  0.00    +0.028 A 
ATOM     21  C   UNL     1      -0.826  -4.396   5.563  0.00  0.00    +0.064 C 
BRANCH  18  22
ATOM     22  N   UNL     1       1.261   1.712   9.399  0.00  0.00    +0.056 N 
ATOM     23  O   UNL     1       1.845   1.967  10.438  0.00  0.00    -0.126 OA
ATOM     24  O   UNL     1       0.850   2.616   8.694  0.00  0.00    -0.126 OA
ENDBRANCH  18  22
ENDBRANCH   5  11
BRANCH   1  25
ATOM     25  C   UNL     1      -0.806   1.833   1.425  0.00  0.00    +0.080 C 
ATOM     26  C   UNL     1      -1.813   2.809   2.038  0.00  0.00    +0.028 C 
BRANCH  25  28
ATOM     27  C   UNL     1      -0.503   0.013  -0.260  0.00  0.00    +0.006 C 
ATOM     28  C   UNL     1      -1.527   0.907   0.443  0.00  0.00    +0.019 C 
ENDBRANCH  25  28
ENDBRANCH   1  25
TORSDOF 4
