REMARK  Name = ZINC34771400
REMARK  5 active torsions:
REMARK  status: ('A' for Active; 'I' for Inactive)
REMARK    1  A    between atoms: C_1  and  C_2
REMARK    2  A    between atoms: C_3  and  C_27
REMARK    3  A    between atoms: N_5  and  C_21
REMARK    4  A    between atoms: N_11  and  C_14
REMARK    5  A    between atoms: C_32  and  O_33
REMARK                            x       y       z     vdW  Elec       q    Type
REMARK                         _______ _______ _______ _____ _____    ______ ____
ROOT
ATOM      1  C   UNL     1      -0.025   1.501  -0.056  0.00  0.00    +0.027 C 
ATOM      2  C   UNL     1       0.011  -0.028  -0.015  0.00  0.00    +0.109 C 
ATOM      3  C   UNL     1       0.787  -0.645  -1.200  0.00  0.00    +0.163 C 
ATOM      4  N   UNL     1       2.101  -0.972  -0.596  0.00  0.00    -0.243 N 
ATOM      5  O   UNL     1       1.786  -1.443   0.715  0.00  0.00    -0.257 OA
ATOM      6  C   UNL     1       0.748  -0.589   1.232  0.00  0.00    +0.252 C 
ATOM      7  C   UNL     1      -0.310  -1.430   1.911  0.00  0.00    +0.259 C 
ATOM      8  O   UNL     1      -0.162  -2.037   2.950  0.00  0.00    -0.272 OA
ATOM      9  N   UNL     1      -1.435  -1.398   1.188  0.00  0.00    -0.208 N 
ATOM     10  C   UNL     1      -1.364  -0.648   0.082  0.00  0.00    +0.238 C 
ATOM     11  O   UNL     1      -2.262  -0.489  -0.717  0.00  0.00    -0.274 OA
ENDROOT
BRANCH   9  12
ATOM     12  C   UNL     1      -2.595  -2.094   1.558  0.00  0.00    +0.044 A 
ATOM     13  C   UNL     1      -2.605  -3.483   1.549  0.00  0.00    +0.025 A 
ATOM     14  C   UNL     1      -3.748  -4.166   1.914  0.00  0.00    +0.022 A 
ATOM     15  C   UNL     1      -4.883  -3.469   2.289  0.00  0.00    +0.041 A 
ATOM     16  C   UNL     1      -4.875  -2.085   2.298  0.00  0.00    +0.022 A 
ATOM     17  C   UNL     1      -3.733  -1.397   1.940  0.00  0.00    +0.025 A 
ATOM     18 CL   UNL     1      -6.318  -4.331   2.747  0.00  0.00    -0.084 Cl
ENDBRANCH   9  12
BRANCH   4  19
ATOM     19  C   UNL     1       3.365  -0.848  -1.178  0.00  0.00    +0.065 A 
ATOM     20  C   UNL     1       3.489  -0.363  -2.474  0.00  0.00    +0.028 A 
ATOM     21  C   UNL     1       4.740  -0.241  -3.047  0.00  0.00    +0.002 A 
ATOM     22  C   UNL     1       5.868  -0.601  -2.332  0.00  0.00    +0.000 A 
ATOM     23  C   UNL     1       5.747  -1.084  -1.042  0.00  0.00    +0.002 A 
ATOM     24  C   UNL     1       4.500  -1.203  -0.461  0.00  0.00    +0.028 A 
ENDBRANCH   4  19
BRANCH   3  25
ATOM     25  C   UNL     1       0.100  -1.890  -1.699  0.00  0.00    +0.020 A 
ATOM     26  C   UNL     1       0.494  -3.130  -1.235  0.00  0.00    +0.009 A 
ATOM     27  C   UNL     1      -0.136  -4.273  -1.692  0.00  0.00    +0.001 A 
ATOM     28  C   UNL     1      -1.163  -4.178  -2.614  0.00  0.00    +0.004 A 
ATOM     29  C   UNL     1      -1.561  -2.940  -3.080  0.00  0.00    +0.046 A 
ATOM     30  C   UNL     1      -0.933  -1.791  -2.619  0.00  0.00    +0.122 A 
BRANCH  30  31
ATOM     31  O   UNL     1      -1.327  -0.572  -3.073  0.00  0.00    -0.506 OA
ATOM     32  H   UNL     1      -0.858  -0.277  -3.865  0.00  0.00    +0.292 HD
ENDBRANCH  30  31
ENDBRANCH   3  25
TORSDOF 4
