REMARK  Name = ZINC65056333
REMARK  5 active torsions:
REMARK  status: ('A' for Active; 'I' for Inactive)
REMARK    1  A    between atoms: C_1  and  C_2
REMARK    2  A    between atoms: C_6  and  C_11
REMARK    3  A    between atoms: C_11  and  C_12
REMARK    4  A    between atoms: C_12  and  C_13
REMARK    5  A    between atoms: N_15  and  C_16
REMARK                            x       y       z     vdW  Elec       q    Type
REMARK                         _______ _______ _______ _____ _____    ______ ____
ROOT
ATOM      1  C   UNL     1       0.540   1.492  -0.089  0.00  0.00    +0.070 C 
ATOM      2  C   UNL     1       0.462  -0.013  -0.079  0.00  0.00    +0.093 A 
ATOM      3  C   UNL     1       0.118  -0.868  -1.211  0.00  0.00    +0.103 A 
ATOM      4  C   UNL     1      -0.225  -0.643  -2.556  0.00  0.00    +0.138 A 
ATOM      5  N   UNL     1      -0.484  -1.696  -3.326  0.00  0.00    -0.216 NA
ATOM      6  C   UNL     1      -0.423  -2.923  -2.843  0.00  0.00    +0.135 A 
ATOM      7  N   UNL     1      -0.107  -3.179  -1.591  0.00  0.00    -0.195 NA
ATOM      8  C   UNL     1       0.170  -2.193  -0.744  0.00  0.00    +0.263 A 
ATOM      9  O   UNL     1       0.515  -2.139   0.553  0.00  0.00    -0.334 OA
ATOM     10  N   UNL     1       0.693  -0.790   0.936  0.00  0.00    -0.080 NA
ATOM     11  N   UNL     1      -0.290   0.639  -3.064  0.00  0.00    -0.314 N 
ATOM     12  C   UNL     1       0.918   1.309  -3.563  0.00  0.00    +0.106 C 
ATOM     13  C   UNL     1       0.657   1.797  -4.991  0.00  0.00    +0.019 C 
ATOM     14  C   UNL     1      -0.598   2.672  -5.006  0.00  0.00    +0.003 C 
ATOM     15  C   UNL     1      -1.803   1.846  -4.550  0.00  0.00    +0.019 C 
ATOM     16  C   UNL     1      -1.571   1.356  -3.122  0.00  0.00    +0.106 C 
ENDROOT
BRANCH   6  17
ATOM     17  C   UNL     1      -0.727  -4.078  -3.763  0.00  0.00    +0.085 C 
BRANCH  17  18
ATOM     18  C   UNL     1       0.563  -4.543  -4.441  0.00  0.00    +0.103 C 
BRANCH  18  19
ATOM     19  C   UNL     1       0.259  -5.697  -5.361  0.00  0.00    +0.214 C 
ATOM     20  O   UNL     1      -0.878  -6.108  -5.464  0.00  0.00    -0.276 OA
ATOM     21  N   UNL     1       1.250  -6.274  -6.069  0.00  0.00    -0.308 N 
ATOM     22  H   UNL     1       2.159  -5.946  -5.987  0.00  0.00    +0.149 HD
BRANCH  21  23
ATOM     23  C   UNL     1       0.954  -7.396  -6.963  0.00  0.00    +0.103 C 
ATOM     24  C   UNL     1       2.007  -7.451  -8.068  0.00  0.00    +0.027 C 
ATOM     25  C   UNL     1       1.811  -8.750  -8.859  0.00  0.00    +0.007 C 
ATOM     26  C   UNL     1       2.218  -9.922  -7.970  0.00  0.00    +0.035 C 
ATOM     27  C   UNL     1       1.529  -9.838  -6.633  0.00  0.00    -0.042 A 
ATOM     28  C   UNL     1       0.953  -8.677  -6.169  0.00  0.00    -0.024 A 
ATOM     29  C   UNL     1       0.339  -8.665  -4.924  0.00  0.00    +0.006 A 
ATOM     30  C   UNL     1       0.300  -9.806  -4.150  0.00  0.00    +0.000 A 
ATOM     31  C   UNL     1       0.876 -10.973  -4.618  0.00  0.00    +0.000 A 
ATOM     32  C   UNL     1       1.486 -10.986  -5.854  0.00  0.00    +0.004 A 
ENDBRANCH  21  23
ENDBRANCH  18  19
ENDBRANCH  17  18
ENDBRANCH   6  17
TORSDOF 4
