REMARK  Name = ZINC56135675
REMARK  6 active torsions:
REMARK  status: ('A' for Active; 'I' for Inactive)
REMARK    1  A    between atoms: C_1  and  C_2
REMARK    2  A    between atoms: C_4  and  C_7
REMARK    3  A    between atoms: C_7  and  N_14
REMARK    4  A    between atoms: C_15  and  C_17
REMARK    5  A    between atoms: C_21  and  N_23
REMARK    6  A    between atoms: C_24  and  C_26
REMARK                            x       y       z     vdW  Elec       q    Type
REMARK                         _______ _______ _______ _____ _____    ______ ____
ROOT
ATOM      1  N   UNL     1      -2.382  -3.179  -1.217  0.00  0.00    -0.299 N 
ATOM      2  C   UNL     1      -3.200  -2.133  -1.450  0.00  0.00    +0.245 C 
ATOM      3  O   UNL     1      -3.256  -1.216  -0.654  0.00  0.00    -0.270 OA
ATOM      4  H   UNL     1      -2.338  -3.911  -1.853  0.00  0.00    +0.150 HD
ENDROOT
BRANCH   1   5
ATOM      5  C   UNL     1      -1.562  -3.211  -0.004  0.00  0.00    +0.098 C 
ATOM      6  C   UNL     1      -2.489  -3.132   1.226  0.00  0.00    +0.034 C 
ATOM      7  C   UNL     1      -3.697  -3.992   0.970  0.00  0.00    +0.003 C 
ATOM      8  C   UNL     1      -3.538  -5.415   1.538  0.00  0.00    +0.000 C 
ATOM      9  C   UNL     1      -2.135  -6.002   1.297  0.00  0.00    +0.000 C 
ATOM     10  C   UNL     1      -1.614  -5.701  -0.082  0.00  0.00    +0.003 C 
ATOM     11  C   UNL     1      -0.754  -4.422  -0.014  0.00  0.00    +0.034 C 
BRANCH   5  15
ATOM     12  C   UNL     1      -0.031   1.558   0.010  0.00  0.00    +0.112 C 
ATOM     13  C   UNL     1       0.002   0.052   0.003  0.00  0.00    +0.224 A 
ATOM     14  N   UNL     1      -1.038  -0.735   0.004  0.00  0.00    -0.194 NA
ATOM     15  C   UNL     1      -0.646  -2.014  -0.003  0.00  0.00    +0.195 A 
ATOM     16  N   UNL     1       0.655  -2.057  -0.009  0.00  0.00    -0.059 NA
ATOM     17  O   UNL     1       1.103  -0.709  -0.011  0.00  0.00    -0.338 OA
ENDBRANCH   5  15
ENDBRANCH   1   5
BRANCH   2  18
ATOM     18  C   UNL     1      -4.027  -2.100  -2.674  0.00  0.00    +0.039 A 
ATOM     19  C   UNL     1      -3.969  -3.155  -3.587  0.00  0.00    +0.016 A 
ATOM     20  C   UNL     1      -4.743  -3.124  -4.728  0.00  0.00    +0.041 A 
ATOM     21  C   UNL     1      -5.580  -2.047  -4.973  0.00  0.00    +0.145 A 
ATOM     22  C   UNL     1      -5.644  -0.991  -4.068  0.00  0.00    +0.070 A 
ATOM     23  C   UNL     1      -4.875  -1.018  -2.917  0.00  0.00    +0.039 A 
ATOM     24  F   UNL     1      -6.335  -2.022  -6.092  0.00  0.00    -0.204 F 
BRANCH  22  25
ATOM     25  N   UNL     1      -6.491   0.096  -4.319  0.00  0.00    -0.283 N 
ATOM     26  C   UNL     1      -7.110   0.718  -3.296  0.00  0.00    +0.214 C 
ATOM     27  O   UNL     1      -6.871   0.391  -2.153  0.00  0.00    -0.276 OA
ATOM     28  C   UNL     1      -8.098   1.822  -3.573  0.00  0.00    +0.109 C 
ATOM     29  H   UNL     1      -6.632   0.400  -5.229  0.00  0.00    +0.155 HD
ENDBRANCH  22  25
ENDBRANCH   2  18
TORSDOF 4
