REMARK  Name = ZINC60212167
REMARK  8 active torsions:
REMARK  status: ('A' for Active; 'I' for Inactive)
REMARK    1  A    between atoms: C_1  and  C_2
REMARK    2  A    between atoms: C_7  and  C_12
REMARK    3  A    between atoms: N_14  and  N_15
REMARK    4  A    between atoms: N_15  and  C_16
REMARK    5  A    between atoms: C_17  and  C_24
REMARK    6  A    between atoms: C_19  and  C_21
REMARK    7  A    between atoms: C_21  and  C_22
REMARK    8  A    between atoms: C_21  and  C_23
REMARK                            x       y       z     vdW  Elec       q    Type
REMARK                         _______ _______ _______ _____ _____    ______ ____
ROOT
ATOM      1  C   UNL     1       1.210  -5.002  -1.103  0.00  0.00    +0.261 C 
ATOM      2  O   UNL     1       0.903  -4.580  -2.202  0.00  0.00    -0.269 OA
ATOM      3  N   UNL     1       1.511  -6.306  -0.942  0.00  0.00    -0.230 N 
ATOM      4  H   UNL     1       1.756  -6.642  -0.065  0.00  0.00    +0.173 HD
ENDROOT
BRANCH   1  10
ATOM      5  C   UNL     1      -0.019   1.526   0.010  0.00  0.00    +0.008 C 
ATOM      6  C   UNL     1       0.002  -0.004   0.002  0.00  0.00    -0.009 C 
ATOM      7  C   UNL     1       0.724  -0.500  -1.254  0.00  0.00    +0.008 C 
ATOM      8  C   UNL     1       0.536  -2.012  -1.400  0.00  0.00    +0.037 C 
ATOM      9  C   UNL     1       0.935  -2.681  -0.093  0.00  0.00    -0.025 A 
ATOM     10  C   UNL     1       1.253  -4.088   0.050  0.00  0.00    +0.049 A 
ATOM     11  C   UNL     1       1.597  -4.538   1.304  0.00  0.00    +0.058 A 
ATOM     12  S   UNL     1       1.508  -3.168   2.271  0.00  0.00    -0.101 S 
ATOM     13  C   UNL     1       1.019  -1.977   1.058  0.00  0.00    -0.006 A 
ATOM     14  C   UNL     1       0.750  -0.515   1.243  0.00  0.00    +0.046 C 
ENDBRANCH   1  10
BRANCH   3  15
ATOM     15  N   UNL     1       1.470  -7.175  -2.039  0.00  0.00    -0.232 N 
ATOM     16  H   UNL     1       1.225  -6.839  -2.916  0.00  0.00    +0.173 HD
BRANCH  15  17
ATOM     17  C   UNL     1       1.778  -8.509  -1.874  0.00  0.00    +0.241 A 
ATOM     18  C   UNL     1       1.788  -9.485  -2.857  0.00  0.00    +0.202 A 
ATOM     19  N   UNL     1       2.148 -10.651  -2.249  0.00  0.00    -0.200 NA
ATOM     20  C   UNL     1       2.346 -10.418  -0.988  0.00  0.00    +0.202 A 
ATOM     21  O   UNL     1       2.133  -9.117  -0.727  0.00  0.00    -0.423 OA
BRANCH  20  22
ATOM     22  C   UNL     1       2.758 -11.450   0.030  0.00  0.00    +0.069 C 
ATOM     23  C   UNL     1       1.701 -12.553   0.095  0.00  0.00    +0.017 C 
ATOM     24  C   UNL     1       4.104 -12.056  -0.374  0.00  0.00    +0.017 C 
ENDBRANCH  20  22
BRANCH  18  25
ATOM     25  C   UNL     1       1.480  -9.304  -4.243  0.00  0.00    +0.124 C 
ATOM     26  N   UNL     1       1.235  -9.161  -5.343  0.00  0.00    -0.189 NA
ENDBRANCH  18  25
ENDBRANCH  15  17
ENDBRANCH   3  15
TORSDOF 5
