REMARK  Name = ZINC10001940
REMARK  11 active torsions:
REMARK  status: ('A' for Active; 'I' for Inactive)
REMARK    1  A    between atoms: C_1  and  C_2
REMARK    2  A    between atoms: C_2  and  C_3
REMARK    3  A    between atoms: C_2  and  C_4
REMARK    4  A    between atoms: C_4  and  C_6
REMARK    5  A    between atoms: C_4  and  N_27
REMARK    6  A    between atoms: N_8  and  N_9
REMARK    7  A    between atoms: C_10  and  C_11
REMARK    8  A    between atoms: C_16  and  O_17
REMARK    9  A    between atoms: O_17  and  C_18
REMARK   10  A    between atoms: C_18  and  C_19
REMARK   11  A    between atoms: C_28  and  C_30
REMARK                            x       y       z     vdW  Elec       q    Type
REMARK                         _______ _______ _______ _____ _____    ______ ____
ROOT
ATOM      1  C   UNL     1      -3.574   6.915  -0.991  0.00  0.00    +0.253 C 
ATOM      2  O   UNL     1      -2.552   7.566  -1.039  0.00  0.00    -0.272 OA
ATOM      3  N   UNL     1      -3.514   5.574  -0.876  0.00  0.00    -0.205 N 
ATOM      4  H   UNL     1      -4.329   5.048  -0.900  0.00  0.00    +0.177 HD
ENDROOT
BRANCH   3   5
ATOM      5  N   UNL     1      -2.275   4.939  -0.722  0.00  0.00    -0.188 NA
ATOM      6  C   UNL     1      -2.205   3.643  -0.725  0.00  0.00    +0.142 C 
BRANCH   6   7
ATOM      7  C   UNL     1      -0.912   2.974  -0.491  0.00  0.00    +0.036 A 
ATOM      8  C   UNL     1      -0.809   1.586  -0.606  0.00  0.00    +0.013 A 
ATOM      9  C   UNL     1       0.402   0.966  -0.381  0.00  0.00    +0.001 A 
ATOM     10  C   UNL     1       1.519   1.715  -0.053  0.00  0.00    +0.004 A 
ATOM     11  C   UNL     1       1.432   3.090   0.058  0.00  0.00    +0.046 A 
ATOM     12  C   UNL     1       0.222   3.728  -0.159  0.00  0.00    +0.130 A 
BRANCH  12  13
ATOM     13  O   UNL     1       0.134   5.079  -0.051  0.00  0.00    -0.487 OA
BRANCH  13  14
ATOM     14  C   UNL     1       1.353   5.793   0.165  0.00  0.00    +0.266 C 
BRANCH  14  15
ATOM     15  C   UNL     1       1.047   7.247   0.415  0.00  0.00    +0.008 A 
ATOM     16  C   UNL     1      -0.266   7.669   0.514  0.00  0.00    +0.010 A 
ATOM     17  C   UNL     1      -0.548   9.003   0.743  0.00  0.00    +0.020 A 
ATOM     18  C   UNL     1       0.484   9.916   0.874  0.00  0.00    +0.042 A 
ATOM     19  C   UNL     1       1.797   9.494   0.774  0.00  0.00    +0.040 A 
ATOM     20  C   UNL     1       2.079   8.158   0.550  0.00  0.00    +0.049 A 
ATOM     21 CL   UNL     1       3.727   7.626   0.432  0.00  0.00    -0.083 Cl
ATOM     22 CL   UNL     1       0.129  11.591   1.161  0.00  0.00    -0.083 Cl
ENDBRANCH  14  15
ENDBRANCH  13  14
ENDBRANCH  12  13
ENDBRANCH   6   7
ENDBRANCH   3   5
BRANCH   1  23
ATOM     23  C   UNL     1      -4.912   7.606  -1.060  0.00  0.00    +0.163 C 
BRANCH  23  24
ATOM     24  N   UNL     1      -4.708   9.052  -1.181  0.00  0.00    -0.300 N 
ATOM     25  C   UNL     1      -5.666   9.905  -0.766  0.00  0.00    +0.247 C 
ATOM     26  O   UNL     1      -6.699   9.474  -0.290  0.00  0.00    -0.270 OA
ATOM     27  H   UNL     1      -3.885   9.396  -1.561  0.00  0.00    +0.150 HD
BRANCH  25  28
ATOM     28  C   UNL     1      -5.462  11.362  -0.889  0.00  0.00    +0.072 A 
ATOM     29  C   UNL     1      -4.274  11.861  -1.430  0.00  0.00    +0.016 A 
ATOM     30  C   UNL     1      -4.092  13.222  -1.547  0.00  0.00    +0.001 A 
ATOM     31  C   UNL     1      -5.077  14.097  -1.120  0.00  0.00    +0.003 A 
ATOM     32  C   UNL     1      -6.253  13.613  -0.578  0.00  0.00    +0.039 A 
ATOM     33  C   UNL     1      -6.453  12.250  -0.459  0.00  0.00    +0.135 A 
ATOM     34  F   UNL     1      -7.602  11.777   0.071  0.00  0.00    -0.205 F 
ENDBRANCH  25  28
ENDBRANCH  23  24
BRANCH  23  36
ATOM     35  C   UNL     1      -7.045   7.798  -2.345  0.00  0.00    +0.009 C 
ATOM     36  C   UNL     1      -5.687   7.096  -2.276  0.00  0.00    +0.012 C 
ATOM     37  C   UNL     1      -4.893   7.394  -3.549  0.00  0.00    +0.009 C 
ENDBRANCH  23  36
ENDBRANCH   1  23
TORSDOF 9
