REMARK  Name = ZINC12895238
REMARK  8 active torsions:
REMARK  status: ('A' for Active; 'I' for Inactive)
REMARK    1  A    between atoms: C_4  and  C_7
REMARK    2  A    between atoms: C_4  and  N_23
REMARK    3  A    between atoms: C_7  and  N_8
REMARK    4  A    between atoms: C_9  and  C_11
REMARK    5  A    between atoms: C_11  and  S_12
REMARK    6  A    between atoms: S_12  and  C_13
REMARK    7  A    between atoms: C_16  and  C_19
REMARK    8  A    between atoms: N_17  and  N_18
REMARK                            x       y       z     vdW  Elec       q    Type
REMARK                         _______ _______ _______ _____ _____    ______ ____
ROOT
ATOM      1  N   UNL     1       0.616  -0.572   1.136  0.00  0.00    -0.313 N 
ATOM      2  C   UNL     1       0.755  -1.906   1.269  0.00  0.00    +0.223 C 
ATOM      3  O   UNL     1       0.273  -2.651   0.443  0.00  0.00    -0.275 OA
ATOM      4  H   UNL     1       1.053   0.104   1.886  0.00  0.00    +0.149 HD
ENDROOT
BRANCH   1   5
ATOM      5  C   UNL     1      -0.118  -0.022  -0.006  0.00  0.00    +0.126 C 
BRANCH   5   9
ATOM      6  C   UNL     1      -2.725   2.277   0.629  0.00  0.00    +0.000 C 
ATOM      7  C   UNL     1      -2.355   1.718  -0.747  0.00  0.00    +0.002 C 
ATOM      8  C   UNL     1      -0.909   2.092  -1.077  0.00  0.00    +0.024 C 
ATOM      9  C   UNL     1       0.025   1.501  -0.019  0.00  0.00    +0.038 C 
ATOM     10  C   UNL     1      -0.345   2.059   1.357  0.00  0.00    +0.024 C 
ATOM     11  C   UNL     1      -1.791   1.686   1.687  0.00  0.00    +0.002 C 
BRANCH   9  12
ATOM     12  N   UNL     1       1.414   1.859  -0.336  0.00  0.00    -0.291 NA
ATOM     13  C   UNL     1       1.747   1.501  -1.722  0.00  0.00    +0.113 C 
ATOM     14  C   UNL     1       3.180   1.945  -2.028  0.00  0.00    +0.175 C 
ATOM     15  O   UNL     1       4.071   1.345  -1.084  0.00  0.00    -0.377 OA
ATOM     16  C   UNL     1       3.776   1.673   0.276  0.00  0.00    +0.175 C 
ATOM     17  C   UNL     1       2.349   1.226   0.605  0.00  0.00    +0.113 C 
ENDBRANCH   9  12
ENDBRANCH   5   9
ENDBRANCH   1   5
BRANCH   2  18
ATOM     18  C   UNL     1       1.510  -2.472   2.444  0.00  0.00    +0.173 C 
BRANCH  18  19
ATOM     19  S   UNL     1       1.522  -4.279   2.341  0.00  0.00    -0.075 S 
BRANCH  19  20
ATOM     20  C   UNL     1       2.442  -4.663   3.793  0.00  0.00    +0.209 A 
ATOM     21  N   UNL     1       2.944  -3.803   4.649  0.00  0.00    -0.121 NA
ATOM     22  N   UNL     1       3.552  -4.430   5.592  0.00  0.00    -0.123 NA
ATOM     23  C   UNL     1       3.482  -5.716   5.392  0.00  0.00    +0.255 A 
ATOM     24  N   UNL     1       2.772  -5.910   4.239  0.00  0.00    -0.220 N 
BRANCH  23  25
ATOM     25  C   UNL     1       4.073  -6.790   6.269  0.00  0.00    +0.454 C 
ATOM     26  F   UNL     1       4.420  -6.241   7.508  0.00  0.00    -0.163 F 
ATOM     27  F   UNL     1       3.133  -7.809   6.456  0.00  0.00    -0.163 F 
ATOM     28  F   UNL     1       5.215  -7.315   5.656  0.00  0.00    -0.163 F 
ENDBRANCH  23  25
BRANCH  24  29
ATOM     29  N   UNL     1       2.459  -7.105   3.655  0.00  0.00    -0.295 N 
ATOM     30  H   UNL     1       2.787  -8.047   4.119  0.00  0.00    +0.163 HD
ATOM     31  H   UNL     1       1.878  -7.125   2.721  0.00  0.00    +0.163 HD
ENDBRANCH  24  29
ENDBRANCH  19  20
ENDBRANCH  18  19
ENDBRANCH   2  18
TORSDOF 8
