REMARK  Name = ZINC47016417
REMARK  9 active torsions:
REMARK  status: ('A' for Active; 'I' for Inactive)
REMARK    1  A    between atoms: C_1  and  N_2
REMARK    2  A    between atoms: N_2  and  C_3
REMARK    3  A    between atoms: N_2  and  C_4
REMARK    4  A    between atoms: C_7  and  C_10
REMARK    5  A    between atoms: C_10  and  C_11
REMARK    6  A    between atoms: C_11  and  C_12
REMARK    7  A    between atoms: C_12  and  N_13
REMARK    8  A    between atoms: N_16  and  N_17
REMARK    9  A    between atoms: C_18  and  C_20
REMARK                            x       y       z     vdW  Elec       q    Type
REMARK                         _______ _______ _______ _____ _____    ______ ____
ROOT
ATOM      1  N   UNL     1      -2.833  -4.093  -7.101  0.00  0.00    -0.298 N 
ATOM      2  C   UNL     1      -3.081  -4.751  -8.251  0.00  0.00    +0.316 C 
ATOM      3  O   UNL     1      -2.158  -5.134  -8.943  0.00  0.00    -0.251 OA
ATOM      4  N   UNL     1      -4.352  -4.986  -8.632  0.00  0.00    -0.218 N 
ATOM      5  H   UNL     1      -3.569  -3.788  -6.548  0.00  0.00    +0.150 HD
ATOM      6  H   UNL     1      -4.530  -5.460  -9.459  0.00  0.00    +0.174 HD
ENDROOT
BRANCH   4   7
ATOM      7  N   UNL     1      -5.415  -4.546  -7.834  0.00  0.00    -0.233 N 
ATOM      8  C   UNL     1      -6.687  -4.780  -8.215  0.00  0.00    +0.234 C 
ATOM      9  O   UNL     1      -6.910  -5.373  -9.250  0.00  0.00    -0.274 OA
ATOM     10  H   UNL     1      -5.237  -4.072  -7.007  0.00  0.00    +0.173 HD
BRANCH   8  11
ATOM     11  C   UNL     1      -7.831  -4.307  -7.357  0.00  0.00    +0.099 C 
ATOM     12  C   UNL     1      -7.759  -4.981  -5.977  0.00  0.00    +0.037 C 
ATOM     13  C   UNL     1      -9.084  -4.757  -5.210  0.00  0.00    +0.166 C 
ATOM     14  S   UNL     1     -10.313  -4.588  -6.568  0.00  0.00    -0.030 S 
ATOM     15  O   UNL     1     -11.169  -5.723  -6.560  0.00  0.00    -0.174 OA
ATOM     16  O   UNL     1     -10.878  -3.286  -6.521  0.00  0.00    -0.174 OA
ATOM     17  C   UNL     1      -9.182  -4.701  -8.018  0.00  0.00    +0.178 C 
ENDBRANCH   8  11
ENDBRANCH   4   7
BRANCH   1  18
ATOM     18  C   UNL     1      -1.451  -3.837  -6.686  0.00  0.00    +0.106 C 
BRANCH  18  19
ATOM     19  C   UNL     1      -1.449  -3.079  -5.357  0.00  0.00    +0.023 C 
BRANCH  19  20
ATOM     20  C   UNL     1      -0.006  -2.813  -4.924  0.00  0.00    +0.036 C 
BRANCH  20  24
ATOM     21  C   UNL     1       0.000  -0.696  -1.211  0.00  0.00    +0.029 A 
ATOM     22  C   UNL     1       0.013  -2.085  -1.221  0.00  0.00    +0.023 A 
ATOM     23  C   UNL     1       0.010  -2.766  -2.422  0.00  0.00    +0.005 A 
ATOM     24  C   UNL     1      -0.005  -2.066  -3.615  0.00  0.00    -0.047 A 
ATOM     25  C   UNL     1      -0.018  -0.684  -3.609  0.00  0.00    +0.005 A 
ATOM     26  C   UNL     1      -0.021   0.004  -2.411  0.00  0.00    +0.023 A 
BRANCH  21  28
ATOM     27  C   UNL     1      -0.018   1.461   0.010  0.00  0.00    +0.129 C 
ATOM     28  N   UNL     1       0.002  -0.004   0.002  0.00  0.00    -0.336 N 
ATOM     29  C   UNL     1       0.024  -0.743   1.267  0.00  0.00    +0.129 C 
ENDBRANCH  21  28
ENDBRANCH  20  24
ENDBRANCH  19  20
ENDBRANCH  18  19
ENDBRANCH   1  18
TORSDOF 7
