REMARK  Name = ZINC12869850
REMARK  11 active torsions:
REMARK  status: ('A' for Active; 'I' for Inactive)
REMARK    1  A    between atoms: C_1  and  C_2
REMARK    2  A    between atoms: C_2  and  C_3
REMARK    3  A    between atoms: C_3  and  C_4
REMARK    4  A    between atoms: C_3  and  C_5
REMARK    5  A    between atoms: C_3  and  N_6
REMARK    6  A    between atoms: C_7  and  C_9
REMARK    7  A    between atoms: C_9  and  C_11
REMARK    8  A    between atoms: C_9  and  N_18
REMARK    9  A    between atoms: C_14  and  C_17
REMARK   10  A    between atoms: N_18  and  C_19
REMARK   11  A    between atoms: C_26  and  C_28
REMARK                            x       y       z     vdW  Elec       q    Type
REMARK                         _______ _______ _______ _____ _____    ______ ____
ROOT
ATOM      1  C   UNL     1      -2.376  -2.909  -0.007  0.00  0.00    +0.198 C 
ENDROOT
BRANCH   1   2
ATOM      2  C   UNL     1      -3.175  -2.540  -1.230  0.00  0.00    -0.018 A 
ATOM      3  C   UNL     1      -3.111  -1.255  -1.736  0.00  0.00    +0.006 A 
ATOM      4  C   UNL     1      -3.841  -0.918  -2.861  0.00  0.00    +0.004 A 
ATOM      5  C   UNL     1      -4.643  -1.863  -3.473  0.00  0.00    -0.050 A 
ATOM      6  C   UNL     1      -4.711  -3.146  -2.963  0.00  0.00    +0.004 A 
ATOM      7  C   UNL     1      -3.978  -3.485  -1.842  0.00  0.00    +0.006 A 
ATOM      8  C   UNL     1      -5.442  -1.494  -4.696  0.00  0.00    +0.044 C 
ENDBRANCH   1   2
BRANCH   1  10
ATOM      9  N   UNL     1      -4.391  -2.986   1.425  0.00  0.00    -0.308 N 
ATOM     10  C   UNL     1      -3.142  -2.519   1.231  0.00  0.00    +0.239 C 
ATOM     11  O   UNL     1      -2.635  -1.785   2.053  0.00  0.00    -0.273 OA
ATOM     12  H   UNL     1      -4.797  -3.573   0.767  0.00  0.00    +0.149 HD
BRANCH   9  13
ATOM     13  C   UNL     1      -5.137  -2.607   2.628  0.00  0.00    +0.029 C 
ATOM     14  C   UNL     1      -4.372  -3.072   3.869  0.00  0.00    +0.031 C 
ATOM     15  C   UNL     1      -5.300  -1.087   2.669  0.00  0.00    +0.031 C 
BRANCH  13  17
ATOM     16  C   UNL     1      -7.295  -2.872   3.859  0.00  0.00    +0.006 C 
ATOM     17  C   UNL     1      -6.516  -3.268   2.602  0.00  0.00    +0.022 C 
ENDBRANCH  13  17
ENDBRANCH   9  13
ENDBRANCH   1  10
BRANCH   1  18
ATOM     18  N   UNL     1      -1.093  -2.200  -0.030  0.00  0.00    -0.247 N 
ATOM     19  C   UNL     1      -0.203  -2.451  -1.010  0.00  0.00    +0.273 C 
ATOM     20  O   UNL     1      -0.425  -3.327  -1.824  0.00  0.00    -0.268 OA
BRANCH  18  21
ATOM     21  C   UNL     1      -0.793  -1.264   0.966  0.00  0.00    +0.073 A 
ATOM     22  C   UNL     1      -1.215   0.052   0.834  0.00  0.00    +0.026 A 
ATOM     23  C   UNL     1      -0.917   0.974   1.819  0.00  0.00    +0.002 A 
ATOM     24  C   UNL     1      -0.200   0.588   2.936  0.00  0.00    +0.003 A 
ATOM     25  C   UNL     1       0.222  -0.721   3.073  0.00  0.00    +0.040 A 
ATOM     26  C   UNL     1      -0.076  -1.651   2.093  0.00  0.00    +0.145 A 
ATOM     27  F   UNL     1       0.333  -2.932   2.229  0.00  0.00    -0.204 F 
ENDBRANCH  18  21
BRANCH  19  28
ATOM     28  C   UNL     1       1.040  -1.663  -1.096  0.00  0.00    +0.157 A 
ATOM     29  C   UNL     1       2.003  -1.861  -2.075  0.00  0.00    +0.101 A 
ATOM     30  S   UNL     1       3.171  -0.659  -1.637  0.00  0.00    +0.029 S 
ATOM     31  N   UNL     1       2.449  -0.043  -0.377  0.00  0.00    -0.110 NA
ATOM     32  N   UNL     1       1.349  -0.692  -0.246  0.00  0.00    -0.136 NA
ENDBRANCH  19  28
ENDBRANCH   1  18
TORSDOF 7
