REMARK  Name = ZINC38935833
REMARK  6 active torsions:
REMARK  status: ('A' for Active; 'I' for Inactive)
REMARK    1  A    between atoms: C_1  and  O_2
REMARK    2  A    between atoms: O_2  and  C_3
REMARK    3  A    between atoms: C_5  and  C_10
REMARK    4  A    between atoms: C_8  and  O_9
REMARK    5  A    between atoms: N_11  and  N_12
REMARK    6  A    between atoms: C_13  and  C_19
REMARK                            x       y       z     vdW  Elec       q    Type
REMARK                         _______ _______ _______ _____ _____    ______ ____
ROOT
ATOM      1  N   UNL     1       3.451   0.532  -6.295  0.00  0.00    -0.172 N 
ATOM      2  C   UNL     1       4.029   0.051  -7.563  0.00  0.00    +0.264 C 
ATOM      3  N   UNL     1       4.353   1.285  -8.294  0.00  0.00    -0.189 NA
ATOM      4  N   UNL     1       4.026   2.244  -7.591  0.00  0.00    -0.219 N 
ATOM      5  C   UNL     1       3.482   1.879  -6.399  0.00  0.00    +0.174 C 
ATOM      6  S   UNL     1       2.922   2.968  -5.202  0.00  0.00    -0.015 S 
ATOM      7  H   UNL     1       4.143   3.168  -7.862  0.00  0.00    +0.176 HD
ENDROOT
BRANCH   2   8
ATOM      8  C   UNL     1       5.276  -0.755  -7.303  0.00  0.00    +0.001 A 
ATOM      9  C   UNL     1       5.420  -1.482  -6.131  0.00  0.00    +0.025 A 
ATOM     10  C   UNL     1       6.577  -2.209  -5.927  0.00  0.00    +0.083 A 
ATOM     11  N   UNL     1       7.537  -2.217  -6.831  0.00  0.00    -0.367 N 
ATOM     12  C   UNL     1       7.435  -1.538  -7.957  0.00  0.00    +0.083 A 
ATOM     13  C   UNL     1       6.304  -0.793  -8.233  0.00  0.00    +0.025 A 
ATOM     14  H   UNL     1       8.340  -2.735  -6.663  0.00  0.00    +0.165 HD
ENDBRANCH   2   8
BRANCH   1  16
ATOM     15  C   UNL     1       2.587   0.348  -4.130  0.00  0.00    +0.138 C 
ATOM     16  N   UNL     1       2.970  -0.234  -5.226  0.00  0.00    -0.183 NA
BRANCH  15  19
ATOM     17  C   UNL     1       1.006  -0.573  -0.851  0.00  0.00    +0.162 A 
ATOM     18  C   UNL     1       1.571   0.177  -1.865  0.00  0.00    +0.058 A 
ATOM     19  C   UNL     1       1.984  -0.447  -3.045  0.00  0.00    -0.002 A 
ATOM     20  C   UNL     1       1.824  -1.827  -3.194  0.00  0.00    +0.013 A 
ATOM     21  C   UNL     1       1.259  -2.569  -2.178  0.00  0.00    +0.050 A 
ATOM     22  C   UNL     1       0.855  -1.950  -1.004  0.00  0.00    +0.158 A 
BRANCH  17  24
ATOM     23  C   UNL     1       0.789   1.446   0.387  0.00  0.00    +0.277 C 
ATOM     24  O   UNL     1       0.603   0.032   0.299  0.00  0.00    -0.491 OA
ENDBRANCH  17  24
BRANCH  22  25
ATOM     25  O   UNL     1       0.304  -2.686  -0.004  0.00  0.00    -0.503 OA
ATOM     26  H   UNL     1      -0.658  -2.772  -0.062  0.00  0.00    +0.292 HD
ENDBRANCH  22  25
ENDBRANCH  15  19
ENDBRANCH   1  16
TORSDOF 5
