REMARK  Name = ZINC09244378
REMARK  11 active torsions:
REMARK  status: ('A' for Active; 'I' for Inactive)
REMARK    1  A    between atoms: C_1  and  C_2
REMARK    2  A    between atoms: C_2  and  C_3
REMARK    3  A    between atoms: C_2  and  C_4
REMARK    4  A    between atoms: C_2  and  C_5
REMARK    5  A    between atoms: C_9  and  S_11
REMARK    6  A    between atoms: S_11  and  C_12
REMARK    7  A    between atoms: C_12  and  C_13
REMARK    8  A    between atoms: N_15  and  C_16
REMARK    9  A    between atoms: C_17  and  C_25
REMARK   10  A    between atoms: N_29  and  C_34
REMARK   11  A    between atoms: N_32  and  C_33
REMARK                            x       y       z     vdW  Elec       q    Type
REMARK                         _______ _______ _______ _____ _____    ______ ____
ROOT
ATOM      1  C   UNL     1      -2.800   4.027   4.885  0.00  0.00    +0.138 A 
ATOM      2  N   UNL     1      -2.640   2.742   4.627  0.00  0.00    -0.213 NA
ATOM      3  C   UNL     1      -2.014   2.350   3.526  0.00  0.00    +0.154 A 
ATOM      4  C   UNL     1      -1.523   3.327   2.640  0.00  0.00    +0.114 A 
ATOM      5  C   UNL     1      -1.716   4.681   2.954  0.00  0.00    +0.115 A 
ATOM      6  N   UNL     1      -2.359   4.976   4.086  0.00  0.00    -0.224 NA
ATOM      7  C   UNL     1      -0.827   2.887   1.427  0.00  0.00    +0.268 A 
ATOM      8  O   UNL     1      -0.381   3.695   0.633  0.00  0.00    -0.267 OA
ATOM      9  N   UNL     1      -0.698   1.558   1.213  0.00  0.00    -0.263 N 
ATOM     10  C   UNL     1      -1.184   0.664   2.089  0.00  0.00    +0.333 A 
ATOM     11  O   UNL     1      -1.038  -0.519   1.853  0.00  0.00    -0.246 OA
ATOM     12  N   UNL     1      -1.825   1.020   3.217  0.00  0.00    -0.281 N 
ATOM     13  C   UNL     1      -2.327  -0.015   4.124  0.00  0.00    +0.155 C 
ATOM     14  C   UNL     1      -0.013   1.086   0.008  0.00  0.00    +0.157 C 
ENDROOT
BRANCH   1  16
ATOM     15  C   UNL     1      -3.587   5.950   6.239  0.00  0.00    +0.019 C 
ATOM     16  C   UNL     1      -3.519   4.424   6.149  0.00  0.00    +0.022 C 
ATOM     17  C   UNL     1      -4.938   3.851   6.130  0.00  0.00    +0.019 C 
ATOM     18  C   UNL     1      -2.763   3.874   7.360  0.00  0.00    +0.019 C 
ENDBRANCH   1  16
BRANCH   5  19
ATOM     19  S   UNL     1      -1.126   5.953   1.887  0.00  0.00    -0.096 S 
BRANCH  19  20
ATOM     20  C   UNL     1      -1.664   7.413   2.812  0.00  0.00    +0.172 C 
BRANCH  20  21
ATOM     21  C   UNL     1      -1.257   8.658   2.067  0.00  0.00    +0.228 C 
ATOM     22  O   UNL     1      -0.661   8.567   1.014  0.00  0.00    -0.275 OA
ATOM     23  N   UNL     1      -1.554   9.872   2.570  0.00  0.00    -0.278 N 
ATOM     24  H   UNL     1      -2.031   9.945   3.412  0.00  0.00    +0.155 HD
BRANCH  23  25
ATOM     25  C   UNL     1      -1.179  11.019   1.883  0.00  0.00    +0.090 A 
ATOM     26  C   UNL     1      -1.397  12.343   2.233  0.00  0.00    +0.084 A 
ATOM     27  C   UNL     1      -0.894  13.367   1.335  0.00  0.00    -0.018 A 
ATOM     28  C   UNL     1      -0.266  12.906   0.231  0.00  0.00    -0.004 A 
ATOM     29  S   UNL     1      -0.330  11.143   0.378  0.00  0.00    -0.077 S 
ATOM     30  C   UNL     1       0.344  13.720  -0.868  0.00  0.00    +0.043 C 
ATOM     31  C   UNL     1      -0.174  15.161  -0.747  0.00  0.00    +0.005 C 
ATOM     32  C   UNL     1      -0.041  15.613   0.710  0.00  0.00    +0.005 C 
ATOM     33  C   UNL     1      -1.050  14.863   1.582  0.00  0.00    +0.037 C 
BRANCH  26  34
ATOM     34  C   UNL     1      -2.090  12.688   3.438  0.00  0.00    +0.102 C 
ATOM     35  N   UNL     1      -2.639  12.961   4.394  0.00  0.00    -0.191 NA
ENDBRANCH  26  34
ENDBRANCH  23  25
ENDBRANCH  20  21
ENDBRANCH  19  20
ENDBRANCH   5  19
TORSDOF 6
