REMARK  Name = ZINC39751586
REMARK  6 active torsions:
REMARK  status: ('A' for Active; 'I' for Inactive)
REMARK    1  A    between atoms: C_1  and  C_2
REMARK    2  A    between atoms: C_2  and  N_3
REMARK    3  A    between atoms: C_4  and  C_24
REMARK    4  A    between atoms: C_8  and  S_10
REMARK    5  A    between atoms: S_10  and  C_11
REMARK    6  A    between atoms: C_11  and  C_12
REMARK                            x       y       z     vdW  Elec       q    Type
REMARK                         _______ _______ _______ _____ _____    ______ ____
ROOT
ATOM      1  N   UNL     1       0.743  -0.636   1.132  0.00  0.00    +0.410 N 
ATOM      2  C   UNL     1       0.895  -2.110   1.147  0.00  0.00    +0.050 C 
ATOM      3  N   UNL     1       0.874  -2.464   2.590  0.00  0.00    -0.267 NA
ATOM      4  N   UNL     1      -0.125  -1.538   3.145  0.00  0.00    -0.262 NA
ATOM      5  C   UNL     1       0.093  -0.273   2.408  0.00  0.00    +0.077 C 
ATOM      6  H   UNL     1       1.779  -2.315   3.012  0.00  0.00    +0.139 HD
ATOM      7  H   UNL     1      -1.061  -1.885   2.998  0.00  0.00    +0.140 HD
ATOM      8  H   UNL     1       1.648  -0.195   1.066  0.00  0.00    -0.075 HD
ENDROOT
BRANCH   2   9
ATOM      9  C   UNL     1       2.206  -2.511   0.522  0.00  0.00    -0.032 A 
ATOM     10  C   UNL     1       2.820  -1.677  -0.394  0.00  0.00    +0.004 A 
ATOM     11  C   UNL     1       4.023  -2.044  -0.967  0.00  0.00    +0.000 A 
ATOM     12  C   UNL     1       4.613  -3.247  -0.625  0.00  0.00    +0.001 A 
ATOM     13  C   UNL     1       4.000  -4.082   0.290  0.00  0.00    +0.015 A 
ATOM     14  C   UNL     1       2.799  -3.712   0.868  0.00  0.00    +0.021 A 
ATOM     15 BR   UNL     1       1.963  -4.851   2.125  0.00  0.00    -0.050 Br
ENDBRANCH   2   9
BRANCH   1  17
ATOM     16  C   UNL     1      -0.064   1.295  -0.140  0.00  0.00    -0.017 C 
ATOM     17  C   UNL     1      -0.101  -0.228   0.001  0.00  0.00    -0.076 C 
ENDBRANCH   1  17
BRANCH   5  18
ATOM     18  S   UNL     1      -1.496   0.542   2.086  0.00  0.00    -0.152 S 
BRANCH  18  19
ATOM     19  C   UNL     1      -1.937   1.288   3.680  0.00  0.00    +0.143 C 
BRANCH  19  20
ATOM     20  C   UNL     1      -3.201   2.093   3.524  0.00  0.00    +0.120 A 
ATOM     21  N   UNL     1      -3.692   2.738   4.615  0.00  0.00    -0.310 N 
ATOM     22  H   UNL     1      -3.228   2.670   5.463  0.00  0.00    +0.170 HD
ATOM     23  C   UNL     1      -4.825   3.474   4.527  0.00  0.00    +0.259 A 
ATOM     24  O   UNL     1      -5.276   4.058   5.496  0.00  0.00    -0.267 OA
ATOM     25  C   UNL     1      -5.488   3.543   3.217  0.00  0.00    +0.065 A 
ATOM     26  C   UNL     1      -6.659   4.273   3.021  0.00  0.00    +0.015 A 
ATOM     27  C   UNL     1      -7.239   4.303   1.772  0.00  0.00    +0.001 A 
ATOM     28  C   UNL     1      -6.667   3.612   0.711  0.00  0.00    +0.002 A 
ATOM     29  C   UNL     1      -5.511   2.884   0.884  0.00  0.00    +0.028 A 
ATOM     30  C   UNL     1      -4.904   2.839   2.140  0.00  0.00    +0.078 A 
ATOM     31  N   UNL     1      -3.762   2.140   2.354  0.00  0.00    -0.233 NA
ENDBRANCH  19  20
ENDBRANCH  18  19
ENDBRANCH   5  18
TORSDOF 5
