REMARK  Name = ZINC39141200
REMARK  8 active torsions:
REMARK  status: ('A' for Active; 'I' for Inactive)
REMARK    1  A    between atoms: C_1  and  C_2
REMARK    2  A    between atoms: C_2  and  O_3
REMARK    3  A    between atoms: O_3  and  C_4
REMARK    4  A    between atoms: C_4  and  C_6
REMARK    5  A    between atoms: C_7  and  C_26
REMARK    6  A    between atoms: C_11  and  S_24
REMARK    7  A    between atoms: C_17  and  C_19
REMARK    8  A    between atoms: S_24  and  C_25
REMARK                            x       y       z     vdW  Elec       q    Type
REMARK                         _______ _______ _______ _____ _____    ______ ____
ROOT
ATOM      1  C   UNL     1       1.247  -2.360  -2.579  0.00  0.00    +0.062 C 
ATOM      2  C   UNL     1       1.598  -3.652  -2.558  0.00  0.00    +0.017 C 
ATOM      3  N   UNL     1       2.385  -4.207  -3.540  0.00  0.00    -0.305 N 
ATOM      4  C   UNL     1       2.956  -3.354  -4.447  0.00  0.00    +0.115 C 
ATOM      5  N   UNL     1       4.160  -3.549  -4.891  0.00  0.00    -0.213 NA
ATOM      6  C   UNL     1       4.751  -2.704  -5.746  0.00  0.00    +0.182 C 
ATOM      7  N   UNL     1       4.145  -1.608  -6.179  0.00  0.00    -0.154 NA
ATOM      8  C   UNL     1       2.912  -1.297  -5.814  0.00  0.00    +0.250 C 
ATOM      9  O   UNL     1       2.410  -0.271  -6.230  0.00  0.00    -0.273 OA
ATOM     10  C   UNL     1       2.116  -2.182  -4.898  0.00  0.00    +0.153 C 
ATOM     11  C   UNL     1       1.688  -1.404  -3.652  0.00  0.00    +0.083 C 
ATOM     12  C   UNL     1       1.117  -4.522  -1.425  0.00  0.00    +0.061 C 
ATOM     13  H   UNL     1       2.530  -5.165  -3.588  0.00  0.00    +0.153 HD
ENDROOT
BRANCH  11  14
ATOM     14  C   UNL     1       2.853  -0.590  -3.150  0.00  0.00    -0.001 A 
ATOM     15  C   UNL     1       2.954   0.753  -2.999  0.00  0.00    +0.012 A 
ATOM     16  C   UNL     1       4.134   1.286  -2.515  0.00  0.00    +0.008 A 
ATOM     17  C   UNL     1       5.155   0.450  -2.206  0.00  0.00    +0.045 A 
ATOM     18  S   UNL     1       4.456  -1.146  -2.594  0.00  0.00    -0.101 S 
ENDBRANCH  11  14
BRANCH   1  19
ATOM     19  C   UNL     1       0.415  -1.871  -1.543  0.00  0.00    +0.337 C 
ATOM     20  O   UNL     1       0.891  -1.198  -0.647  0.00  0.00    -0.245 OA
BRANCH  19  21
ATOM     21  O   UNL     1      -0.904  -2.152  -1.548  0.00  0.00    -0.462 OA
BRANCH  21  23
ATOM     22  C   UNL     1      -3.144  -2.047  -0.647  0.00  0.00    +0.048 C 
ATOM     23  C   UNL     1      -1.684  -1.627  -0.471  0.00  0.00    +0.229 C 
ENDBRANCH  21  23
ENDBRANCH  19  21
ENDBRANCH   1  19
BRANCH   6  24
ATOM     24  S   UNL     1       6.381  -3.061  -6.312  0.00  0.00    -0.092 S 
ATOM     25  C   UNL     1       6.771  -1.683  -7.425  0.00  0.00    +0.093 C 
ENDBRANCH   6  24
TORSDOF 5
