REMARK  Name = ZINC58265765
REMARK  8 active torsions:
REMARK  status: ('A' for Active; 'I' for Inactive)
REMARK    1  A    between atoms: C_1  and  C_2
REMARK    2  A    between atoms: C_2  and  C_3
REMARK    3  A    between atoms: C_2  and  C_4
REMARK    4  A    between atoms: C_4  and  C_5
REMARK    5  A    between atoms: C_5  and  C_7
REMARK    6  A    between atoms: C_5  and  N_13
REMARK    7  A    between atoms: C_14  and  C_16
REMARK    8  A    between atoms: C_16  and  N_17
REMARK                            x       y       z     vdW  Elec       q    Type
REMARK                         _______ _______ _______ _____ _____    ______ ____
ROOT
ATOM      1  N   UNL     1      -0.876  -2.426  -1.433  0.00  0.00    -0.307 N 
ATOM      2  C   UNL     1       0.456  -2.525  -1.610  0.00  0.00    +0.231 C 
ATOM      3  O   UNL     1       1.209  -2.308  -0.684  0.00  0.00    -0.274 OA
ATOM      4  H   UNL     1      -1.478  -2.600  -2.173  0.00  0.00    +0.149 HD
ENDROOT
BRANCH   1   5
ATOM      5  C   UNL     1      -1.416  -2.058  -0.121  0.00  0.00    +0.103 C 
BRANCH   5   6
ATOM      6  C   UNL     1      -2.819  -2.590   0.013  0.00  0.00    -0.027 A 
ATOM      7  C   UNL     1      -3.681  -2.545  -1.067  0.00  0.00    +0.005 A 
ATOM      8  C   UNL     1      -4.969  -3.033  -0.944  0.00  0.00    +0.000 A 
ATOM      9  C   UNL     1      -5.394  -3.567   0.258  0.00  0.00    +0.000 A 
ATOM     10  C   UNL     1      -4.531  -3.613   1.337  0.00  0.00    +0.000 A 
ATOM     11  C   UNL     1      -3.243  -3.129   1.213  0.00  0.00    +0.005 A 
ENDBRANCH   5   6
BRANCH   5  12
ATOM     12  C   UNL     1      -1.433  -0.534   0.013  0.00  0.00    +0.030 C 
BRANCH  12  14
ATOM     13  C   UNL     1      -0.019   1.526   0.010  0.00  0.00    +0.007 C 
ATOM     14  C   UNL     1       0.002  -0.004   0.002  0.00  0.00    -0.015 C 
ATOM     15  C   UNL     1       0.742  -0.511   1.242  0.00  0.00    +0.007 C 
ENDBRANCH  12  14
ENDBRANCH   5  12
ENDBRANCH   1   5
BRANCH   2  16
ATOM     16  C   UNL     1       1.011  -2.904  -2.959  0.00  0.00    +0.212 C 
BRANCH  16  17
ATOM     17  N   UNL     1       2.474  -2.942  -2.892  0.00  0.00    -0.233 N 
ATOM     18  C   UNL     1       3.160  -1.821  -3.159  0.00  0.00    +0.223 C 
ATOM     19  O   UNL     1       2.557  -0.807  -3.437  0.00  0.00    -0.275 OA
ATOM     20  C   UNL     1       4.665  -1.798  -3.120  0.00  0.00    +0.103 C 
ATOM     21  C   UNL     1       5.158  -2.842  -2.114  0.00  0.00    -0.013 C 
ATOM     22  C   UNL     1       6.685  -2.909  -2.152  0.00  0.00    +0.008 C 
ATOM     23  C   UNL     1       7.266  -1.544  -1.778  0.00  0.00    +0.001 C 
ATOM     24  C   UNL     1       6.804  -1.162  -0.370  0.00  0.00    +0.000 C 
ATOM     25  C   UNL     1       5.276  -1.093  -0.335  0.00  0.00    +0.001 C 
ATOM     26  C   UNL     1       4.695  -2.458  -0.708  0.00  0.00    +0.008 C 
ATOM     27  C   UNL     1       4.574  -4.206  -2.493  0.00  0.00    +0.103 C 
ATOM     28  C   UNL     1       3.073  -4.096  -2.561  0.00  0.00    +0.223 C 
ATOM     29  O   UNL     1       2.394  -5.069  -2.316  0.00  0.00    -0.275 OA
ENDBRANCH  16  17
ENDBRANCH   2  16
TORSDOF 6
