REMARK  Name = ZINC12130913
REMARK  5 active torsions:
REMARK  status: ('A' for Active; 'I' for Inactive)
REMARK    1  A    between atoms: C_1  and  C_2
REMARK    2  A    between atoms: C_2  and  O_3
REMARK    3  A    between atoms: O_3  and  C_4
REMARK    4  A    between atoms: N_6  and  C_7
REMARK    5  A    between atoms: C_9  and  C_24
REMARK                            x       y       z     vdW  Elec       q    Type
REMARK                         _______ _______ _______ _____ _____    ______ ____
ROOT
ATOM      1  C   UNL     1      -1.232   2.024   0.019  0.00  0.00    +0.134 A 
ATOM      2  C   UNL     1      -2.470   1.460   0.022  0.00  0.00    +0.069 A 
ATOM      3  C   UNL     1      -3.413   2.494   0.032  0.00  0.00    +0.068 A 
ATOM      4  N   UNL     1      -2.777   3.637   0.035  0.00  0.00    -0.167 NA
ATOM      5  N   UNL     1      -1.400   3.378   0.033  0.00  0.00    -0.185 N 
ATOM      6  C   UNL     1      -0.393   4.325   0.040  0.00  0.00    +0.234 A 
ATOM      7  N   UNL     1      -0.716   5.645   0.054  0.00  0.00    -0.291 N 
ATOM      8  H   UNL     1      -1.646   5.920   0.061  0.00  0.00    +0.172 HD
ATOM      9  C   UNL     1       0.266   6.568   0.058  0.00  0.00    +0.256 A 
ATOM     10  O   UNL     1      -0.003   7.758   0.071  0.00  0.00    -0.267 OA
ATOM     11  C   UNL     1       1.613   6.139   0.046  0.00  0.00    +0.038 A 
ATOM     12  C   UNL     1       1.875   4.808   0.040  0.00  0.00    +0.053 A 
ATOM     13  N   UNL     1       0.860   3.934   0.040  0.00  0.00    -0.217 NA
ATOM     14  C   UNL     1       3.276   4.256   0.040  0.00  0.00    +0.056 C 
ATOM     15  C   UNL     1       4.276   5.327  -0.396  0.00  0.00    +0.006 C 
ATOM     16  C   UNL     1       4.032   6.586   0.445  0.00  0.00    +0.005 C 
ATOM     17  C   UNL     1       2.691   7.188   0.031  0.00  0.00    +0.042 C 
ENDROOT
BRANCH   1  20
ATOM     18  C   UNL     1       0.002  -0.004   0.002  0.00  0.00    +0.406 C 
ATOM     19  O   UNL     1      -1.042  -0.626   0.009  0.00  0.00    -0.226 OA
ATOM     20  N   UNL     1      -0.016   1.344   0.009  0.00  0.00    -0.235 N 
ATOM     21  H   UNL     1       0.817   1.840   0.004  0.00  0.00    +0.160 HD
BRANCH  18  22
ATOM     22  O   UNL     1       1.177  -0.661  -0.013  0.00  0.00    -0.450 OA
BRANCH  22  24
ATOM     23  C   UNL     1       2.542  -2.678  -0.037  0.00  0.00    +0.048 C 
ATOM     24  C   UNL     1       1.121  -2.112  -0.020  0.00  0.00    +0.230 C 
ENDBRANCH  22  24
ENDBRANCH  18  22
ENDBRANCH   1  20
BRANCH   3  25
ATOM     25  C   UNL     1      -4.910   2.320   0.039  0.00  0.00    +0.040 C 
ATOM     26  C   UNL     1      -5.463   0.946  -0.345  0.00  0.00    +0.010 C 
ATOM     27  C   UNL     1      -5.604   2.125  -1.311  0.00  0.00    +0.010 C 
ENDBRANCH   3  25
TORSDOF 4
