REMARK  Name = ZINC24885971
REMARK  8 active torsions:
REMARK  status: ('A' for Active; 'I' for Inactive)
REMARK    1  A    between atoms: C_1  and  C_2
REMARK    2  A    between atoms: N_6  and  C_14
REMARK    3  A    between atoms: C_14  and  C_15
REMARK    4  A    between atoms: C_20  and  C_23
REMARK    5  A    between atoms: C_26  and  N_29
REMARK    6  A    between atoms: N_29  and  C_30
REMARK    7  A    between atoms: N_29  and  S_31
REMARK    8  A    between atoms: S_31  and  C_34
REMARK                            x       y       z     vdW  Elec       q    Type
REMARK                         _______ _______ _______ _____ _____    ______ ____
ROOT
ATOM      1  C   UNL     1       1.141   6.282  -1.795  0.00  0.00    +0.236 C 
ATOM      2  O   UNL     1       0.245   5.864  -2.497  0.00  0.00    -0.274 OA
ATOM      3  N   UNL     1       2.155   6.982  -2.341  0.00  0.00    -0.263 N 
ATOM      4  C   UNL     1       2.174   7.225  -3.709  0.00  0.00    +0.165 A 
ATOM      5  N   UNL     1       3.062   7.886  -4.428  0.00  0.00    -0.225 NA
ATOM      6  C   UNL     1       2.924   8.019  -5.739  0.00  0.00    +0.080 A 
ATOM      7  C   UNL     1       1.835   7.471  -6.358  0.00  0.00    +0.076 A 
ATOM      8  S   UNL     1       0.998   6.733  -4.962  0.00  0.00    -0.060 S 
ATOM      9  H   UNL     1       2.968   7.361  -1.704  0.00  0.00    +0.157 HD
ENDROOT
BRANCH   6  10
ATOM     10  C   UNL     1       3.939   8.761  -6.527  0.00  0.00    +0.001 A 
ATOM     11  C   UNL     1       3.788   8.898  -7.906  0.00  0.00    +0.012 A 
ATOM     12  C   UNL     1       4.730   9.593  -8.635  0.00  0.00    +0.025 A 
ATOM     13  C   UNL     1       5.834  10.147  -7.998  0.00  0.00    +0.051 A 
ATOM     14  C   UNL     1       5.989  10.006  -6.625  0.00  0.00    +0.025 A 
ATOM     15  C   UNL     1       5.048   9.317  -5.890  0.00  0.00    +0.012 A 
BRANCH  13  16
ATOM     16  N   UNL     1       6.789  10.845  -8.741  0.00  0.00    -0.211 N 
ATOM     17  C   UNL     1       7.619  11.864  -8.092  0.00  0.00    +0.157 C 
BRANCH  16  18
ATOM     18  S   UNL     1       6.984  10.522 -10.353  0.00  0.00    +0.042 S 
ATOM     19  O   UNL     1       8.329  10.884 -10.635  0.00  0.00    -0.155 OA
ATOM     20  O   UNL     1       6.547   9.179 -10.509  0.00  0.00    -0.155 OA
ATOM     21  C   UNL     1       5.843  11.653 -11.196  0.00  0.00    +0.218 C 
ENDBRANCH  16  18
ENDBRANCH  13  16
ENDBRANCH   6  10
BRANCH   1  22
ATOM     22  C   UNL     1       1.121   6.019  -0.311  0.00  0.00    +0.210 C 
BRANCH  22  27
ATOM     23  C   UNL     1      -2.412   4.795   2.253  0.00  0.00    +0.062 C 
ATOM     24  C   UNL     1      -2.435   5.056   0.746  0.00  0.00    +0.256 C 
ATOM     25  C   UNL     1      -1.226   5.870   0.359  0.00  0.00    +0.261 C 
ATOM     26  O   UNL     1      -1.287   7.081   0.342  0.00  0.00    -0.271 OA
ATOM     27  N   UNL     1      -0.074   5.245   0.031  0.00  0.00    -0.256 N 
ATOM     28  C   UNL     1      -0.041   3.843   0.024  0.00  0.00    +0.079 A 
ATOM     29  C   UNL     1       1.166   3.164   0.008  0.00  0.00    +0.027 A 
ATOM     30  C   UNL     1       1.177   1.781   0.000  0.00  0.00    +0.002 A 
ATOM     31  C   UNL     1      -0.013   1.076   0.008  0.00  0.00    +0.004 A 
ATOM     32  C   UNL     1      -1.221   1.748   0.017  0.00  0.00    +0.047 A 
ATOM     33  C   UNL     1      -1.240   3.132   0.031  0.00  0.00    +0.143 A 
ATOM     34  O   UNL     1      -2.419   3.809   0.046  0.00  0.00    -0.478 OA
ENDBRANCH  22  27
ENDBRANCH   1  22
TORSDOF 5
