REMARK  Name = ZINC08739691
REMARK  8 active torsions:
REMARK  status: ('A' for Active; 'I' for Inactive)
REMARK    1  A    between atoms: C_1  and  C_2
REMARK    2  A    between atoms: C_5  and  N_29
REMARK    3  A    between atoms: C_7  and  N_8
REMARK    4  A    between atoms: C_9  and  C_28
REMARK    5  A    between atoms: C_11  and  C_14
REMARK    6  A    between atoms: C_12  and  C_13
REMARK    7  A    between atoms: C_24  and  S_26
REMARK    8  A    between atoms: S_26  and  C_27
REMARK                            x       y       z     vdW  Elec       q    Type
REMARK                         _______ _______ _______ _____ _____    ______ ____
ROOT
ATOM      1  N   UNL     1       0.098   0.183   2.353  0.00  0.00    -0.317 N 
ATOM      2  C   UNL     1      -1.023   0.520   3.061  0.00  0.00    +0.022 A 
ATOM      3  C   UNL     1      -0.658   1.065   4.233  0.00  0.00    +0.031 A 
ATOM      4  C   UNL     1       0.812   1.066   4.251  0.00  0.00    -0.003 A 
ATOM      5  C   UNL     1       1.207   0.498   3.051  0.00  0.00    +0.028 A 
ATOM      6  C   UNL     1       2.628   0.274   2.603  0.00  0.00    +0.064 C 
ATOM      7  C   UNL     1      -2.442   0.312   2.600  0.00  0.00    +0.064 C 
ENDROOT
BRANCH   4   8
ATOM      8  C   UNL     1       1.654   1.545   5.288  0.00  0.00    +0.026 C 
ATOM      9  C   UNL     1       1.149   1.722   6.560  0.00  0.00    +0.081 C 
ATOM     10  C   UNL     1      -0.194   1.212   6.949  0.00  0.00    +0.153 C 
ATOM     11  N   UNL     1      -0.715   0.116   6.461  0.00  0.00    -0.283 NA
ATOM     12  N   UNL     1      -0.850   2.025   7.896  0.00  0.00    -0.151 N 
ATOM     13  C   UNL     1      -0.068   2.834   8.689  0.00  0.00    +0.181 C 
ATOM     14  N   UNL     1       1.226   3.018   8.611  0.00  0.00    -0.152 NA
ATOM     15  C   UNL     1       1.918   2.426   7.614  0.00  0.00    +0.273 C 
ATOM     16  O   UNL     1       3.138   2.471   7.578  0.00  0.00    -0.268 OA
ATOM     17  S   UNL     1      -1.261   3.547   9.790  0.00  0.00    -0.027 S 
ATOM     18  C   UNL     1      -2.720   2.808   9.066  0.00  0.00    +0.156 C 
ATOM     19  N   UNL     1      -2.211   2.075   8.107  0.00  0.00    -0.158 NA
ATOM     20  H   UNL     1      -1.608  -0.157   6.725  0.00  0.00    +0.188 HD
BRANCH  18  21
ATOM     21  S   UNL     1      -4.408   3.015   9.525  0.00  0.00    -0.101 S 
ATOM     22  C   UNL     1      -5.313   1.965   8.354  0.00  0.00    +0.092 C 
ENDBRANCH  18  21
ENDBRANCH   4   8
BRANCH   1  29
ATOM     23  C   UNL     1       0.118   1.885   0.072  0.00  0.00    +0.046 C 
ATOM     24  C   UNL     1       0.103   0.384  -0.056  0.00  0.00    -0.026 A 
ATOM     25  C   UNL     1       0.104  -0.204  -1.306  0.00  0.00    +0.007 A 
ATOM     26  C   UNL     1       0.090  -1.582  -1.423  0.00  0.00    +0.033 A 
ATOM     27  C   UNL     1       0.075  -2.375  -0.291  0.00  0.00    +0.128 A 
ATOM     28  C   UNL     1       0.074  -1.794   0.962  0.00  0.00    +0.059 A 
ATOM     29  C   UNL     1       0.093  -0.410   1.083  0.00  0.00    +0.052 A 
BRANCH  27  30
ATOM     30  N   UNL     1       0.059  -3.850  -0.421  0.00  0.00    +0.056 N 
ATOM     31  O   UNL     1       0.060  -4.360  -1.517  0.00  0.00    -0.126 OA
ATOM     32  O   UNL     1       0.046  -4.544   0.569  0.00  0.00    -0.126 OA
ENDBRANCH  27  30
ENDBRANCH   1  29
TORSDOF 4
