REMARK  Name = ZINC22473309
REMARK  10 active torsions:
REMARK  status: ('A' for Active; 'I' for Inactive)
REMARK    1  A    between atoms: C_4  and  C_7
REMARK    2  A    between atoms: C_7  and  N_8
REMARK    3  A    between atoms: N_8  and  C_9
REMARK    4  A    between atoms: C_9  and  C_10
REMARK    5  A    between atoms: C_10  and  C_11
REMARK    6  A    between atoms: C_11  and  N_12
REMARK    7  A    between atoms: C_15  and  O_16
REMARK    8  A    between atoms: C_24  and  C_26
REMARK    9  A    between atoms: C_29  and  C_31
REMARK   10  A    between atoms: C_35  and  N_37
REMARK                            x       y       z     vdW  Elec       q    Type
REMARK                         _______ _______ _______ _____ _____    ______ ____
ROOT
ATOM      1  N   UNL     1       2.836   8.421   0.126  0.00  0.00    -0.291 N 
ATOM      2  C   UNL     1       1.505   8.590  -0.003  0.00  0.00    +0.282 C 
ATOM      3  O   UNL     1       1.040   9.712  -0.087  0.00  0.00    -0.267 OA
ENDROOT
BRANCH   2   4
ATOM      4  C   UNL     1       0.619   7.424  -0.043  0.00  0.00    +0.190 A 
ATOM      5  C   UNL     1      -0.758   7.455  -0.052  0.00  0.00    +0.055 A 
ATOM      6  C   UNL     1      -1.191   6.125  -0.093  0.00  0.00    +0.050 A 
ATOM      7  C   UNL     1      -0.074   5.340  -0.107  0.00  0.00    +0.136 A 
ATOM      8  O   UNL     1       1.010   6.133  -0.071  0.00  0.00    -0.450 OA
BRANCH   7   9
ATOM      9  C   UNL     1      -0.060   3.864  -0.148  0.00  0.00    +0.019 A 
ATOM     10  C   UNL     1      -1.261   3.151  -0.176  0.00  0.00    +0.012 A 
ATOM     11  C   UNL     1      -1.241   1.773  -0.219  0.00  0.00    +0.003 A 
ATOM     12  C   UNL     1      -0.035   1.095  -0.224  0.00  0.00    +0.033 A 
ATOM     13  C   UNL     1       1.159   1.794  -0.196  0.00  0.00    +0.127 A 
ATOM     14  C   UNL     1       1.153   3.174  -0.158  0.00  0.00    +0.044 A 
BRANCH  13  15
ATOM     15  N   UNL     1       2.445   1.061  -0.207  0.00  0.00    +0.056 N 
ATOM     16  O   UNL     1       2.451  -0.156  -0.241  0.00  0.00    -0.126 OA
ATOM     17  O   UNL     1       3.496   1.675  -0.183  0.00  0.00    -0.126 OA
ENDBRANCH  13  15
ENDBRANCH   7   9
ENDBRANCH   2   4
BRANCH   1  18
ATOM     18  C   UNL     1       3.408   7.073   0.112  0.00  0.00    +0.143 C 
BRANCH  18  22
ATOM     19  C   UNL     1       4.577   6.064  -3.871  0.00  0.00    +0.000 A 
ATOM     20  C   UNL     1       5.435   6.782  -3.060  0.00  0.00    +0.000 A 
ATOM     21  C   UNL     1       5.057   7.109  -1.771  0.00  0.00    +0.005 A 
ATOM     22  C   UNL     1       3.820   6.717  -1.293  0.00  0.00    -0.030 A 
ATOM     23  C   UNL     1       2.964   5.994  -2.103  0.00  0.00    +0.005 A 
ATOM     24  C   UNL     1       3.340   5.672  -3.393  0.00  0.00    +0.000 A 
ENDBRANCH  18  22
ENDBRANCH   1  18
BRANCH   1  25
ATOM     25  C   UNL     1       3.711   9.586   0.282  0.00  0.00    +0.110 C 
BRANCH  25  26
ATOM     26  C   UNL     1       3.865   9.913   1.769  0.00  0.00    +0.040 C 
BRANCH  26  27
ATOM     27  C   UNL     1       4.779  11.130   1.931  0.00  0.00    +0.114 C 
BRANCH  27  28
ATOM     28  N   UNL     1       4.927  11.443   3.355  0.00  0.00    -0.384 N 
ATOM     29  C   UNL     1       5.709  12.505   3.748  0.00  0.00    +0.053 A 
ATOM     30  C   UNL     1       6.359  13.285   2.826  0.00  0.00    +0.113 A 
ATOM     31  C   UNL     1       7.147  14.359   3.257  0.00  0.00    +0.286 A 
ATOM     32  O   UNL     1       7.291  14.656   4.559  0.00  0.00    -0.425 OA
ATOM     33  C   UNL     1       6.682  13.933   5.524  0.00  0.00    +0.141 A 
ATOM     34  C   UNL     1       5.869  12.844   5.173  0.00  0.00    +0.041 A 
ATOM     35  C   UNL     1       5.233  12.098   6.166  0.00  0.00    +0.013 A 
ATOM     36  C   UNL     1       5.403  12.441   7.489  0.00  0.00    +0.001 A 
ATOM     37  C   UNL     1       6.201  13.521   7.835  0.00  0.00    +0.004 A 
ATOM     38  C   UNL     1       6.846  14.259   6.864  0.00  0.00    +0.047 A 
ATOM     39  H   UNL     1       4.414  10.828   4.109  0.00  0.00    +0.160 HD
BRANCH  31  40
ATOM     40  O   UNL     1       7.719  15.044   2.427  0.00  0.00    -0.480 OA
ATOM     41  H   UNL     1       8.343  15.892   2.748  0.00  0.00    +0.295 HD
ENDBRANCH  31  40
ENDBRANCH  27  28
ENDBRANCH  26  27
ENDBRANCH  25  26
ENDBRANCH   1  25
TORSDOF 10
