REMARK  Name = ZINC16024785
REMARK  6 active torsions:
REMARK  status: ('A' for Active; 'I' for Inactive)
REMARK    1  A    between atoms: C_1  and  C_2
REMARK    2  A    between atoms: C_2  and  C_3
REMARK    3  A    between atoms: C_2  and  C_4
REMARK    4  A    between atoms: C_2  and  N_5
REMARK    5  A    between atoms: C_10  and  C_28
REMARK    6  A    between atoms: C_28  and  C_29
REMARK                            x       y       z     vdW  Elec       q    Type
REMARK                         _______ _______ _______ _____ _____    ______ ____
ROOT
ATOM      1  N   UNL     1       0.688  -0.476  -1.203  0.00  0.00    -0.236 N 
ATOM      2  C   UNL     1       0.091  -1.247  -2.120  0.00  0.00    +0.228 C 
ATOM      3  O   UNL     1      -1.055  -1.640  -2.067  0.00  0.00    -0.275 OA
ATOM      4  C   UNL     1       1.067  -1.550  -3.234  0.00  0.00    +0.107 C 
ATOM      5  C   UNL     1       1.414  -3.053  -3.214  0.00  0.00    +0.072 C 
ATOM      6  N   UNL     1       2.545  -3.171  -2.255  0.00  0.00    -0.295 NA
ATOM      7  C   UNL     1       3.362  -1.971  -2.511  0.00  0.00    +0.136 C 
ATOM      8  C   UNL     1       2.363  -0.819  -2.784  0.00  0.00    +0.122 C 
ATOM      9  C   UNL     1       1.960  -0.168  -1.479  0.00  0.00    +0.229 C 
ATOM     10  O   UNL     1       2.679   0.523  -0.790  0.00  0.00    -0.275 OA
ATOM     11  C   UNL     1       4.293  -2.173  -3.672  0.00  0.00    +0.005 A 
ATOM     12  C   UNL     1       4.098  -2.481  -5.001  0.00  0.00    +0.008 A 
ATOM     13  C   UNL     1       5.184  -2.603  -5.850  0.00  0.00    +0.002 A 
ATOM     14  C   UNL     1       6.464  -2.416  -5.362  0.00  0.00    +0.022 A 
ATOM     15  C   UNL     1       6.664  -2.107  -4.031  0.00  0.00    +0.062 A 
ATOM     16  C   UNL     1       5.576  -1.982  -3.170  0.00  0.00    +0.057 A 
ATOM     17  N   UNL     1       5.521  -1.682  -1.806  0.00  0.00    -0.282 N 
ATOM     18  C   UNL     1       4.256  -1.656  -1.343  0.00  0.00    +0.243 C 
ATOM     19  O   UNL     1       3.907  -1.425  -0.204  0.00  0.00    -0.273 OA
ATOM     20 CL   UNL     1       8.276  -1.875  -3.430  0.00  0.00    -0.082 Cl
ATOM     21  H   UNL     1       2.212  -3.186  -1.303  0.00  0.00    +0.124 HD
ATOM     22  H   UNL     1       6.302  -1.511  -1.257  0.00  0.00    +0.155 HD
ENDROOT
BRANCH   1  24
ATOM     23  C   UNL     1      -0.019   1.526   0.010  0.00  0.00    +0.031 C 
ATOM     24  C   UNL     1       0.002  -0.004   0.002  0.00  0.00    +0.036 C 
ATOM     25  C   UNL     1       0.742  -0.511   1.242  0.00  0.00    +0.031 C 
ATOM     26  C   UNL     1      -1.433  -0.534   0.013  0.00  0.00    +0.031 C 
ENDBRANCH   1  24
BRANCH   5  27
ATOM     27  C   UNL     1       0.215  -3.870  -2.729  0.00  0.00    +0.054 C 
BRANCH  27  28
ATOM     28  C   UNL     1       0.532  -5.339  -2.833  0.00  0.00    -0.046 A 
ATOM     29  C   UNL     1       0.244  -6.028  -3.997  0.00  0.00    +0.004 A 
ATOM     30  C   UNL     1       0.535  -7.376  -4.093  0.00  0.00    +0.000 A 
ATOM     31  C   UNL     1       1.115  -8.035  -3.025  0.00  0.00    +0.000 A 
ATOM     32  C   UNL     1       1.405  -7.346  -1.862  0.00  0.00    +0.000 A 
ATOM     33  C   UNL     1       1.117  -5.998  -1.768  0.00  0.00    +0.004 A 
ENDBRANCH  27  28
ENDBRANCH   5  27
TORSDOF 3
