REMARK  Name = ZINC49415868
REMARK  3 active torsions:
REMARK  status: ('A' for Active; 'I' for Inactive)
REMARK    1  A    between atoms: C_1  and  C_2
REMARK    2  A    between atoms: C_4  and  C_7
REMARK    3  A    between atoms: N_9  and  C_10
REMARK                            x       y       z     vdW  Elec       q    Type
REMARK                         _______ _______ _______ _____ _____    ______ ____
ROOT
ATOM      1  C   UNL     1      -4.206  -3.625  -0.089  0.00  0.00    +0.060 A 
ATOM      2  C   UNL     1      -3.970  -4.983  -0.087  0.00  0.00    +0.025 A 
ATOM      3  C   UNL     1      -5.021  -5.890  -0.176  0.00  0.00    +0.003 A 
ATOM      4  C   UNL     1      -6.311  -5.460  -0.268  0.00  0.00    +0.010 A 
ATOM      5  C   UNL     1      -6.592  -4.085  -0.274  0.00  0.00    +0.002 A 
ATOM      6  C   UNL     1      -5.533  -3.151  -0.177  0.00  0.00    +0.094 A 
ATOM      7  N   UNL     1      -5.796  -1.841  -0.177  0.00  0.00    -0.227 NA
ATOM      8  C   UNL     1      -7.030  -1.392  -0.260  0.00  0.00    +0.139 A 
ATOM      9  C   UNL     1      -8.122  -2.264  -0.352  0.00  0.00    +0.047 A 
ATOM     10  C   UNL     1      -7.916  -3.611  -0.368  0.00  0.00    +0.013 A 
ATOM     11  N   UNL     1      -7.256  -0.014  -0.256  0.00  0.00    -0.290 N 
ATOM     12  C   UNL     1      -6.300   0.970  -0.273  0.00  0.00    +0.114 A 
ATOM     13  C   UNL     1      -6.952   2.147  -0.261  0.00  0.00    +0.130 A 
ATOM     14  N   UNL     1      -8.270   1.897  -0.236  0.00  0.00    -0.244 NA
ATOM     15  C   UNL     1      -8.466   0.607  -0.239  0.00  0.00    +0.205 A 
ENDROOT
BRANCH   1  18
ATOM     16  C   UNL     1      -1.962  -3.017  -0.581  0.00  0.00    +0.267 C 
ATOM     17  O   UNL     1      -1.797  -4.098  -1.113  0.00  0.00    -0.268 OA
ATOM     18  N   UNL     1      -3.142  -2.726   0.001  0.00  0.00    -0.278 N 
ATOM     19  H   UNL     1      -3.252  -1.891   0.483  0.00  0.00    +0.155 HD
BRANCH  16  23
ATOM     20  C   UNL     1       0.088   1.387   0.542  0.00  0.00    +0.073 C 
ATOM     21  C   UNL     1       0.003  -0.005  -0.029  0.00  0.00    +0.076 A 
ATOM     22  N   UNL     1      -1.009  -0.828   0.004  0.00  0.00    -0.240 NA
ATOM     23  C   UNL     1      -0.872  -2.028  -0.571  0.00  0.00    +0.133 A 
ATOM     24  C   UNL     1       0.343  -2.281  -1.150  0.00  0.00    +0.080 A 
ATOM     25  S   UNL     1       1.186  -0.857  -0.862  0.00  0.00    -0.080 S 
ENDBRANCH  16  23
ENDBRANCH   1  18
TORSDOF 2
