REMARK  Name = ZINC40266695
REMARK  7 active torsions:
REMARK  status: ('A' for Active; 'I' for Inactive)
REMARK    1  A    between atoms: C_1  and  C_2
REMARK    2  A    between atoms: C_2  and  C_3
REMARK    3  A    between atoms: C_2  and  C_4
REMARK    4  A    between atoms: C_4  and  O_5
REMARK    5  A    between atoms: O_5  and  C_6
REMARK    6  A    between atoms: C_11  and  C_12
REMARK    7  A    between atoms: N_22  and  C_23
REMARK                            x       y       z     vdW  Elec       q    Type
REMARK                         _______ _______ _______ _____ _____    ______ ____
ROOT
ATOM      1  C   UNL     1       4.806   0.672  -1.138  0.00  0.00    +0.083 C 
ATOM      2  C   UNL     1       5.373   1.996  -1.659  0.00  0.00    +0.110 C 
ATOM      3  C   UNL     1       6.678   1.792  -2.374  0.00  0.00    +0.219 C 
ATOM      4  O   UNL     1       6.928   2.471  -3.347  0.00  0.00    -0.275 OA
ATOM      5  N   UNL     1       7.583   0.875  -1.966  0.00  0.00    -0.270 N 
ATOM      6  C   UNL     1       7.221   0.013  -0.930  0.00  0.00    +0.133 A 
ATOM      7  C   UNL     1       5.930  -0.114  -0.512  0.00  0.00    +0.089 A 
ATOM      8  N   UNL     1       5.899  -1.003   0.478  0.00  0.00    -0.238 NA
ATOM      9  C   UNL     1       7.112  -1.441   0.704  0.00  0.00    +0.205 A 
ATOM     10  N   UNL     1       7.972  -0.822  -0.163  0.00  0.00    -0.285 N 
ATOM     11  H   UNL     1       8.459   0.818  -2.381  0.00  0.00    +0.156 HD
ENDROOT
BRANCH   1  17
ATOM     12  C   UNL     1       2.873  -0.463  -2.261  0.00  0.00    +0.124 A 
ATOM     13  C   UNL     1       2.330  -1.180  -3.318  0.00  0.00    +0.046 A 
ATOM     14  C   UNL     1       3.127  -1.546  -4.385  0.00  0.00    +0.004 A 
ATOM     15  C   UNL     1       4.465  -1.198  -4.400  0.00  0.00    +0.001 A 
ATOM     16  C   UNL     1       5.009  -0.485  -3.348  0.00  0.00    +0.008 A 
ATOM     17  C   UNL     1       4.215  -0.111  -2.282  0.00  0.00    +0.004 A 
BRANCH  12  18
ATOM     18  O   UNL     1       2.090  -0.101  -1.210  0.00  0.00    -0.491 OA
BRANCH  18  19
ATOM     19  C   UNL     1       0.718  -0.497  -1.257  0.00  0.00    +0.232 C 
BRANCH  19  21
ATOM     20  C   UNL     1      -0.019   1.526   0.010  0.00  0.00    +0.010 C 
ATOM     21  C   UNL     1       0.002  -0.004   0.002  0.00  0.00    +0.020 C 
ATOM     22  C   UNL     1      -1.433  -0.534   0.013  0.00  0.00    +0.010 C 
ENDBRANCH  19  21
ENDBRANCH  18  19
ENDBRANCH  12  18
ENDBRANCH   1  17
BRANCH  10  23
ATOM     23  C   UNL     1       9.359  -1.013  -0.245  0.00  0.00    +0.067 A 
ATOM     24  C   UNL     1      10.149  -0.951   0.900  0.00  0.00    +0.029 A 
ATOM     25  C   UNL     1      11.514  -1.146   0.769  0.00  0.00    +0.022 A 
ATOM     26  C   UNL     1      12.043  -1.394  -0.484  0.00  0.00    +0.111 A 
ATOM     27  N   UNL     1      11.267  -1.446  -1.549  0.00  0.00    -0.261 NA
ATOM     28  C   UNL     1       9.963  -1.271  -1.467  0.00  0.00    +0.136 A 
ENDBRANCH  10  23
TORSDOF 5
