REMARK  Name = ZINC04225684
REMARK  5 active torsions:
REMARK  status: ('A' for Active; 'I' for Inactive)
REMARK    1  A    between atoms: C_1  and  C_2
REMARK    2  A    between atoms: C_5  and  N_9
REMARK    3  A    between atoms: C_6  and  C_8
REMARK    4  A    between atoms: C_10  and  C_12
REMARK    5  A    between atoms: N_18  and  C_21
REMARK                            x       y       z     vdW  Elec       q    Type
REMARK                         _______ _______ _______ _____ _____    ______ ____
ROOT
ATOM      1  C   UNL     1       0.048   3.703   0.896  0.00  0.00    +0.118 A 
ATOM      2  C   UNL     1      -1.087   2.916   0.885  0.00  0.00    +0.106 A 
ATOM      3  N   UNL     1      -1.018   1.655   0.385  0.00  0.00    -0.313 N 
ATOM      4  H   UNL     1      -1.842   1.089   0.370  0.00  0.00    +0.170 HD
ATOM      5  C   UNL     1       0.133   1.151  -0.090  0.00  0.00    +0.334 A 
ATOM      6  O   UNL     1       0.143   0.015  -0.522  0.00  0.00    -0.246 OA
ATOM      7  N   UNL     1       1.272   1.864  -0.108  0.00  0.00    -0.229 N 
ATOM      8  C   UNL     1       1.295   3.128   0.365  0.00  0.00    +0.273 A 
ATOM      9  O   UNL     1       2.323   3.778   0.352  0.00  0.00    -0.266 OA
ENDROOT
BRANCH   7  10
ATOM     10  C   UNL     1       2.444   1.291  -0.620  0.00  0.00    +0.054 A 
ATOM     11  C   UNL     1       3.277   0.553   0.210  0.00  0.00    +0.028 A 
ATOM     12  C   UNL     1       4.429  -0.015  -0.298  0.00  0.00    +0.022 A 
ATOM     13  C   UNL     1       4.758   0.159  -1.631  0.00  0.00    +0.041 A 
ATOM     14  C   UNL     1       3.931   0.898  -2.459  0.00  0.00    +0.022 A 
ATOM     15  C   UNL     1       2.776   1.464  -1.957  0.00  0.00    +0.028 A 
ATOM     16 CL   UNL     1       6.209  -0.551  -2.265  0.00  0.00    -0.084 Cl
ENDBRANCH   7  10
BRANCH   1  18
ATOM     17  N   UNL     1       1.099   5.865   1.321  0.00  0.00    -0.281 N 
ATOM     18  C   UNL     1       0.013   5.074   1.425  0.00  0.00    +0.255 C 
ATOM     19  O   UNL     1      -0.997   5.496   1.955  0.00  0.00    -0.270 OA
ATOM     20  H   UNL     1       1.887   5.548   0.850  0.00  0.00    +0.155 HD
BRANCH  17  25
ATOM     21  C   UNL     1       1.070  11.043   3.636  0.00  0.00    +0.044 C 
ATOM     22  C   UNL     1       1.078   9.668   3.020  0.00  0.00    -0.050 A 
ATOM     23  C   UNL     1      -0.105   9.101   2.582  0.00  0.00    +0.005 A 
ATOM     24  C   UNL     1      -0.101   7.841   2.018  0.00  0.00    +0.024 A 
ATOM     25  C   UNL     1       1.092   7.142   1.891  0.00  0.00    +0.037 A 
ATOM     26  C   UNL     1       2.278   7.711   2.337  0.00  0.00    -0.029 A 
ATOM     27  C   UNL     1       2.268   8.975   2.896  0.00  0.00    +0.008 A 
ATOM     28  C   UNL     1       3.574   6.954   2.207  0.00  0.00    +0.045 C 
ENDBRANCH  17  25
ENDBRANCH   1  18
TORSDOF 3
