REMARK  Name = ZINC57750380
REMARK  9 active torsions:
REMARK  status: ('A' for Active; 'I' for Inactive)
REMARK    1  A    between atoms: C_3  and  C_6
REMARK    2  A    between atoms: C_12  and  C_14
REMARK    3  A    between atoms: C_14  and  N_15
REMARK    4  A    between atoms: N_15  and  C_16
REMARK    5  A    between atoms: C_18  and  N_26
REMARK    6  A    between atoms: C_21  and  N_22
REMARK    7  A    between atoms: N_22  and  C_23
REMARK    8  A    between atoms: C_23  and  C_24
REMARK    9  A    between atoms: C_24  and  O_25
REMARK                            x       y       z     vdW  Elec       q    Type
REMARK                         _______ _______ _______ _____ _____    ______ ____
ROOT
ATOM      1  N   UNL     1       4.985  -0.060   4.357  0.00  0.00    -0.334 N 
ATOM      2  H   UNL     1       4.223   0.460   4.655  0.00  0.00    +0.147 HD
ENDROOT
BRANCH   1   3
ATOM      3  C   UNL     1       5.714  -0.824   5.277  0.00  0.00    +0.051 A 
ATOM      4  C   UNL     1       6.808  -1.564   4.854  0.00  0.00    +0.057 A 
ATOM      5  C   UNL     1       7.527  -2.317   5.764  0.00  0.00    +0.128 A 
ATOM      6  C   UNL     1       7.159  -2.334   7.097  0.00  0.00    +0.034 A 
ATOM      7  C   UNL     1       6.069  -1.599   7.527  0.00  0.00    +0.027 A 
ATOM      8  C   UNL     1       5.346  -0.837   6.622  0.00  0.00    +0.048 A 
BRANCH   5   9
ATOM      9  N   UNL     1       8.694  -3.106   5.311  0.00  0.00    +0.056 N 
ATOM     10  O   UNL     1       9.017  -3.092   4.146  0.00  0.00    -0.126 OA
ATOM     11  O   UNL     1       9.323  -3.765   6.105  0.00  0.00    -0.126 OA
ENDBRANCH   5   9
BRANCH   8  12
ATOM     12  N   UNL     1       4.246  -0.087   7.057  0.00  0.00    -0.340 N 
ATOM     13  H   UNL     1       3.739   0.443   6.422  0.00  0.00    +0.146 HD
BRANCH  12  14
ATOM     14  C   UNL     1       3.862  -0.103   8.470  0.00  0.00    +0.129 C 
BRANCH  14  15
ATOM     15  C   UNL     1       2.638   0.793   8.676  0.00  0.00    +0.174 C 
BRANCH  15  16
ATOM     16  O   UNL     1       1.522   0.242   7.974  0.00  0.00    -0.393 OA
ATOM     17  H   UNL     1       0.709   0.759   8.060  0.00  0.00    +0.209 HD
ENDBRANCH  15  16
ENDBRANCH  14  15
ENDBRANCH  12  14
ENDBRANCH   8  12
ENDBRANCH   1   3
BRANCH   1  18
ATOM     18  C   UNL     1       5.373  -0.048   2.945  0.00  0.00    +0.197 C 
BRANCH  18  24
ATOM     19  C   UNL     1       3.761   1.845  -0.024  0.00  0.00    +0.113 C 
ATOM     20  C   UNL     1       4.340   1.753  -1.452  0.00  0.00    +0.029 C 
ATOM     21  C   UNL     1       5.809   1.318  -1.203  0.00  0.00    +0.021 C 
ATOM     22  C   UNL     1       5.652   0.381   0.021  0.00  0.00    +0.108 C 
ATOM     23  N   UNL     1       4.600   1.009   0.846  0.00  0.00    -0.293 N 
ATOM     24  C   UNL     1       4.434   0.844   2.174  0.00  0.00    +0.233 C 
ATOM     25  O   UNL     1       3.530   1.413   2.747  0.00  0.00    -0.274 OA
BRANCH  19  28
ATOM     26  C   UNL     1      -0.016   1.351   0.009  0.00  0.00    +0.008 A 
ATOM     27  C   UNL     1       1.183   2.038   0.002  0.00  0.00    +0.013 A 
ATOM     28  C   UNL     1       2.343   1.336  -0.013  0.00  0.00    +0.010 A 
ATOM     29  S   UNL     1       1.754  -0.349  -0.017  0.00  0.00    -0.100 S 
ATOM     30  C   UNL     1       0.002  -0.004   0.002  0.00  0.00    +0.045 A 
ENDBRANCH  19  28
ENDBRANCH  18  24
ENDBRANCH   1  18
TORSDOF 9
