REMARK  Name = ZINC67380572
REMARK  4 active torsions:
REMARK  status: ('A' for Active; 'I' for Inactive)
REMARK    1  A    between atoms: C_1  and  N_2
REMARK    2  A    between atoms: N_5  and  C_13
REMARK    3  A    between atoms: C_13  and  C_14
REMARK    4  A    between atoms: C_17  and  C_19
REMARK                            x       y       z     vdW  Elec       q    Type
REMARK                         _______ _______ _______ _____ _____    ______ ____
ROOT
ATOM      1  C   UNL     1      -0.018   1.461   0.010  0.00  0.00    +0.129 C 
ATOM      2  N   UNL     1       0.002  -0.004   0.002  0.00  0.00    -0.335 N 
ATOM      3  C   UNL     1      -1.248  -0.785   0.004  0.00  0.00    +0.086 C 
ATOM      4  C   UNL     1      -1.583  -1.230  -1.399  0.00  0.00    -0.059 C 
ATOM      5  N   UNL     1      -0.615  -2.152  -1.982  0.00  0.00    +0.389 N 
ATOM      6  C   UNL     1       0.635  -1.474  -2.328  0.00  0.00    -0.040 C 
ATOM      7  C   UNL     1       1.551  -1.470  -1.116  0.00  0.00    -0.043 A 
ATOM      8  C   UNL     1       1.206  -0.712  -0.013  0.00  0.00    +0.031 A 
ATOM      9  C   UNL     1       2.063  -0.667   1.079  0.00  0.00    +0.023 A 
ATOM     10  C   UNL     1       3.235  -1.398   1.060  0.00  0.00    +0.002 A 
ATOM     11  C   UNL     1       3.556  -2.173  -0.040  0.00  0.00    +0.000 A 
ATOM     12  C   UNL     1       2.714  -2.208  -1.123  0.00  0.00    +0.003 A 
ATOM     13  H   UNL     1      -0.419  -2.886  -1.319  0.00  0.00    -0.081 HD
ENDROOT
BRANCH   5  14
ATOM     14  C   UNL     1      -1.190  -2.747  -3.196  0.00  0.00    +0.019 C 
BRANCH  14  15
ATOM     15  C   UNL     1      -0.248  -3.791  -3.738  0.00  0.00    +0.180 A 
ATOM     16  N   UNL     1      -0.261  -5.056  -3.424  0.00  0.00    -0.223 NA
ATOM     17  C   UNL     1       0.716  -5.682  -4.097  0.00  0.00    +0.161 A 
ATOM     18  C   UNL     1       1.352  -4.748  -4.856  0.00  0.00    +0.162 A 
ATOM     19  O   UNL     1       0.733  -3.569  -4.625  0.00  0.00    -0.441 OA
BRANCH  18  20
ATOM     20  C   UNL     1       2.491  -4.979  -5.760  0.00  0.00    +0.056 A 
ATOM     21  C   UNL     1       3.149  -6.150  -6.040  0.00  0.00    +0.019 A 
ATOM     22  C   UNL     1       4.199  -6.121  -6.931  0.00  0.00    +0.008 A 
ATOM     23  C   UNL     1       4.551  -4.940  -7.501  0.00  0.00    +0.046 A 
ATOM     24  S   UNL     1       3.372  -3.810  -6.782  0.00  0.00    -0.094 S 
ENDBRANCH  18  20
ENDBRANCH  14  15
ENDBRANCH   5  14
TORSDOF 3
