REMARK  Name = ZINC43676963
REMARK  8 active torsions:
REMARK  status: ('A' for Active; 'I' for Inactive)
REMARK    1  A    between atoms: C_1  and  C_2
REMARK    2  A    between atoms: C_8  and  N_10
REMARK    3  A    between atoms: N_13  and  C_14
REMARK    4  A    between atoms: C_17  and  S_20
REMARK    5  A    between atoms: S_20  and  N_23
REMARK    6  A    between atoms: N_23  and  C_24
REMARK    7  A    between atoms: C_24  and  C_25
REMARK    8  A    between atoms: C_24  and  C_26
REMARK                            x       y       z     vdW  Elec       q    Type
REMARK                         _______ _______ _______ _____ _____    ______ ____
ROOT
ATOM      1  C   UNL     1       0.787   0.565   5.934  0.00  0.00    +0.035 A 
ATOM      2  C   UNL     1       0.111   0.286   7.114  0.00  0.00    +0.025 A 
ATOM      3  C   UNL     1       0.785   0.323   8.319  0.00  0.00    +0.030 A 
ATOM      4  C   UNL     1       2.131   0.638   8.351  0.00  0.00    +0.105 A 
ATOM      5  C   UNL     1       2.807   0.917   7.177  0.00  0.00    +0.030 A 
ATOM      6  C   UNL     1       2.140   0.876   5.968  0.00  0.00    +0.025 A 
ENDROOT
BRANCH   1  10
ATOM      7  N   UNL     1       0.058  -0.033   2.445  0.00  0.00    -0.296 N 
ATOM      8  C   UNL     1       0.737   0.091   3.603  0.00  0.00    +0.304 C 
ATOM      9  O   UNL     1       1.919  -0.190   3.646  0.00  0.00    -0.253 OA
ATOM     10  N   UNL     1       0.107   0.528   4.711  0.00  0.00    -0.269 N 
ATOM     11  H   UNL     1      -0.885   0.192   2.410  0.00  0.00    +0.151 HD
ATOM     12  H   UNL     1      -0.818   0.816   4.661  0.00  0.00    +0.156 HD
BRANCH   7  19
ATOM     13  C   UNL     1      -0.002   1.538   0.013  0.00  0.00    +0.009 C 
ATOM     14  C   UNL     1       0.009   0.008   0.001  0.00  0.00    +0.006 C 
ATOM     15  C   UNL     1       0.724  -0.488  -1.258  0.00  0.00    +0.005 C 
ATOM     16  C   UNL     1       0.735  -2.018  -1.270  0.00  0.00    +0.000 C 
ATOM     17  C   UNL     1       1.468  -2.532  -0.030  0.00  0.00    +0.002 C 
ATOM     18  C   UNL     1       0.753  -2.037   1.229  0.00  0.00    +0.022 C 
ATOM     19  C   UNL     1       0.743  -0.507   1.240  0.00  0.00    +0.077 C 
ENDBRANCH   7  19
ENDBRANCH   1  10
BRANCH   4  20
ATOM     20  S   UNL     1       2.987   0.684   9.890  0.00  0.00    +0.059 S 
ATOM     21  O   UNL     1       4.109   1.537   9.705  0.00  0.00    -0.153 OA
ATOM     22  O   UNL     1       2.008   0.920  10.893  0.00  0.00    -0.153 OA
BRANCH  20  23
ATOM     23  N   UNL     1       3.587  -0.835  10.163  0.00  0.00    -0.187 NA
ATOM     24  H   UNL     1       3.262  -1.358  10.912  0.00  0.00    +0.148 HD
BRANCH  23  25
ATOM     25  C   UNL     1       4.610  -1.389   9.272  0.00  0.00    +0.070 C 
ATOM     26  C   UNL     1       5.997  -1.132   9.865  0.00  0.00    +0.025 C 
ATOM     27  C   UNL     1       4.392  -2.896   9.120  0.00  0.00    +0.025 C 
ENDBRANCH  23  25
ENDBRANCH  20  23
ENDBRANCH   4  20
TORSDOF 5
