REMARK  Name = ZINC63279593
REMARK  6 active torsions:
REMARK  status: ('A' for Active; 'I' for Inactive)
REMARK    1  A    between atoms: C_6  and  C_11
REMARK    2  A    between atoms: C_11  and  C_12
REMARK    3  A    between atoms: C_12  and  N_13
REMARK    4  A    between atoms: C_14  and  C_16
REMARK    5  A    between atoms: C_16  and  S_17
REMARK    6  A    between atoms: S_17  and  C_18
REMARK                            x       y       z     vdW  Elec       q    Type
REMARK                         _______ _______ _______ _____ _____    ______ ____
ROOT
ATOM      1  N   UNL     1       5.001  -3.593  -1.505  0.00  0.00    -0.314 N 
ATOM      2  C   UNL     1       5.312  -4.187  -2.674  0.00  0.00    +0.223 C 
ATOM      3  O   UNL     1       5.183  -3.579  -3.716  0.00  0.00    -0.275 OA
ATOM      4  H   UNL     1       5.104  -4.079  -0.672  0.00  0.00    +0.149 HD
ENDROOT
BRANCH   1   5
ATOM      5  C   UNL     1       4.508  -2.214  -1.492  0.00  0.00    +0.108 C 
BRANCH   5   6
ATOM      6  C   UNL     1       4.232  -1.784  -0.050  0.00  0.00    +0.052 C 
BRANCH   6  12
ATOM      7  C   UNL     1      -0.017   1.400   0.010  0.00  0.00    +0.040 A 
ATOM      8  C   UNL     1       1.109   2.144   0.003  0.00  0.00    +0.029 A 
ATOM      9  C   UNL     1       2.386   1.516  -0.013  0.00  0.00    +0.043 A 
ATOM     10  N   UNL     1       3.600   2.010  -0.023  0.00  0.00    -0.380 N 
ATOM     11  C   UNL     1       4.557   0.898  -0.038  0.00  0.00    +0.144 C 
ATOM     12  C   UNL     1       3.725  -0.365  -0.037  0.00  0.00    -0.040 C 
ATOM     13  C   UNL     1       2.434   0.037  -0.021  0.00  0.00    +0.002 A 
ATOM     14  C   UNL     1       1.164  -0.699  -0.013  0.00  0.00    +0.048 A 
ATOM     15  C   UNL     1       0.002  -0.004   0.002  0.00  0.00    +0.124 A 
ATOM     16  F   UNL     1      -1.169  -0.678   0.010  0.00  0.00    -0.205 F 
ATOM     17  H   UNL     1       3.828   2.953  -0.020  0.00  0.00    +0.160 HD
ENDBRANCH   6  12
ENDBRANCH   5   6
ENDBRANCH   1   5
BRANCH   2  18
ATOM     18  C   UNL     1       5.819  -5.606  -2.688  0.00  0.00    +0.171 C 
BRANCH  18  19
ATOM     19  S   UNL     1       6.145  -6.115  -4.398  0.00  0.00    -0.094 S 
BRANCH  19  20
ATOM     20  C   UNL     1       6.724  -7.773  -4.245  0.00  0.00    +0.128 A 
ATOM     21  C   UNL     1       7.088  -8.509  -5.376  0.00  0.00    +0.117 A 
ATOM     22  N   UNL     1       7.123  -8.266  -6.733  0.00  0.00    -0.341 N 
ATOM     23  C   UNL     1       7.579  -9.391  -7.328  0.00  0.00    +0.199 A 
ATOM     24  N   UNL     1       7.824 -10.305  -6.430  0.00  0.00    -0.216 NA
ATOM     25  C   UNL     1       7.543  -9.826  -5.204  0.00  0.00    +0.183 A 
ATOM     26  N   UNL     1       7.610 -10.325  -3.965  0.00  0.00    -0.196 NA
ATOM     27  C   UNL     1       7.256  -9.595  -2.929  0.00  0.00    +0.226 A 
ATOM     28  N   UNL     1       6.828  -8.350  -3.051  0.00  0.00    -0.209 NA
ATOM     29  H   UNL     1       6.869  -7.442  -7.177  0.00  0.00    +0.167 HD
ATOM     30 CL   UNL     1       7.361 -10.290  -1.342  0.00  0.00    -0.041 Cl
ENDBRANCH  19  20
ENDBRANCH  18  19
ENDBRANCH   2  18
TORSDOF 6
