REMARK  Name = ZINC40894068
REMARK  8 active torsions:
REMARK  status: ('A' for Active; 'I' for Inactive)
REMARK    1  A    between atoms: C_1  and  C_2
REMARK    2  A    between atoms: C_2  and  C_3
REMARK    3  A    between atoms: C_3  and  N_4
REMARK    4  A    between atoms: C_5  and  C_7
REMARK    5  A    between atoms: C_12  and  O_18
REMARK    6  A    between atoms: O_18  and  C_19
REMARK    7  A    between atoms: C_19  and  C_21
REMARK    8  A    between atoms: C_22  and  C_23
REMARK                            x       y       z     vdW  Elec       q    Type
REMARK                         _______ _______ _______ _____ _____    ______ ____
ROOT
ATOM      1  C   UNL     1      -2.634  -4.150  -0.074  0.00  0.00    +0.122 A 
ATOM      2  C   UNL     1      -3.798  -4.904   0.024  0.00  0.00    +0.031 A 
ATOM      3  C   UNL     1      -3.679  -6.315   0.044  0.00  0.00    +0.019 A 
ATOM      4  C   UNL     1      -4.820  -7.126  -0.060  0.00  0.00    +0.015 A 
ATOM      5  C   UNL     1      -4.689  -8.483  -0.082  0.00  0.00    +0.047 A 
ATOM      6  C   UNL     1      -3.429  -9.074   0.006  0.00  0.00    +0.135 A 
ATOM      7  C   UNL     1      -2.292  -8.290   0.130  0.00  0.00    +0.093 A 
ATOM      8  C   UNL     1      -2.407  -6.910   0.161  0.00  0.00    +0.143 A 
ATOM      9  O   UNL     1      -1.308  -6.135   0.325  0.00  0.00    -0.422 OA
ATOM     10  C   UNL     1      -1.361  -4.883  -0.191  0.00  0.00    +0.350 A 
ATOM     11  O   UNL     1      -0.392  -4.378  -0.726  0.00  0.00    -0.244 OA
ENDROOT
BRANCH   1  13
ATOM     12  N   UNL     1      -1.528  -1.974  -0.171  0.00  0.00    -0.311 N 
ATOM     13  C   UNL     1      -2.673  -2.679  -0.069  0.00  0.00    +0.251 C 
ATOM     14  O   UNL     1      -3.737  -2.099   0.028  0.00  0.00    -0.270 OA
ATOM     15  H   UNL     1      -0.679  -2.437  -0.248  0.00  0.00    +0.149 HD
BRANCH  12  16
ATOM     16  C   UNL     1      -1.567  -0.510  -0.165  0.00  0.00    +0.104 C 
BRANCH  16  18
ATOM     17  C   UNL     1      -0.184   1.567  -0.287  0.00  0.00    +0.005 C 
ATOM     18  C   UNL     1      -0.144   0.038  -0.293  0.00  0.00    +0.015 C 
ENDBRANCH  16  18
ENDBRANCH  12  16
ENDBRANCH   1  13
BRANCH   6  19
ATOM     19  O   UNL     1      -3.315 -10.426  -0.029  0.00  0.00    -0.423 OA
BRANCH  19  20
ATOM     20  C   UNL     1      -3.586 -11.054  -1.192  0.00  0.00    +0.337 C 
ATOM     21  O   UNL     1      -3.818 -10.405  -2.194  0.00  0.00    -0.245 OA
BRANCH  20  22
ATOM     22  C   UNL     1      -3.599 -12.515  -1.247  0.00  0.00    +0.092 C 
ATOM     23  C   UNL     1      -3.870 -13.143  -2.411  0.00  0.00    +0.015 C 
BRANCH  23  24
ATOM     24  C   UNL     1      -3.884 -14.614  -2.466  0.00  0.00    -0.023 A 
ATOM     25  C   UNL     1      -3.623 -15.363  -1.314  0.00  0.00    +0.009 A 
ATOM     26  C   UNL     1      -3.638 -16.740  -1.373  0.00  0.00    +0.022 A 
ATOM     27  C   UNL     1      -3.910 -17.383  -2.570  0.00  0.00    +0.059 A 
ATOM     28  C   UNL     1      -4.169 -16.647  -3.716  0.00  0.00    +0.060 A 
ATOM     29  C   UNL     1      -4.164 -15.268  -3.670  0.00  0.00    +0.029 A 
ATOM     30 CL   UNL     1      -4.509 -17.463  -5.210  0.00  0.00    -0.082 Cl
ATOM     31 CL   UNL     1      -3.925 -19.117  -2.635  0.00  0.00    -0.082 Cl
ENDBRANCH  23  24
ENDBRANCH  20  22
ENDBRANCH  19  20
ENDBRANCH   6  19
TORSDOF 7
