REMARK  Name = ZINC28293711
REMARK  8 active torsions:
REMARK  status: ('A' for Active; 'I' for Inactive)
REMARK    1  A    between atoms: C_1  and  C_2
REMARK    2  A    between atoms: C_6  and  C_30
REMARK    3  A    between atoms: C_7  and  C_12
REMARK    4  A    between atoms: C_10  and  C_11
REMARK    5  A    between atoms: N_14  and  C_15
REMARK    6  A    between atoms: C_15  and  C_16
REMARK    7  A    between atoms: C_16  and  C_18
REMARK    8  A    between atoms: C_16  and  N_23
REMARK                            x       y       z     vdW  Elec       q    Type
REMARK                         _______ _______ _______ _____ _____    ______ ____
ROOT
ATOM      1  C   UNL     1       1.131  -2.813   4.489  0.00  0.00    +0.280 C 
ATOM      2  O   UNL     1       0.304  -3.349   5.201  0.00  0.00    -0.267 OA
ATOM      3  N   UNL     1       0.759  -2.277   3.310  0.00  0.00    -0.310 N 
ATOM      4  H   UNL     1       1.508  -1.792   2.665  0.00  0.00    +0.149 HD
ENDROOT
BRANCH   1  11
ATOM      5  C   UNL     1       8.424  -1.682   5.148  0.00  0.00    +0.044 C 
ATOM      6  C   UNL     1       7.022  -2.131   5.468  0.00  0.00    -0.044 A 
ATOM      7  C   UNL     1       6.770  -2.800   6.658  0.00  0.00    +0.004 A 
ATOM      8  C   UNL     1       5.505  -3.214   6.965  0.00  0.00    +0.012 A 
ATOM      9  C   UNL     1       4.458  -2.963   6.074  0.00  0.00    +0.024 A 
ATOM     10  C   UNL     1       3.024  -3.249   6.079  0.00  0.00    +0.008 A 
ATOM     11  C   UNL     1       2.537  -2.749   4.914  0.00  0.00    +0.193 A 
ATOM     12  O   UNL     1       3.537  -2.181   4.208  0.00  0.00    -0.450 OA
ATOM     13  C   UNL     1       4.708  -2.286   4.866  0.00  0.00    +0.139 A 
ATOM     14  C   UNL     1       6.004  -1.874   4.576  0.00  0.00    -0.005 A 
ATOM     15  C   UNL     1       6.294  -1.147   3.288  0.00  0.00    +0.048 C 
ATOM     16  C   UNL     1       2.245  -3.957   7.158  0.00  0.00    +0.048 C 
ENDBRANCH   1  11
BRANCH   3  17
ATOM     17  C   UNL     1      -0.641  -2.340   2.886  0.00  0.00    +0.094 C 
BRANCH  17  18
ATOM     18  C   UNL     1      -0.817  -1.554   1.585  0.00  0.00    -0.013 C 
BRANCH  18  19
ATOM     19  N   UNL     1      -0.305  -0.188   1.766  0.00  0.00    +0.386 N 
ATOM     20  C   UNL     1      -0.999   0.494   2.876  0.00  0.00    -0.078 C 
ATOM     21  C   UNL     1      -0.041   1.486   3.486  0.00  0.00    -0.019 C 
ATOM     22  C   UNL     1      -0.231   2.893   2.896  0.00  0.00    -0.002 C 
ATOM     23  C   UNL     1      -0.465   2.853   1.373  0.00  0.00    -0.002 C 
ATOM     24  C   UNL     1       0.431   1.863   0.674  0.00  0.00    -0.019 C 
ATOM     25  C   UNL     1      -0.308   0.512   0.556  0.00  0.00    -0.078 C 
ATOM     26  H   UNL     1       0.766  -0.203   2.014  0.00  0.00    -0.081 HD
ENDBRANCH  18  19
BRANCH  18  27
ATOM     27  C   UNL     1      -2.279  -1.499   1.224  0.00  0.00    -0.022 A 
ATOM     28  C   UNL     1      -2.965  -2.248   0.327  0.00  0.00    +0.009 A 
ATOM     29  C   UNL     1      -4.318  -2.021   0.160  0.00  0.00    +0.008 A 
ATOM     30  C   UNL     1      -4.919  -1.056   0.898  0.00  0.00    +0.045 A 
ATOM     31  S   UNL     1      -3.558  -0.436   1.874  0.00  0.00    -0.103 S 
ENDBRANCH  18  27
ENDBRANCH  17  18
ENDBRANCH   3  17
TORSDOF 5
