REMARK  Name = ZINC39980696
REMARK  6 active torsions:
REMARK  status: ('A' for Active; 'I' for Inactive)
REMARK    1  A    between atoms: C_1  and  O_2
REMARK    2  A    between atoms: O_2  and  C_3
REMARK    3  A    between atoms: C_8  and  C_15
REMARK    4  A    between atoms: C_17  and  N_26
REMARK    5  A    between atoms: N_26  and  C_27
REMARK    6  A    between atoms: C_27  and  C_28
REMARK                            x       y       z     vdW  Elec       q    Type
REMARK                         _______ _______ _______ _____ _____    ______ ____
ROOT
ATOM      1  C   UNL     1       3.947  -4.366  -4.637  0.00  0.00    +0.126 C 
ATOM      2  C   UNL     1       4.059  -5.889  -4.440  0.00  0.00    +0.049 C 
ATOM      3  N   UNL     1       4.789  -6.019  -3.167  0.00  0.00    -0.304 N 
ATOM      4  C   UNL     1       5.180  -7.134  -2.484  0.00  0.00    +0.075 C 
ATOM      5  C   UNL     1       5.849  -7.034  -1.317  0.00  0.00    +0.015 C 
ATOM      6  C   UNL     1       6.153  -5.768  -0.788  0.00  0.00    +0.005 C 
ATOM      7  C   UNL     1       5.772  -4.650  -1.453  0.00  0.00    +0.043 C 
ATOM      8  C   UNL     1       5.066  -4.767  -2.684  0.00  0.00    +0.119 C 
ATOM      9  N   UNL     1       4.621  -3.800  -3.464  0.00  0.00    -0.265 NA
ENDROOT
BRANCH   1  15
ATOM     10  C   UNL     1      -1.438  -6.870  -3.474  0.00  0.00    +0.122 A 
ATOM     11  C   UNL     1      -0.959  -6.416  -2.236  0.00  0.00    +0.046 A 
ATOM     12  C   UNL     1       0.109  -5.588  -2.155  0.00  0.00    +0.013 A 
ATOM     13  C   UNL     1       0.773  -5.161  -3.389  0.00  0.00    -0.007 A 
ATOM     14  C   UNL     1       1.850  -4.330  -3.347  0.00  0.00    -0.003 C 
ATOM     15  C   UNL     1       2.478  -3.937  -4.670  0.00  0.00    +0.123 C 
ATOM     16  C   UNL     1       1.860  -4.500  -5.929  0.00  0.00    +0.226 C 
ATOM     17  O   UNL     1       2.325  -4.217  -7.017  0.00  0.00    -0.275 OA
ATOM     18  N   UNL     1       0.812  -5.300  -5.843  0.00  0.00    -0.284 N 
ATOM     19  C   UNL     1       0.255  -5.649  -4.681  0.00  0.00    +0.044 A 
ATOM     20  C   UNL     1      -0.852  -6.507  -4.667  0.00  0.00    +0.069 A 
ATOM     21  H   UNL     1       0.429  -5.651  -6.663  0.00  0.00    +0.155 HD
BRANCH  10  23
ATOM     22  C   UNL     1      -3.087  -8.046  -2.237  0.00  0.00    +0.277 C 
ATOM     23  O   UNL     1      -2.510  -7.697  -3.497  0.00  0.00    -0.495 OA
ENDBRANCH  10  23
ENDBRANCH   1  15
BRANCH   2  24
ATOM     24  N   UNL     1       2.726  -6.497  -4.339  0.00  0.00    +0.395 N 
ATOM     25  H   UNL     1       2.282  -6.196  -3.485  0.00  0.00    -0.083 HD
ATOM     26  H   UNL     1       2.166  -6.211  -5.128  0.00  0.00    -0.083 HD
BRANCH  24  27
ATOM     27  C   UNL     1       2.854  -7.960  -4.335  0.00  0.00    -0.048 C 
BRANCH  27  28
ATOM     28  C   UNL     1       1.463  -8.595  -4.385  0.00  0.00    +0.101 C 
ATOM     29  C   UNL     1       1.582 -10.129  -4.258  0.00  0.00    +0.032 C 
ATOM     30  C   UNL     1       0.504 -10.626  -5.259  0.00  0.00    +0.030 C 
ATOM     31  C   UNL     1       0.593  -9.534  -6.355  0.00  0.00    +0.160 C 
ATOM     32  O   UNL     1       0.843  -8.309  -5.644  0.00  0.00    -0.378 OA
ENDBRANCH  27  28
ENDBRANCH  24  27
ENDBRANCH   2  24
TORSDOF 5
