REMARK  Name = ZINC04811808
REMARK  4 active torsions:
REMARK  status: ('A' for Active; 'I' for Inactive)
REMARK    1  A    between atoms: N_6  and  C_9
REMARK    2  A    between atoms: C_9  and  P_10
REMARK    3  A    between atoms: P_10  and  C_12
REMARK    4  A    between atoms: P_10  and  O_19
REMARK                            x       y       z     vdW  Elec       q    Type
REMARK                         _______ _______ _______ _____ _____    ______ ____
ROOT
ATOM      1  P   UNL     1      -0.894   1.690  -1.469  0.00  0.00    +0.226 P 
ATOM      2  O   UNL     1      -0.914   3.170  -1.461  0.00  0.00    -0.289 OA
ENDROOT
BRANCH   1   3
ATOM      3  C   UNL     1      -0.041   1.102  -2.969  0.00  0.00    +0.125 C 
ATOM      4  C   UNL     1      -0.764   1.601  -4.240  0.00  0.00    +0.137 C 
ATOM      5  C   UNL     1      -0.819   0.369  -5.125  0.00  0.00    +0.308 C 
ATOM      6  O   UNL     1      -0.804   0.352  -6.333  0.00  0.00    -0.251 OA
ATOM      7  O   UNL     1      -0.887  -0.700  -4.311  0.00  0.00    -0.464 OA
ATOM      8  C   UNL     1      -0.144  -0.433  -3.088  0.00  0.00    +0.246 C 
ENDBRANCH   1   3
BRANCH   1   9
ATOM      9  O   UNL     1      -2.405   1.132  -1.458  0.00  0.00    -0.342 OA
ATOM     10  H   UNL     1      -2.468   0.168  -1.462  0.00  0.00    +0.218 HD
ENDBRANCH   1   9
BRANCH   1  11
ATOM     11  C   UNL     1      -0.013   1.086   0.008  0.00  0.00    +0.205 C 
BRANCH  11  17
ATOM     12  C   UNL     1      -3.415   2.448   2.628  0.00  0.00    +0.002 C 
ATOM     13  C   UNL     1      -2.481   3.644   2.615  0.00  0.00    +0.009 C 
ATOM     14  C   UNL     1      -1.060   3.227   3.000  0.00  0.00    +0.096 C 
ATOM     15  C   UNL     1      -0.349   2.723   1.760  0.00  0.00    +0.216 C 
ATOM     16  O   UNL     1       0.537   3.384   1.261  0.00  0.00    -0.276 OA
ATOM     17  N   UNL     1      -0.698   1.558   1.213  0.00  0.00    -0.292 N 
ATOM     18  C   UNL     1      -1.764   0.741   1.816  0.00  0.00    +0.108 C 
ATOM     19  C   UNL     1      -3.110   1.420   1.554  0.00  0.00    +0.019 C 
ENDBRANCH  11  17
ENDBRANCH   1  11
TORSDOF 4
