REMARK  Name = ZINC40782033
REMARK  5 active torsions:
REMARK  status: ('A' for Active; 'I' for Inactive)
REMARK    1  A    between atoms: C_1  and  C_2
REMARK    2  A    between atoms: C_5  and  N_8
REMARK    3  A    between atoms: C_10  and  N_26
REMARK    4  A    between atoms: C_11  and  N_15
REMARK    5  A    between atoms: C_19  and  C_25
REMARK                            x       y       z     vdW  Elec       q    Type
REMARK                         _______ _______ _______ _____ _____    ______ ____
ROOT
ATOM      1  N   UNL     1       0.058  -4.168  -0.021  0.00  0.00    -0.298 N 
ATOM      2  C   UNL     1       0.178  -4.868   1.174  0.00  0.00    +0.149 A 
ATOM      3  C   UNL     1       0.308  -6.259   1.171  0.00  0.00    +0.106 A 
ATOM      4  C   UNL     1       0.425  -6.912   2.399  0.00  0.00    +0.150 A 
ATOM      5  N   UNL     1       0.409  -6.191   3.518  0.00  0.00    -0.219 NA
ATOM      6  C   UNL     1       0.284  -4.880   3.476  0.00  0.00    +0.225 A 
ATOM      7  N   UNL     1       0.177  -4.224   2.338  0.00  0.00    -0.219 NA
ATOM      8  H   UNL     1      -0.017  -4.649  -0.860  0.00  0.00    +0.154 HD
ENDROOT
BRANCH   4   9
ATOM      9  N   UNL     1       0.557  -8.297   2.454  0.00  0.00    -0.277 N 
ATOM     10  C   UNL     1       0.672  -8.932   3.675  0.00  0.00    +0.165 A 
ATOM     11  N   UNL     1       0.808 -10.214   3.927  0.00  0.00    -0.224 NA
ATOM     12  C   UNL     1       0.910 -10.700   5.183  0.00  0.00    +0.083 A 
ATOM     13  C   UNL     1       1.060 -12.046   5.589  0.00  0.00    -0.024 A 
ATOM     14  C   UNL     1       1.148 -12.371   6.918  0.00  0.00    +0.005 A 
ATOM     15  C   UNL     1       1.096 -11.400   7.907  0.00  0.00    +0.001 A 
ATOM     16  C   UNL     1       0.951 -10.073   7.545  0.00  0.00    +0.017 A 
ATOM     17  C   UNL     1       0.861  -9.738   6.218  0.00  0.00    +0.041 A 
ATOM     18  S   UNL     1       0.681  -8.219   5.314  0.00  0.00    -0.052 S 
ATOM     19  C   UNL     1       1.121 -13.136   4.550  0.00  0.00    +0.046 C 
ATOM     20  H   UNL     1       0.568  -8.815   1.634  0.00  0.00    +0.156 HD
ENDBRANCH   4   9
BRANCH   1  25
ATOM     21  C   UNL     1       0.010   1.503   0.007  0.00  0.00    +0.044 C 
ATOM     22  C   UNL     1       0.023  -0.004  -0.000  0.00  0.00    -0.050 A 
ATOM     23  C   UNL     1       0.771  -0.692   0.938  0.00  0.00    +0.005 A 
ATOM     24  C   UNL     1       0.784  -2.073   0.934  0.00  0.00    +0.023 A 
ATOM     25  C   UNL     1       0.046  -2.771  -0.014  0.00  0.00    +0.032 A 
ATOM     26  C   UNL     1      -0.704  -2.076  -0.955  0.00  0.00    +0.023 A 
ATOM     27  C   UNL     1      -0.718  -0.695  -0.941  0.00  0.00    +0.005 A 
ENDBRANCH   1  25
BRANCH   3  28
ATOM     28  N   UNL     1       0.320  -6.980  -0.033  0.00  0.00    -0.353 N 
ATOM     29  H   UNL     1       0.237  -6.512  -0.879  0.00  0.00    +0.143 HD
ATOM     30  H   UNL     1       0.411  -7.945  -0.019  0.00  0.00    +0.143 HD
ENDBRANCH   3  28
TORSDOF 3
