REMARK  Name = ZINC65145936
REMARK  5 active torsions:
REMARK  status: ('A' for Active; 'I' for Inactive)
REMARK    1  A    between atoms: C_4  and  C_20
REMARK    2  A    between atoms: C_5  and  C_7
REMARK    3  A    between atoms: N_9  and  N_10
REMARK    4  A    between atoms: N_13  and  C_14
REMARK    5  A    between atoms: C_14  and  C_15
REMARK                            x       y       z     vdW  Elec       q    Type
REMARK                         _______ _______ _______ _____ _____    ______ ____
ROOT
ATOM      1  C   UNL     1       0.380  -1.770   1.153  0.00  0.00    +0.233 C 
ATOM      2  O   UNL     1       1.329  -2.523   1.113  0.00  0.00    -0.274 OA
ATOM      3  N   UNL     1      -0.874  -2.262   1.094  0.00  0.00    -0.233 N 
ATOM      4  H   UNL     1      -1.633  -1.659   1.125  0.00  0.00    +0.173 HD
ENDROOT
BRANCH   1   9
ATOM      5  C   UNL     1       1.670   1.709   0.207  0.00  0.00    +0.001 C 
ATOM      6  C   UNL     1       2.401   2.015   1.516  0.00  0.00    +0.001 C 
ATOM      7  C   UNL     1       1.556   1.531   2.696  0.00  0.00    +0.013 C 
ATOM      8  C   UNL     1       1.332   0.022   2.578  0.00  0.00    +0.105 C 
ATOM      9  C   UNL     1       0.601  -0.284   1.269  0.00  0.00    +0.088 C 
ATOM     10  C   UNL     1       1.445   0.200   0.089  0.00  0.00    +0.013 C 
BRANCH   8  11
ATOM     11  C   UNL     1       0.487  -0.461   3.759  0.00  0.00    +0.394 C 
ATOM     12  F   UNL     1      -0.793   0.097   3.676  0.00  0.00    -0.170 F 
ATOM     13  F   UNL     1       0.391  -1.857   3.723  0.00  0.00    -0.170 F 
ATOM     14  F   UNL     1       1.091  -0.066   4.957  0.00  0.00    -0.170 F 
ENDBRANCH   8  11
ENDBRANCH   1   9
BRANCH   3  15
ATOM     15  N   UNL     1      -1.079  -3.643   0.986  0.00  0.00    -0.218 N 
ATOM     16  C   UNL     1      -2.333  -4.136   0.926  0.00  0.00    +0.316 C 
ATOM     17  O   UNL     1      -2.511  -5.335   0.832  0.00  0.00    -0.251 OA
ATOM     18  N   UNL     1      -3.388  -3.299   0.970  0.00  0.00    -0.296 N 
ATOM     19  H   UNL     1      -0.320  -4.246   0.954  0.00  0.00    +0.174 HD
ATOM     20  H   UNL     1      -3.246  -2.342   1.045  0.00  0.00    +0.150 HD
BRANCH  18  21
ATOM     21  C   UNL     1      -4.751  -3.833   0.906  0.00  0.00    +0.137 C 
BRANCH  21  22
ATOM     22  C   UNL     1      -5.755  -2.681   0.975  0.00  0.00    +0.135 C 
ATOM     23  C   UNL     1      -7.192  -3.241   1.023  0.00  0.00    +0.035 C 
ATOM     24  C   UNL     1      -7.966  -2.243   0.120  0.00  0.00    +0.031 C 
ATOM     25  C   UNL     1      -6.882  -1.897  -0.932  0.00  0.00    +0.160 C 
ATOM     26  O   UNL     1      -5.646  -1.870  -0.201  0.00  0.00    -0.375 OA
ENDBRANCH  21  22
ENDBRANCH  18  21
ENDBRANCH   3  15
TORSDOF 5
