REMARK  Name = ZINC20207886
REMARK  11 active torsions:
REMARK  status: ('A' for Active; 'I' for Inactive)
REMARK    1  A    between atoms: C_1  and  C_2
REMARK    2  A    between atoms: C_6  and  O_9
REMARK    3  A    between atoms: C_7  and  C_8
REMARK    4  A    between atoms: O_9  and  C_10
REMARK    5  A    between atoms: C_10  and  C_11
REMARK    6  A    between atoms: C_11  and  C_12
REMARK    7  A    between atoms: C_12  and  O_13
REMARK    8  A    between atoms: O_13  and  C_14
REMARK    9  A    between atoms: C_17  and  C_20
REMARK   10  A    between atoms: C_30  and  S_32
REMARK   11  A    between atoms: S_32  and  C_35
REMARK                            x       y       z     vdW  Elec       q    Type
REMARK                         _______ _______ _______ _____ _____    ______ ____
ROOT
ATOM      1  C   UNL     1       0.087  -8.341   5.226  0.00  0.00    +0.121 A 
ATOM      2  C   UNL     1      -0.152  -9.098   4.083  0.00  0.00    +0.046 A 
ATOM      3  C   UNL     1      -0.065 -10.460   4.132  0.00  0.00    +0.011 A 
ATOM      4  C   UNL     1       0.265 -11.096   5.337  0.00  0.00    -0.024 A 
ATOM      5  C   UNL     1       0.505 -10.328   6.485  0.00  0.00    +0.011 A 
ATOM      6  C   UNL     1       0.421  -8.966   6.423  0.00  0.00    +0.046 A 
ENDROOT
BRANCH   4   7
ATOM      7  C   UNL     1       0.359 -12.557   5.396  0.00  0.00    +0.024 C 
ATOM      8  C   UNL     1       0.796 -13.263   4.298  0.00  0.00    +0.081 C 
ATOM      9  C   UNL     1       1.356 -12.581   3.097  0.00  0.00    +0.153 C 
ATOM     10  N   UNL     1       2.040 -11.470   3.156  0.00  0.00    -0.283 NA
ATOM     11  N   UNL     1       1.073 -13.254   1.889  0.00  0.00    -0.150 N 
ATOM     12  C   UNL     1       0.798 -14.603   1.960  0.00  0.00    +0.182 C 
ATOM     13  N   UNL     1       0.672 -15.336   3.038  0.00  0.00    -0.152 NA
ATOM     14  C   UNL     1       0.741 -14.746   4.250  0.00  0.00    +0.273 C 
ATOM     15  O   UNL     1       0.754 -15.409   5.275  0.00  0.00    -0.268 OA
ATOM     16  S   UNL     1       0.647 -15.042   0.249  0.00  0.00    -0.015 S 
ATOM     17  C   UNL     1       0.855 -13.403  -0.433  0.00  0.00    +0.235 C 
ATOM     18  N   UNL     1       1.057 -12.684   0.634  0.00  0.00    -0.145 NA
ATOM     19  H   UNL     1       2.383 -11.068   2.343  0.00  0.00    +0.188 HD
BRANCH  17  20
ATOM     20  S   UNL     1       0.801 -12.892  -2.118  0.00  0.00    +0.019 S 
ATOM     21  O   UNL     1      -0.113 -13.785  -2.739  0.00  0.00    -0.168 OA
ATOM     22  O   UNL     1       0.529 -11.498  -2.065  0.00  0.00    -0.168 OA
ATOM     23  C   UNL     1       2.479 -13.177  -2.746  0.00  0.00    +0.202 C 
ENDBRANCH  17  20
ENDBRANCH   4   7
BRANCH   1  24
ATOM     24  O   UNL     1      -0.001  -6.989   5.171  0.00  0.00    -0.492 OA
BRANCH  24  25
ATOM     25  C   UNL     1      -0.348  -6.411   3.911  0.00  0.00    +0.232 C 
BRANCH  25  26
ATOM     26  C   UNL     1      -0.399  -4.888   4.044  0.00  0.00    +0.082 C 
BRANCH  26  27
ATOM     27  C   UNL     1      -0.770  -4.270   2.694  0.00  0.00    +0.232 C 
BRANCH  27  28
ATOM     28  O   UNL     1      -0.817  -2.847   2.819  0.00  0.00    -0.492 OA
BRANCH  28  34
ATOM     29  C   UNL     1      -1.593   1.465   0.669  0.00  0.00    +0.044 C 
ATOM     30  C   UNL     1      -1.523  -0.039   0.616  0.00  0.00    -0.044 A 
ATOM     31  C   UNL     1      -1.784  -0.702  -0.570  0.00  0.00    +0.004 A 
ATOM     32  C   UNL     1      -1.721  -2.082  -0.621  0.00  0.00    +0.004 A 
ATOM     33  C   UNL     1      -1.397  -2.803   0.512  0.00  0.00    +0.046 A 
ATOM     34  C   UNL     1      -1.136  -2.140   1.702  0.00  0.00    +0.124 A 
ATOM     35  C   UNL     1      -1.194  -0.755   1.750  0.00  0.00    -0.006 A 
ATOM     36  C   UNL     1      -0.903  -0.032   3.040  0.00  0.00    +0.048 C 
ENDBRANCH  28  34
ENDBRANCH  27  28
ENDBRANCH  26  27
ENDBRANCH  25  26
ENDBRANCH  24  25
ENDBRANCH   1  24
TORSDOF 8
