REMARK  Name = ZINC18102765
REMARK  9 active torsions:
REMARK  status: ('A' for Active; 'I' for Inactive)
REMARK    1  A    between atoms: C_1  and  C_2
REMARK    2  A    between atoms: C_6  and  O_9
REMARK    3  A    between atoms: C_7  and  C_8
REMARK    4  A    between atoms: O_9  and  C_10
REMARK    5  A    between atoms: C_10  and  C_12
REMARK    6  A    between atoms: C_10  and  C_13
REMARK    7  A    between atoms: N_15  and  N_16
REMARK    8  A    between atoms: C_17  and  C_19
REMARK    9  A    between atoms: N_28  and  C_30
REMARK                            x       y       z     vdW  Elec       q    Type
REMARK                         _______ _______ _______ _____ _____    ______ ____
ROOT
ATOM      1  N   UNL     1       1.944   5.810   1.328  0.00  0.00    -0.229 N 
ATOM      2  C   UNL     1       2.850   6.773   1.589  0.00  0.00    +0.281 C 
ATOM      3  O   UNL     1       3.912   6.784   0.998  0.00  0.00    -0.267 OA
ATOM      4  H   UNL     1       1.096   5.801   1.799  0.00  0.00    +0.173 HD
ENDROOT
BRANCH   2   5
ATOM      5  C   UNL     1       2.553   7.814   2.592  0.00  0.00    +0.155 A 
ATOM      6  C   UNL     1       3.538   8.866   2.889  0.00  0.00    +0.020 A 
ATOM      7  C   UNL     1       4.770   8.945   2.249  0.00  0.00    +0.011 A 
ATOM      8  C   UNL     1       5.638   9.965   2.577  0.00  0.00    +0.001 A 
ATOM      9  C   UNL     1       5.294  10.913   3.532  0.00  0.00    +0.001 A 
ATOM     10  C   UNL     1       4.075  10.855   4.174  0.00  0.00    +0.014 A 
ATOM     11  C   UNL     1       3.185   9.834   3.857  0.00  0.00    +0.051 A 
ATOM     12  C   UNL     1       1.867   9.698   4.492  0.00  0.00    +0.280 A 
ATOM     13  O   UNL     1       1.499  10.493   5.338  0.00  0.00    -0.265 OA
ATOM     14  N   UNL     1       1.075   8.673   4.117  0.00  0.00    -0.196 N 
ATOM     15  N   UNL     1       1.409   7.809   3.235  0.00  0.00    -0.158 NA
BRANCH  14  16
ATOM     16  C   UNL     1      -0.179   8.549   4.724  0.00  0.00    +0.069 A 
ATOM     17  C   UNL     1      -0.290   8.599   6.108  0.00  0.00    +0.028 A 
ATOM     18  C   UNL     1      -1.530   8.482   6.704  0.00  0.00    +0.002 A 
ATOM     19  C   UNL     1      -2.659   8.303   5.926  0.00  0.00    +0.000 A 
ATOM     20  C   UNL     1      -2.551   8.247   4.548  0.00  0.00    +0.002 A 
ATOM     21  C   UNL     1      -1.315   8.369   3.945  0.00  0.00    +0.028 A 
ENDBRANCH  14  16
ENDBRANCH   2   5
BRANCH   1  24
ATOM     22  C   UNL     1       1.320   3.859   0.114  0.00  0.00    +0.270 C 
ATOM     23  O   UNL     1       0.260   3.848   0.704  0.00  0.00    -0.270 OA
ATOM     24  N   UNL     1       2.226   4.822   0.375  0.00  0.00    -0.231 N 
ATOM     25  H   UNL     1       3.074   4.831  -0.096  0.00  0.00    +0.173 HD
BRANCH  22  26
ATOM     26  C   UNL     1       1.623   2.796  -0.910  0.00  0.00    +0.257 C 
ATOM     27  C   UNL     1       1.866   3.454  -2.270  0.00  0.00    +0.062 C 
BRANCH  26  28
ATOM     28  O   UNL     1       0.516   1.898  -1.007  0.00  0.00    -0.480 OA
BRANCH  28  34
ATOM     29  C   UNL     1      -1.047  -2.635  -1.918  0.00  0.00    +0.044 C 
ATOM     30  C   UNL     1       0.046  -1.598  -1.900  0.00  0.00    -0.044 A 
ATOM     31  C   UNL     1       1.320  -1.928  -2.325  0.00  0.00    +0.004 A 
ATOM     32  C   UNL     1       2.324  -0.979  -2.309  0.00  0.00    +0.004 A 
ATOM     33  C   UNL     1       2.056   0.305  -1.874  0.00  0.00    +0.046 A 
ATOM     34  C   UNL     1       0.781   0.637  -1.441  0.00  0.00    +0.125 A 
ATOM     35  C   UNL     1      -0.225  -0.318  -1.458  0.00  0.00    -0.006 A 
ATOM     36  C   UNL     1      -1.613   0.042  -0.994  0.00  0.00    +0.048 C 
ENDBRANCH  28  34
ENDBRANCH  26  28
ENDBRANCH  22  26
ENDBRANCH   1  24
TORSDOF 6
