REMARK  Name = ZINC63830710
REMARK  9 active torsions:
REMARK  status: ('A' for Active; 'I' for Inactive)
REMARK    1  A    between atoms: C_1  and  N_2
REMARK    2  A    between atoms: N_2  and  C_3
REMARK    3  A    between atoms: N_2  and  S_25
REMARK    4  A    between atoms: C_3  and  C_4
REMARK    5  A    between atoms: N_6  and  C_7
REMARK    6  A    between atoms: C_7  and  C_8
REMARK    7  A    between atoms: C_8  and  C_10
REMARK    8  A    between atoms: C_8  and  C_16
REMARK    9  A    between atoms: S_25  and  C_28
REMARK                            x       y       z     vdW  Elec       q    Type
REMARK                         _______ _______ _______ _____ _____    ______ ____
ROOT
ATOM      1  C   UNL     1      -1.413  -1.349   1.547  0.00  0.00    +0.229 C 
ATOM      2  O   UNL     1      -2.342  -1.214   0.780  0.00  0.00    -0.274 OA
ATOM      3  N   UNL     1      -1.637  -1.756   2.812  0.00  0.00    -0.314 N 
ATOM      4  H   UNL     1      -0.893  -1.864   3.426  0.00  0.00    +0.149 HD
ENDROOT
BRANCH   1   5
ATOM      5  C   UNL     1      -0.007  -1.060   1.087  0.00  0.00    +0.204 C 
BRANCH   5   7
ATOM      6  C   UNL     1      -0.279   0.767  -0.653  0.00  0.00    +0.132 C 
ATOM      7  N   UNL     1      -0.030  -0.637  -0.316  0.00  0.00    -0.171 NA
BRANCH   7   8
ATOM      8  S   UNL     1       0.225  -1.745  -1.520  0.00  0.00    +0.061 S 
ATOM      9  O   UNL     1      -0.120  -3.015  -0.983  0.00  0.00    -0.153 OA
ATOM     10  O   UNL     1      -0.387  -1.221  -2.690  0.00  0.00    -0.153 OA
BRANCH   8  11
ATOM     11  C   UNL     1       1.959  -1.785  -1.832  0.00  0.00    +0.106 A 
ATOM     12  C   UNL     1       2.511  -0.935  -2.772  0.00  0.00    +0.030 A 
ATOM     13  C   UNL     1       3.871  -0.966  -3.017  0.00  0.00    +0.022 A 
ATOM     14  C   UNL     1       4.679  -1.848  -2.323  0.00  0.00    +0.041 A 
ATOM     15  C   UNL     1       4.126  -2.699  -1.383  0.00  0.00    +0.022 A 
ATOM     16  C   UNL     1       2.767  -2.663  -1.134  0.00  0.00    +0.030 A 
ATOM     17 CL   UNL     1       6.387  -1.887  -2.631  0.00  0.00    -0.084 Cl
ENDBRANCH   8  11
ENDBRANCH   7   8
ENDBRANCH   5   7
ENDBRANCH   1   5
BRANCH   3  18
ATOM     18  C   UNL     1      -3.003  -2.037   3.260  0.00  0.00    +0.113 C 
BRANCH  18  19
ATOM     19  C   UNL     1      -2.968  -2.601   4.682  0.00  0.00    +0.048 C 
BRANCH  19  20
ATOM     20  C   UNL     1      -2.276  -3.940   4.674  0.00  0.00    -0.036 C 
ATOM     21  C   UNL     1      -1.159  -4.282   5.355  0.00  0.00    -0.001 A 
ATOM     22  C   UNL     1      -0.287  -3.538   6.272  0.00  0.00    +0.010 A 
ATOM     23  C   UNL     1       0.784  -4.164   6.811  0.00  0.00    +0.001 A 
ATOM     24  C   UNL     1       1.082  -5.502   6.516  0.00  0.00    +0.002 A 
ATOM     25  C   UNL     1       0.328  -6.250   5.684  0.00  0.00    +0.026 A 
ATOM     26  C   UNL     1      -0.823  -5.693   5.061  0.00  0.00    +0.043 A 
ATOM     27  N   UNL     1      -1.699  -6.204   4.229  0.00  0.00    -0.380 N 
ATOM     28  C   UNL     1      -2.694  -5.175   3.907  0.00  0.00    +0.145 C 
ATOM     29  H   UNL     1      -1.693  -7.112   3.888  0.00  0.00    +0.160 HD
ENDBRANCH  19  20
BRANCH  19  30
ATOM     30  C   UNL     1      -4.398  -2.770   5.199  0.00  0.00    +0.063 C 
ATOM     31  C   UNL     1      -5.084  -1.398   5.433  0.00  0.00    +0.042 C 
ATOM     32  C   UNL     1      -5.927  -1.431   6.667  0.00  0.00    -0.019 C 
ATOM     33  C   UNL     1      -5.737  -2.376   7.567  0.00  0.00    +0.036 C 
ATOM     34  S   UNL     1      -4.421  -3.400   6.930  0.00  0.00    -0.129 S 
ENDBRANCH  19  30
ENDBRANCH  18  19
ENDBRANCH   3  18
TORSDOF 8
