REMARK  Name = ZINC56946799
REMARK  12 active torsions:
REMARK  status: ('A' for Active; 'I' for Inactive)
REMARK    1  A    between atoms: C_1  and  C_2
REMARK    2  A    between atoms: C_2  and  C_3
REMARK    3  A    between atoms: C_3  and  C_5
REMARK    4  A    between atoms: C_3  and  N_6
REMARK    5  A    between atoms: C_7  and  C_9
REMARK    6  A    between atoms: C_9  and  N_10
REMARK    7  A    between atoms: N_18  and  C_19
REMARK    8  A    between atoms: C_19  and  C_21
REMARK    9  A    between atoms: C_19  and  C_22
REMARK   10  A    between atoms: C_22  and  N_23
REMARK   11  A    between atoms: C_25  and  C_32
REMARK   12  A    between atoms: C_28  and  C_31
REMARK                            x       y       z     vdW  Elec       q    Type
REMARK                         _______ _______ _______ _____ _____    ______ ____
ROOT
ATOM      1  N   UNL     1       0.727   0.885   5.881  0.00  0.00    -0.291 NA
ATOM      2  C   UNL     1       1.741   1.942   5.776  0.00  0.00    +0.104 C 
ATOM      3  C   UNL     1       2.781   1.758   6.887  0.00  0.00    +0.124 C 
ATOM      4  N   UNL     1       2.080   1.695   8.178  0.00  0.00    -0.283 N 
ATOM      5  C   UNL     1       0.958   0.753   8.315  0.00  0.00    +0.124 C 
ATOM      6  C   UNL     1      -0.010   0.976   7.148  0.00  0.00    +0.104 C 
ATOM      7  C   UNL     1       2.455   2.478   9.209  0.00  0.00    +0.302 C 
ATOM      8  O   UNL     1       3.440   3.184   9.108  0.00  0.00    -0.253 OA
ATOM      9  N   UNL     1       1.738   2.479  10.350  0.00  0.00    -0.298 N 
ATOM     10  H   UNL     1       0.994   1.867  10.456  0.00  0.00    +0.150 HD
ENDROOT
BRANCH   9  11
ATOM     11  C   UNL     1       2.085   3.405  11.431  0.00  0.00    +0.055 C 
ATOM     12  C   UNL     1       1.361   4.736  11.215  0.00  0.00    +0.026 C 
BRANCH  11  13
ATOM     13  C   UNL     1       1.659   2.804  12.773  0.00  0.00    -0.057 C 
BRANCH  13  14
ATOM     14  N   UNL     1       2.272   1.480  12.933  0.00  0.00    +0.381 N 
ATOM     15  C   UNL     1       1.746   0.842  14.146  0.00  0.00    -0.076 C 
ATOM     16  C   UNL     1       2.321  -0.571  14.274  0.00  0.00    -0.031 C 
ATOM     17  C   UNL     1       3.848  -0.489  14.360  0.00  0.00    +0.003 C 
ATOM     18  C   UNL     1       4.380   0.244  13.125  0.00  0.00    -0.031 C 
ATOM     19  C   UNL     1       3.729   1.626  13.039  0.00  0.00    -0.076 C 
ATOM     20  C   UNL     1       5.898   0.399  13.238  0.00  0.00    +0.005 C 
ATOM     21  C   UNL     1       1.772  -1.232  15.540  0.00  0.00    +0.005 C 
ATOM     22  H   UNL     1       2.050   0.908  12.132  0.00  0.00    -0.082 HD
ENDBRANCH  13  14
ENDBRANCH  11  13
ENDBRANCH   9  11
BRANCH   1  23
ATOM     23  C   UNL     1      -0.192   0.922   4.734  0.00  0.00    +0.180 C 
BRANCH  23  25
ATOM     24  N   UNL     1      -0.080   0.554   2.291  0.00  0.00    -0.312 N 
ATOM     25  C   UNL     1       0.563   0.582   3.475  0.00  0.00    +0.227 C 
ATOM     26  O   UNL     1       1.749   0.333   3.527  0.00  0.00    -0.274 OA
ATOM     27  H   UNL     1      -1.028   0.752   2.249  0.00  0.00    +0.149 HD
BRANCH  24  28
ATOM     28  C   UNL     1       0.654   0.223   1.067  0.00  0.00    +0.070 C 
ATOM     29  C   UNL     1       0.714  -1.297   0.903  0.00  0.00    +0.028 C 
BRANCH  28  31
ATOM     30  C   UNL     1      -0.013   2.363  -0.037  0.00  0.00    +0.005 C 
ATOM     31  C   UNL     1      -0.062   0.837  -0.138  0.00  0.00    +0.018 C 
ENDBRANCH  28  31
ENDBRANCH  24  28
ENDBRANCH  23  25
ENDBRANCH   1  23
TORSDOF 7
