REMARK  Name = ZINC59248521
REMARK  6 active torsions:
REMARK  status: ('A' for Active; 'I' for Inactive)
REMARK    1  A    between atoms: C_1  and  C_2
REMARK    2  A    between atoms: C_7  and  N_8
REMARK    3  A    between atoms: C_14  and  C_15
REMARK    4  A    between atoms: C_18  and  O_22
REMARK    5  A    between atoms: O_22  and  C_23
REMARK    6  A    between atoms: C_23  and  C_24
REMARK                            x       y       z     vdW  Elec       q    Type
REMARK                         _______ _______ _______ _____ _____    ______ ____
ROOT
ATOM      1  N   UNL     1      -1.243  -0.269   2.386  0.00  0.00    -0.225 NA
ATOM      2  C   UNL     1      -1.006  -0.880   3.525  0.00  0.00    +0.166 C 
ATOM      3  N   UNL     1      -0.799  -2.223   3.750  0.00  0.00    -0.260 N 
ATOM      4  C   UNL     1      -0.571  -2.675   4.972  0.00  0.00    +0.256 C 
ATOM      5  O   UNL     1      -0.385  -3.858   5.189  0.00  0.00    -0.269 OA
ATOM      6  C   UNL     1      -0.552  -1.679   6.061  0.00  0.00    +0.078 C 
ATOM      7  C   UNL     1      -0.346  -1.860   7.390  0.00  0.00    +0.028 C 
ATOM      8  S   UNL     1      -0.867  -0.170   5.157  0.00  0.00    -0.049 S 
ATOM      9  H   UNL     1      -0.820  -2.844   3.005  0.00  0.00    +0.157 HD
ENDROOT
BRANCH   1  16
ATOM     10  C   UNL     1       0.032   0.652   0.019  0.00  0.00    +0.046 C 
ATOM     11  C   UNL     1      -0.817  -0.593   0.050  0.00  0.00    -0.025 A 
ATOM     12  C   UNL     1      -0.995  -1.337  -1.098  0.00  0.00    +0.005 A 
ATOM     13  C   UNL     1      -1.774  -2.480  -1.071  0.00  0.00    +0.000 A 
ATOM     14  C   UNL     1      -2.379  -2.886   0.105  0.00  0.00    +0.002 A 
ATOM     15  C   UNL     1      -2.210  -2.152   1.260  0.00  0.00    +0.028 A 
ATOM     16  C   UNL     1      -1.420  -0.999   1.242  0.00  0.00    +0.069 A 
ENDBRANCH   1  16
BRANCH   7  17
ATOM     17  C   UNL     1      -0.552  -0.746   8.324  0.00  0.00    -0.022 A 
ATOM     18  C   UNL     1      -1.155   0.438   7.882  0.00  0.00    +0.011 A 
ATOM     19  C   UNL     1      -1.347   1.480   8.761  0.00  0.00    +0.048 A 
ATOM     20  C   UNL     1      -0.942   1.359  10.085  0.00  0.00    +0.140 A 
ATOM     21  C   UNL     1      -0.342   0.186  10.530  0.00  0.00    +0.083 A 
ATOM     22  C   UNL     1      -0.151  -0.865   9.660  0.00  0.00    +0.031 A 
ATOM     23 CL   UNL     1       0.163   0.044  12.185  0.00  0.00    -0.080 Cl
BRANCH  20  24
ATOM     24  O   UNL     1      -1.133   2.391  10.948  0.00  0.00    -0.479 OA
BRANCH  24  25
ATOM     25  C   UNL     1      -1.754   3.567  10.426  0.00  0.00    +0.353 C 
BRANCH  25  26
ATOM     26  C   UNL     1      -1.882   4.595  11.520  0.00  0.00    +0.393 C 
ATOM     27  O   UNL     1      -1.478   4.345  12.643  0.00  0.00    -0.243 OA
ATOM     28  O   UNL     1      -2.389   5.678  11.282  0.00  0.00    -0.243 OA
ENDBRANCH  25  26
ENDBRANCH  24  25
ENDBRANCH  20  24
ENDBRANCH   7  17
TORSDOF 5
