REMARK  Name = ZINC59197402
REMARK  6 active torsions:
REMARK  status: ('A' for Active; 'I' for Inactive)
REMARK    1  A    between atoms: C_3  and  C_14
REMARK    2  A    between atoms: C_5  and  C_6
REMARK    3  A    between atoms: N_7  and  N_8
REMARK    4  A    between atoms: C_9  and  C_11
REMARK    5  A    between atoms: C_11  and  C_12
REMARK    6  A    between atoms: C_16  and  N_22
REMARK                            x       y       z     vdW  Elec       q    Type
REMARK                         _______ _______ _______ _____ _____    ______ ____
ROOT
ATOM      1  C   UNL     1      -0.018   1.465   0.010  0.00  0.00    +0.051 A 
ATOM      2  C   UNL     1       1.278   1.871  -0.000  0.00  0.00    +0.050 A 
ATOM      3  C   UNL     1       2.100   0.663  -0.014  0.00  0.00    +0.136 A 
ATOM      4  O   UNL     1       1.289  -0.409  -0.012  0.00  0.00    -0.454 OA
ATOM      5  C   UNL     1       0.002  -0.004   0.002  0.00  0.00    +0.148 A 
ENDROOT
BRANCH   3   6
ATOM      6  C   UNL     1       3.516   0.628  -0.029  0.00  0.00    +0.021 A 
ATOM      7  C   UNL     1       4.195  -0.607  -0.048  0.00  0.00    +0.045 A 
ATOM      8  C   UNL     1       5.559  -0.630  -0.061  0.00  0.00    +0.142 A 
ATOM      9  C   UNL     1       6.280   0.557  -0.056  0.00  0.00    +0.066 A 
ATOM     10  C   UNL     1       5.621   1.781  -0.037  0.00  0.00    +0.058 A 
ATOM     11  C   UNL     1       4.255   1.827  -0.030  0.00  0.00    +0.032 A 
ATOM     12 CL   UNL     1       6.535   3.257  -0.031  0.00  0.00    -0.082 Cl
ATOM     13 BR   UNL     1       8.170   0.509  -0.073  0.00  0.00    -0.046 Br
BRANCH   8  14
ATOM     14  N   UNL     1       6.274  -1.926  -0.081  0.00  0.00    +0.058 N 
ATOM     15  O   UNL     1       5.594  -3.054  -0.085  0.00  0.00    -0.126 OA
ATOM     16  O   UNL     1       7.591  -1.952  -0.094  0.00  0.00    -0.126 OA
ENDBRANCH   8  14
ENDBRANCH   3   6
BRANCH   5  17
ATOM     17  C   UNL     1      -1.112  -0.833   0.009  0.00  0.00    +0.176 C 
ATOM     18  N   UNL     1      -0.959  -2.151   0.000  0.00  0.00    -0.185 NA
BRANCH  18  19
ATOM     19  N   UNL     1      -1.994  -2.921   0.006  0.00  0.00    -0.206 N 
ATOM     20  C   UNL     1      -1.837  -4.260  -0.003  0.00  0.00    +0.246 C 
ATOM     21  O   UNL     1      -0.728  -4.739  -0.016  0.00  0.00    -0.273 OA
ATOM     22  H   UNL     1      -2.884  -2.537   0.017  0.00  0.00    +0.177 HD
BRANCH  20  23
ATOM     23  C   UNL     1      -3.046  -5.160   0.005  0.00  0.00    +0.215 C 
BRANCH  23  24
ATOM     24  C   UNL     1      -2.611  -6.566  -0.007  0.00  0.00    +0.072 C 
ATOM     25  N   UNL     1      -2.276  -7.651  -0.016  0.00  0.00    -0.196 NA
ENDBRANCH  23  24
ENDBRANCH  20  23
ENDBRANCH  18  19
ENDBRANCH   5  17
TORSDOF 6
