REMARK  Name = ZINC24790984
REMARK  8 active torsions:
REMARK  status: ('A' for Active; 'I' for Inactive)
REMARK    1  A    between atoms: C_3  and  N_11
REMARK    2  A    between atoms: C_6  and  N_7
REMARK    3  A    between atoms: C_12  and  C_14
REMARK    4  A    between atoms: C_14  and  S_15
REMARK    5  A    between atoms: S_15  and  C_16
REMARK    6  A    between atoms: C_19  and  S_21
REMARK    7  A    between atoms: S_21  and  C_22
REMARK    8  A    between atoms: C_22  and  C_23
REMARK                            x       y       z     vdW  Elec       q    Type
REMARK                         _______ _______ _______ _____ _____    ______ ____
ROOT
ATOM      1  N   UNL     1      -4.942   3.973   0.047  0.00  0.00    -0.284 N 
ATOM      2  C   UNL     1      -4.961   5.316   0.156  0.00  0.00    +0.227 C 
ATOM      3  O   UNL     1      -3.921   5.939   0.155  0.00  0.00    -0.275 OA
ATOM      4  H   UNL     1      -5.886   3.415  -0.044  0.00  0.00    +0.155 HD
ENDROOT
BRANCH   1   7
ATOM      5  C   UNL     1      -1.405   3.172   0.659  0.00  0.00    +0.034 A 
ATOM      6  C   UNL     1      -2.608   3.853   0.655  0.00  0.00    +0.027 A 
ATOM      7  C   UNL     1      -3.721   3.288   0.049  0.00  0.00    +0.052 A 
ATOM      8  C   UNL     1      -3.622   2.041  -0.556  0.00  0.00    +0.064 A 
ATOM      9  C   UNL     1      -2.415   1.367  -0.553  0.00  0.00    +0.054 A 
ATOM     10  C   UNL     1      -1.308   1.934   0.052  0.00  0.00    +0.128 A 
ATOM     11 CL   UNL     1      -5.011   1.329  -1.316  0.00  0.00    -0.082 Cl
BRANCH  10  12
ATOM     12  N   UNL     1      -0.016   1.211   0.054  0.00  0.00    +0.056 N 
ATOM     13  O   UNL     1       0.070   0.118  -0.476  0.00  0.00    -0.126 OA
ATOM     14  O   UNL     1       0.961   1.710   0.582  0.00  0.00    -0.126 OA
ENDBRANCH  10  12
ENDBRANCH   1   7
BRANCH   2  15
ATOM     15  C   UNL     1      -6.275   6.043   0.279  0.00  0.00    +0.172 C 
BRANCH  15  16
ATOM     16  S   UNL     1      -5.970   7.827   0.408  0.00  0.00    -0.088 S 
BRANCH  16  17
ATOM     17  C   UNL     1      -7.581   8.527   0.543  0.00  0.00    +0.160 A 
ATOM     18  N   UNL     1      -8.755   7.926   0.553  0.00  0.00    -0.134 NA
ATOM     19  N   UNL     1      -9.905   8.672   0.670  0.00  0.00    -0.134 NA
ATOM     20  C   UNL     1      -9.828   9.985   0.772  0.00  0.00    +0.160 A 
ATOM     21  S   UNL     1      -8.061  10.239   0.712  0.00  0.00    -0.033 S 
BRANCH  20  22
ATOM     22  S   UNL     1     -11.122  11.171   0.932  0.00  0.00    -0.088 S 
BRANCH  22  23
ATOM     23  C   UNL     1     -12.636  10.171   0.926  0.00  0.00    +0.171 C 
BRANCH  23  24
ATOM     24  C   UNL     1     -13.834  11.075   1.059  0.00  0.00    +0.221 C 
ATOM     25  O   UNL     1     -13.682  12.275   1.148  0.00  0.00    -0.275 OA
ATOM     26  N   UNL     1     -15.075  10.550   1.078  0.00  0.00    -0.329 N 
ATOM     27  H   UNL     1     -15.950  11.210   1.175  0.00  0.00    +0.145 HD
ATOM     28  H   UNL     1     -15.213   9.462   0.997  0.00  0.00    +0.145 HD
ENDBRANCH  23  24
ENDBRANCH  22  23
ENDBRANCH  20  22
ENDBRANCH  16  17
ENDBRANCH  15  16
ENDBRANCH   2  15
TORSDOF 8
