REMARK  Name = ZINC01913336
REMARK  8 active torsions:
REMARK  status: ('A' for Active; 'I' for Inactive)
REMARK    1  A    between atoms: C_4  and  C_7
REMARK    2  A    between atoms: C_7  and  N_59
REMARK    3  A    between atoms: C_8  and  C_9
REMARK    4  A    between atoms: C_8  and  N_59
REMARK    5  A    between atoms: C_15  and  C_16
REMARK    6  A    between atoms: C_15  and  N_59
REMARK    7  A    between atoms: C_17  and  O_34
REMARK    8  A    between atoms: C_24  and  C_27
REMARK                            x       y       z     vdW  Elec       q    Type
REMARK                         _______ _______ _______ _____ _____    ______ ____
ROOT
ATOM      1  C   UNL     1       1.021   3.089  -0.513  0.00  0.00    +0.020 A 
ATOM      2  C   UNL     1       1.104   1.716  -0.668  0.00  0.00    +0.122 A 
ATOM      3  C   UNL     1      -0.047   0.952  -0.852  0.00  0.00    +0.046 A 
ATOM      4  C   UNL     1      -1.274   1.552  -0.886  0.00  0.00    +0.019 A 
ATOM      5  C   UNL     1      -1.374   2.934  -0.727  0.00  0.00    +0.065 A 
ATOM      6  C   UNL     1      -0.219   3.714  -0.541  0.00  0.00    +0.143 A 
ATOM      7  O   UNL     1      -0.317   5.050  -0.391  0.00  0.00    -0.462 OA
ATOM      8  C   UNL     1      -1.480   5.706  -0.408  0.00  0.00    +0.208 A 
ATOM      9  C   UNL     1      -2.671   5.077  -0.579  0.00  0.00    +0.066 A 
ATOM     10  C   UNL     1      -2.681   3.614  -0.753  0.00  0.00    +0.200 A 
ATOM     11  O   UNL     1      -3.720   2.997  -0.910  0.00  0.00    -0.286 OA
ENDROOT
BRANCH   9  12
ATOM     12  C   UNL     1      -3.938   5.848  -0.591  0.00  0.00    +0.007 A 
ATOM     13  C   UNL     1      -4.186   6.770  -1.607  0.00  0.00    +0.010 A 
ATOM     14  C   UNL     1      -5.366   7.485  -1.613  0.00  0.00    +0.001 A 
ATOM     15  C   UNL     1      -6.303   7.288  -0.615  0.00  0.00    +0.001 A 
ATOM     16  C   UNL     1      -6.064   6.375   0.395  0.00  0.00    +0.020 A 
ATOM     17  C   UNL     1      -4.889   5.649   0.410  0.00  0.00    +0.049 A 
ATOM     18 CL   UNL     1      -4.592   4.497   1.674  0.00  0.00    -0.083 Cl
ENDBRANCH   9  12
BRANCH   2  19
ATOM     19  O   UNL     1       2.317   1.108  -0.641  0.00  0.00    -0.506 OA
ATOM     20  H   UNL     1       2.705   0.964  -1.515  0.00  0.00    +0.292 HD
ENDBRANCH   2  19
BRANCH   1  21
ATOM     21  C   UNL     1       2.273   3.904  -0.315  0.00  0.00    -0.035 C 
BRANCH  21  22
ATOM     22  N   UNL     1       2.867   4.190  -1.638  0.00  0.00    +0.388 N 
ATOM     23  H   UNL     1       2.814   3.344  -2.217  0.00  0.00    -0.080 HD
BRANCH  22  24
ATOM     24  C   UNL     1       2.116   5.275  -2.304  0.00  0.00    -0.042 C 
BRANCH  24  28
ATOM     25  C   UNL     1       3.479   5.618  -6.338  0.00  0.00    +0.000 A 
ATOM     26  C   UNL     1       2.439   4.761  -6.030  0.00  0.00    +0.000 A 
ATOM     27  C   UNL     1       1.999   4.650  -4.724  0.00  0.00    +0.002 A 
ATOM     28  C   UNL     1       2.597   5.396  -3.727  0.00  0.00    -0.064 A 
ATOM     29  C   UNL     1       3.633   6.258  -4.035  0.00  0.00    +0.002 A 
ATOM     30  C   UNL     1       4.078   6.365  -5.340  0.00  0.00    +0.000 A 
ENDBRANCH  24  28
ENDBRANCH  22  24
BRANCH  22  31
ATOM     31  C   UNL     1       4.285   4.578  -1.482  0.00  0.00    -0.042 C 
BRANCH  31  32
ATOM     32  C   UNL     1       5.094   3.342  -1.185  0.00  0.00    -0.064 A 
ATOM     33  C   UNL     1       5.406   3.018   0.122  0.00  0.00    +0.002 A 
ATOM     34  C   UNL     1       6.144   1.881   0.395  0.00  0.00    +0.000 A 
ATOM     35  C   UNL     1       6.580   1.075  -0.640  0.00  0.00    +0.000 A 
ATOM     36  C   UNL     1       6.273   1.403  -1.947  0.00  0.00    +0.000 A 
ATOM     37  C   UNL     1       5.530   2.536  -2.220  0.00  0.00    +0.002 A 
ENDBRANCH  31  32
ENDBRANCH  22  31
ENDBRANCH  21  22
ENDBRANCH   1  21
TORSDOF 8
