REMARK  Name = ZINC18200361
REMARK  9 active torsions:
REMARK  status: ('A' for Active; 'I' for Inactive)
REMARK    1  A    between atoms: C_1  and  O_2
REMARK    2  A    between atoms: O_2  and  C_3
REMARK    3  A    between atoms: C_5  and  C_13
REMARK    4  A    between atoms: C_7  and  O_11
REMARK    5  A    between atoms: C_8  and  O_9
REMARK    6  A    between atoms: O_9  and  C_10
REMARK    7  A    between atoms: O_11  and  C_12
REMARK    8  A    between atoms: C_18  and  C_26
REMARK    9  A    between atoms: C_29  and  C_32
REMARK                            x       y       z     vdW  Elec       q    Type
REMARK                         _______ _______ _______ _____ _____    ______ ____
ROOT
ATOM      1  C   UNL     1      -0.013   1.086   0.008  0.00  0.00    +0.032 C 
ATOM      2  C   UNL     1      -0.704   1.585   1.278  0.00  0.00    +0.060 C 
ATOM      3  C   UNL     1       0.062   1.112   2.492  0.00  0.00    +0.020 C 
ATOM      4  C   UNL     1       1.401   0.946   2.445  0.00  0.00    +0.041 C 
ATOM      5  C   UNL     1       2.200   0.504   3.651  0.00  0.00    +0.175 C 
ATOM      6  N   UNL     1       1.306  -0.010   4.681  0.00  0.00    -0.221 N 
ATOM      7  C   UNL     1      -0.038   0.172   4.662  0.00  0.00    +0.218 A 
ATOM      8  N   UNL     1      -0.538  -0.402   5.721  0.00  0.00    -0.201 NA
ATOM      9  C   UNL     1       0.446  -0.960   6.434  0.00  0.00    +0.247 A 
ATOM     10  N   UNL     1       1.589  -0.744   5.831  0.00  0.00    -0.156 NA
ATOM     11  N   UNL     1      -0.660   0.864   3.635  0.00  0.00    -0.287 N 
ATOM     12  C   UNL     1       2.116   1.187   1.258  0.00  0.00    +0.164 C 
ATOM     13  O   UNL     1       3.323   1.040   1.252  0.00  0.00    -0.292 OA
ATOM     14  C   UNL     1       1.423   1.622  -0.003  0.00  0.00    +0.088 C 
ATOM     15  H   UNL     1      -1.578   1.164   3.720  0.00  0.00    +0.155 HD
ENDROOT
BRANCH   1  18
ATOM     16  C   UNL     1      -1.965   1.152  -3.228  0.00  0.00    +0.165 A 
ATOM     17  C   UNL     1      -1.283   0.692  -2.111  0.00  0.00    +0.053 A 
ATOM     18  C   UNL     1      -0.752   1.590  -1.204  0.00  0.00    -0.036 A 
ATOM     19  C   UNL     1      -0.902   2.950  -1.404  0.00  0.00    +0.053 A 
ATOM     20  C   UNL     1      -1.577   3.418  -2.522  0.00  0.00    +0.165 A 
ATOM     21  C   UNL     1      -2.113   2.518  -3.435  0.00  0.00    +0.204 A 
BRANCH  16  23
ATOM     22  C   UNL     1      -2.297  -1.122  -3.841  0.00  0.00    +0.277 C 
ATOM     23  O   UNL     1      -2.488   0.267  -4.118  0.00  0.00    -0.491 OA
ENDBRANCH  16  23
BRANCH  21  24
ATOM     24  O   UNL     1      -2.780   2.974  -4.530  0.00  0.00    -0.488 OA
ATOM     25  C   UNL     1      -4.189   3.172  -4.395  0.00  0.00    +0.277 C 
ENDBRANCH  21  24
BRANCH  20  26
ATOM     26  O   UNL     1      -1.719   4.756  -2.720  0.00  0.00    -0.491 OA
ATOM     27  C   UNL     1      -1.143   5.622  -1.740  0.00  0.00    +0.277 C 
ENDBRANCH  20  26
ENDBRANCH   1  18
BRANCH   5  28
ATOM     28  C   UNL     1       2.970   1.678   4.199  0.00  0.00    -0.018 A 
ATOM     29  C   UNL     1       2.296   2.805   4.631  0.00  0.00    +0.006 A 
ATOM     30  C   UNL     1       3.002   3.881   5.137  0.00  0.00    +0.013 A 
ATOM     31  C   UNL     1       4.382   3.833   5.202  0.00  0.00    +0.055 A 
ATOM     32  C   UNL     1       5.056   2.708   4.765  0.00  0.00    +0.013 A 
ATOM     33  C   UNL     1       4.349   1.630   4.263  0.00  0.00    +0.006 A 
BRANCH  31  34
ATOM     34  C   UNL     1       5.152   5.007   5.748  0.00  0.00    +0.417 C 
ATOM     35  F   UNL     1       5.464   5.886   4.705  0.00  0.00    -0.166 F 
ATOM     36  F   UNL     1       4.373   5.673   6.701  0.00  0.00    -0.166 F 
ATOM     37  F   UNL     1       6.333   4.554   6.346  0.00  0.00    -0.166 F 
ENDBRANCH  31  34
ENDBRANCH   5  28
TORSDOF 6
