REMARK  Name = ZINC49512530
REMARK  6 active torsions:
REMARK  status: ('A' for Active; 'I' for Inactive)
REMARK    1  A    between atoms: C_5  and  N_7
REMARK    2  A    between atoms: N_10  and  C_13
REMARK    3  A    between atoms: C_13  and  C_14
REMARK    4  A    between atoms: C_14  and  N_15
REMARK    5  A    between atoms: C_16  and  C_18
REMARK    6  A    between atoms: C_18  and  C_24
REMARK                            x       y       z     vdW  Elec       q    Type
REMARK                         _______ _______ _______ _____ _____    ______ ____
ROOT
ATOM      1  C   UNL     1       3.014  -6.676  -1.241  0.00  0.00    +0.085 C 
ENDROOT
BRANCH   1   2
ATOM      2  N   UNL     1       4.035  -7.727  -1.253  0.00  0.00    -0.316 N 
ATOM      3  C   UNL     1       4.023  -8.669  -2.217  0.00  0.00    +0.224 C 
ATOM      4  O   UNL     1       3.166  -8.646  -3.075  0.00  0.00    -0.275 OA
ATOM      5  H   UNL     1       4.720  -7.745  -0.566  0.00  0.00    +0.149 HD
BRANCH   3   6
ATOM      6  C   UNL     1       5.073  -9.749  -2.228  0.00  0.00    +0.078 C 
ATOM      7  C   UNL     1       6.459  -9.112  -2.352  0.00  0.00    +0.021 C 
ATOM      8  C   UNL     1       6.538  -8.311  -3.652  0.00  0.00    +0.001 C 
ATOM      9  C   UNL     1       6.297  -9.243  -4.841  0.00  0.00    +0.000 C 
ATOM     10  C   UNL     1       4.912  -9.880  -4.718  0.00  0.00    +0.001 C 
ATOM     11  C   UNL     1       4.833 -10.682  -3.417  0.00  0.00    +0.021 C 
BRANCH   6  12
ATOM     12  C   UNL     1       4.995 -10.539  -0.947  0.00  0.00    +0.005 A 
ATOM     13  C   UNL     1       5.141 -10.110   0.331  0.00  0.00    +0.012 A 
ATOM     14  C   UNL     1       5.027 -11.023   1.362  0.00  0.00    +0.008 A 
ATOM     15  C   UNL     1       4.773 -12.321   1.065  0.00  0.00    +0.045 A 
ATOM     16  S   UNL     1       4.681 -12.281  -0.717  0.00  0.00    -0.101 S 
ENDBRANCH   6  12
ENDBRANCH   3   6
ENDBRANCH   1   2
BRANCH   1  17
ATOM     17  C   UNL     1       3.255  -5.744  -0.052  0.00  0.00    -0.060 C 
BRANCH  17  21
ATOM     18  N   UNL     1       1.236  -2.079  -0.021  0.00  0.00    -0.331 N 
ATOM     19  C   UNL     1       1.254  -2.842   1.236  0.00  0.00    +0.086 C 
ATOM     20  C   UNL     1       2.390  -3.869   1.165  0.00  0.00    -0.060 C 
ATOM     21  N   UNL     1       2.231  -4.691  -0.041  0.00  0.00    +0.383 N 
ATOM     22  C   UNL     1       2.378  -3.855  -1.239  0.00  0.00    -0.060 C 
ATOM     23  C   UNL     1       1.236  -2.828  -1.287  0.00  0.00    +0.086 C 
ATOM     24  H   UNL     1       1.315  -5.115  -0.039  0.00  0.00    -0.082 HD
BRANCH  18  29
ATOM     25  C   UNL     1      -0.017   1.377   0.010  0.00  0.00    +0.002 A 
ATOM     26  C   UNL     1       1.170   2.087   0.002  0.00  0.00    +0.003 A 
ATOM     27  C   UNL     1       2.380   1.418  -0.013  0.00  0.00    +0.040 A 
ATOM     28  C   UNL     1       2.406   0.035  -0.021  0.00  0.00    +0.144 A 
ATOM     29  C   UNL     1       1.214  -0.681  -0.013  0.00  0.00    +0.065 A 
ATOM     30  C   UNL     1       0.002  -0.004   0.002  0.00  0.00    +0.026 A 
ATOM     31  F   UNL     1       3.588  -0.619  -0.036  0.00  0.00    -0.204 F 
ENDBRANCH  18  29
ENDBRANCH  17  21
ENDBRANCH   1  17
TORSDOF 6
