REMARK  Name = ZINC06202956
REMARK  7 active torsions:
REMARK  status: ('A' for Active; 'I' for Inactive)
REMARK    1  A    between atoms: C_1  and  C_2
REMARK    2  A    between atoms: C_2  and  C_3
REMARK    3  A    between atoms: C_3  and  C_4
REMARK    4  A    between atoms: C_3  and  C_5
REMARK    5  A    between atoms: C_3  and  C_6
REMARK    6  A    between atoms: C_15  and  O_27
REMARK    7  A    between atoms: C_17  and  C_20
REMARK                            x       y       z     vdW  Elec       q    Type
REMARK                         _______ _______ _______ _____ _____    ______ ____
ROOT
ATOM      1  C   UNL     1      -0.735   2.019   1.269  0.00  0.00    -0.000 C 
ATOM      2  C   UNL     1      -0.757   3.550   1.280  0.00  0.00    +0.009 C 
ATOM      3  C   UNL     1      -1.245   4.053   2.640  0.00  0.00    +0.037 C 
ATOM      4  C   UNL     1      -2.568   3.373   2.970  0.00  0.00    -0.023 A 
ATOM      5  C   UNL     1      -2.941   2.238   2.334  0.00  0.00    -0.004 A 
ATOM      6  S   UNL     1      -4.517   1.821   3.034  0.00  0.00    -0.078 S 
ATOM      7  C   UNL     1      -4.669   3.118   4.139  0.00  0.00    +0.080 A 
ATOM      8  C   UNL     1      -3.504   3.874   3.961  0.00  0.00    +0.068 A 
ATOM      9  C   UNL     1      -3.345   5.086   4.805  0.00  0.00    +0.220 C 
ATOM     10  N   UNL     1      -4.378   5.487   5.494  0.00  0.00    -0.223 NA
ATOM     11  C   UNL     1      -5.705   4.889   5.424  0.00  0.00    +0.227 C 
ATOM     12  N   UNL     1      -5.640   3.464   5.048  0.00  0.00    -0.313 N 
ATOM     13  C   UNL     1      -2.182   1.504   1.274  0.00  0.00    +0.046 C 
ATOM     14  H   UNL     1      -6.346   2.746   5.490  0.00  0.00    +0.149 HD
ENDROOT
BRANCH  11  15
ATOM     15  C   UNL     1      -6.525   5.630   4.399  0.00  0.00    +0.030 A 
ATOM     16  C   UNL     1      -7.437   4.946   3.618  0.00  0.00    +0.010 A 
ATOM     17  C   UNL     1      -8.194   5.625   2.682  0.00  0.00    +0.001 A 
ATOM     18  C   UNL     1      -8.030   6.989   2.518  0.00  0.00    +0.003 A 
ATOM     19  C   UNL     1      -7.115   7.674   3.293  0.00  0.00    +0.039 A 
ATOM     20  C   UNL     1      -6.360   6.994   4.236  0.00  0.00    +0.130 A 
ATOM     21  F   UNL     1      -5.465   7.663   4.995  0.00  0.00    -0.205 F 
ENDBRANCH  11  15
BRANCH   1  22
ATOM     22  C   UNL     1      -0.019   1.526   0.010  0.00  0.00    -0.032 C 
ATOM     23  C   UNL     1       1.417   2.055  -0.000  0.00  0.00    +0.011 C 
ATOM     24  C   UNL     1      -0.759   2.033  -1.229  0.00  0.00    +0.011 C 
BRANCH  22  26
ATOM     25  C   UNL     1       0.718  -0.497  -1.257  0.00  0.00    +0.004 C 
ATOM     26  C   UNL     1       0.002  -0.004   0.002  0.00  0.00    +0.003 C 
ENDBRANCH  22  26
ENDBRANCH   1  22
BRANCH   9  27
ATOM     27  O   UNL     1      -2.168   5.752   4.858  0.00  0.00    -0.492 OA
ATOM     28  H   UNL     1      -2.070   6.647   5.489  0.00  0.00    +0.294 HD
ENDBRANCH   9  27
TORSDOF 4
