REMARK  Name = ZINC18056669
REMARK  1 active torsions:
REMARK  status: ('A' for Active; 'I' for Inactive)
REMARK    1  A    between atoms: C_3  and  C_6
REMARK                            x       y       z     vdW  Elec       q    Type
REMARK                         _______ _______ _______ _____ _____    ______ ____
ROOT
ATOM      1  C   UNL     1       2.520   3.655  -0.002  0.00  0.00    +0.010 A 
ATOM      2  C   UNL     1       3.584   2.813  -0.017  0.00  0.00    +0.057 A 
ATOM      3  S   UNL     1       2.829   1.200  -0.018  0.00  0.00    -0.078 S 
ATOM      4  C   UNL     1       1.169   1.660  -0.000  0.00  0.00    +0.092 A 
ATOM      5  C   UNL     1       1.188   3.054   0.007  0.00  0.00    +0.078 A 
ATOM      6  C   UNL     1      -0.134   3.714   0.023  0.00  0.00    +0.261 A 
ATOM      7  O   UNL     1      -0.215   4.929   0.030  0.00  0.00    -0.267 OA
ATOM      8  N   UNL     1      -1.246   2.959   0.029  0.00  0.00    -0.302 N 
ATOM      9  H   UNL     1      -2.236   3.438   0.045  0.00  0.00    +0.171 HD
ATOM     10  C   UNL     1      -1.190   1.617   0.017  0.00  0.00    +0.159 A 
ATOM     11  S   UNL     1      -2.646   0.716   0.019  0.00  0.00    -0.013 S 
ATOM     12  N   UNL     1      -0.011   0.966   0.007  0.00  0.00    -0.329 N 
ATOM     13  H   UNL     1      -0.002  -0.134   0.006  0.00  0.00    +0.168 HD
ENDROOT
BRANCH   1  16
ATOM     14  C   UNL     1       3.500   7.256   0.633  0.00  0.00    +0.008 A 
ATOM     15  C   UNL     1       3.494   5.890   0.816  0.00  0.00    +0.016 A 
ATOM     16  C   UNL     1       2.702   5.122   0.004  0.00  0.00    +0.021 A 
ATOM     17  S   UNL     1       1.951   6.353  -1.048  0.00  0.00    -0.097 S 
ATOM     18  C   UNL     1       2.725   7.797  -0.340  0.00  0.00    +0.046 A 
ENDBRANCH   1  16
TORSDOF 1
