REMARK  Name = ZINC40114507
REMARK  5 active torsions:
REMARK  status: ('A' for Active; 'I' for Inactive)
REMARK    1  A    between atoms: C_1  and  C_2
REMARK    2  A    between atoms: C_10  and  C_11
REMARK    3  A    between atoms: N_13  and  C_14
REMARK    4  A    between atoms: N_13  and  C_22
REMARK    5  A    between atoms: C_14  and  C_15
REMARK                            x       y       z     vdW  Elec       q    Type
REMARK                         _______ _______ _______ _____ _____    ______ ____
ROOT
ATOM      1  C   UNL     1      -0.045  -0.585   2.336  0.00  0.00    +0.283 C 
ATOM      2  O   UNL     1      -0.215  -1.173   1.284  0.00  0.00    -0.267 OA
ATOM      3  N   UNL     1       0.113  -1.281   3.479  0.00  0.00    -0.286 N 
ENDROOT
BRANCH   1  13
ATOM      4  C   UNL     1      -0.092   1.245  -0.178  0.00  0.00    +0.048 C 
ATOM      5  C   UNL     1      -0.034   1.684   1.262  0.00  0.00    +0.008 A 
ATOM      6  C   UNL     1       0.006   3.058   1.761  0.00  0.00    +0.024 A 
ATOM      7  C   UNL     1       0.005   4.316   1.153  0.00  0.00    +0.013 A 
ATOM      8  C   UNL     1       0.051   5.441   1.924  0.00  0.00    +0.016 A 
ATOM      9  C   UNL     1       0.099   5.344   3.309  0.00  0.00    +0.021 A 
ATOM     10  C   UNL     1       0.101   4.112   3.929  0.00  0.00    +0.062 A 
ATOM     11  C   UNL     1       0.053   2.953   3.164  0.00  0.00    +0.137 A 
ATOM     12  O   UNL     1       0.043   1.642   3.475  0.00  0.00    -0.450 OA
ATOM     13  C   UNL     1      -0.014   0.884   2.359  0.00  0.00    +0.194 A 
ATOM     14 BR   UNL     1       0.163   6.918   4.356  0.00  0.00    -0.050 Br
ENDBRANCH   1  13
BRANCH   3  15
ATOM     15  C   UNL     1       0.202  -2.743   3.440  0.00  0.00    +0.099 C 
ATOM     16  C   UNL     1       1.335  -3.169   2.492  0.00  0.00    +0.047 C 
ATOM     17  C   UNL     1       1.233  -4.684   2.196  0.00  0.00    +0.168 C 
ATOM     18  S   UNL     1      -0.567  -5.012   2.382  0.00  0.00    -0.029 S 
ATOM     19  O   UNL     1      -0.763  -5.919   3.458  0.00  0.00    -0.174 OA
ATOM     20  O   UNL     1      -1.117  -5.311   1.106  0.00  0.00    -0.174 OA
ATOM     21  C   UNL     1      -1.130  -3.336   2.900  0.00  0.00    +0.188 C 
ENDBRANCH   3  15
BRANCH   3  22
ATOM     22  C   UNL     1       0.195  -0.576   4.760  0.00  0.00    +0.143 C 
BRANCH  22  23
ATOM     23  C   UNL     1      -1.178  -0.486   5.374  0.00  0.00    -0.029 A 
ATOM     24  C   UNL     1      -2.035   0.533   5.003  0.00  0.00    +0.005 A 
ATOM     25  C   UNL     1      -3.295   0.616   5.566  0.00  0.00    +0.002 A 
ATOM     26  C   UNL     1      -3.699  -0.320   6.500  0.00  0.00    +0.020 A 
ATOM     27  C   UNL     1      -2.841  -1.340   6.871  0.00  0.00    +0.041 A 
ATOM     28  C   UNL     1      -1.583  -1.426   6.303  0.00  0.00    +0.025 A 
ATOM     29 CL   UNL     1      -3.347  -2.516   8.043  0.00  0.00    -0.084 Cl
ENDBRANCH  22  23
ENDBRANCH   3  22
TORSDOF 4
