REMARK  Name = ZINC39546189
REMARK  12 active torsions:
REMARK  status: ('A' for Active; 'I' for Inactive)
REMARK    1  A    between atoms: C_1  and  C_2
REMARK    2  A    between atoms: C_2  and  C_3
REMARK    3  A    between atoms: C_2  and  C_4
REMARK    4  A    between atoms: C_4  and  C_6
REMARK    5  A    between atoms: C_4  and  N_30
REMARK    6  A    between atoms: C_9  and  S_14
REMARK    7  A    between atoms: N_10  and  C_11
REMARK    8  A    between atoms: C_11  and  C_12
REMARK    9  A    between atoms: S_14  and  C_15
REMARK   10  A    between atoms: C_15  and  C_16
REMARK   11  A    between atoms: N_21  and  C_24
REMARK   12  A    between atoms: C_31  and  C_33
REMARK                            x       y       z     vdW  Elec       q    Type
REMARK                         _______ _______ _______ _____ _____    ______ ____
ROOT
ATOM      1  C   UNL     1      -2.194  -0.087  -1.199  0.00  0.00    +0.155 A 
ATOM      2  N   UNL     1      -2.054  -0.529  -2.417  0.00  0.00    -0.132 NA
ATOM      3  N   UNL     1      -2.819   0.126  -3.215  0.00  0.00    -0.122 NA
ATOM      4  C   UNL     1      -3.495   1.030  -2.544  0.00  0.00    +0.192 A 
ATOM      5  N   UNL     1      -3.121   0.918  -1.235  0.00  0.00    -0.301 N 
ENDROOT
BRANCH   1   6
ATOM      6  C   UNL     1      -1.474  -0.594   0.023  0.00  0.00    +0.144 C 
BRANCH   6   7
ATOM      7  N   UNL     1      -1.474  -2.059   0.018  0.00  0.00    -0.301 N 
ATOM      8  C   UNL     1      -1.363  -2.737   1.178  0.00  0.00    +0.245 C 
ATOM      9  O   UNL     1      -1.262  -2.133   2.228  0.00  0.00    -0.270 OA
ATOM     10  H   UNL     1      -1.555  -2.541  -0.820  0.00  0.00    +0.150 HD
BRANCH   8  11
ATOM     11  C   UNL     1      -1.364  -4.215   1.173  0.00  0.00    +0.037 A 
ATOM     12  C   UNL     1      -1.474  -4.912  -0.032  0.00  0.00    +0.013 A 
ATOM     13  C   UNL     1      -1.473  -6.292  -0.030  0.00  0.00    +0.001 A 
ATOM     14  C   UNL     1      -1.364  -6.984   1.163  0.00  0.00    +0.000 A 
ATOM     15  C   UNL     1      -1.256  -6.300   2.360  0.00  0.00    +0.001 A 
ATOM     16  C   UNL     1      -1.249  -4.920   2.372  0.00  0.00    +0.013 A 
ENDBRANCH   8  11
ENDBRANCH   6   7
BRANCH   6  18
ATOM     17  C   UNL     1      -0.030   1.446   0.018  0.00  0.00    +0.009 C 
ATOM     18  C   UNL     1      -0.031  -0.084   0.013  0.00  0.00    +0.011 C 
ATOM     19  C   UNL     1       0.700  -0.599   1.254  0.00  0.00    +0.009 C 
ENDBRANCH   6  18
ENDBRANCH   1   6
BRANCH   5  20
ATOM     20  C   UNL     1      -3.609   1.712  -0.105  0.00  0.00    +0.152 C 
BRANCH  20  21
ATOM     21  C   UNL     1      -2.740   2.932   0.064  0.00  0.00    -0.013 C 
ATOM     22  C   UNL     1      -3.281   4.125   0.070  0.00  0.00    +0.005 C 
ENDBRANCH  20  21
ENDBRANCH   5  20
BRANCH   4  23
ATOM     23  S   UNL     1      -4.668   2.166  -3.205  0.00  0.00    -0.077 S 
BRANCH  23  24
ATOM     24  C   UNL     1      -4.700   1.782  -4.978  0.00  0.00    +0.173 C 
BRANCH  24  25
ATOM     25  C   UNL     1      -5.677   2.695  -5.672  0.00  0.00    +0.226 C 
ATOM     26  O   UNL     1      -6.292   3.524  -5.034  0.00  0.00    -0.275 OA
ATOM     27  N   UNL     1      -5.868   2.592  -7.002  0.00  0.00    -0.298 N 
ATOM     28  C   UNL     1      -5.135   1.589  -7.787  0.00  0.00    +0.126 C 
ATOM     29  C   UNL     1      -6.149   0.726  -8.549  0.00  0.00    +0.124 C 
ATOM     30  N   UNL     1      -7.095   1.614  -9.241  0.00  0.00    -0.327 N 
ATOM     31  C   UNL     1      -7.828   2.617  -8.456  0.00  0.00    +0.124 C 
ATOM     32  C   UNL     1      -6.818   3.475  -7.692  0.00  0.00    +0.126 C 
BRANCH  30  33
ATOM     33  C   UNL     1      -7.293   1.506 -10.619  0.00  0.00    +0.030 A 
ATOM     34  C   UNL     1      -6.512   0.635 -11.369  0.00  0.00    +0.023 A 
ATOM     35  C   UNL     1      -6.711   0.531 -12.731  0.00  0.00    +0.002 A 
ATOM     36  C   UNL     1      -7.685   1.293 -13.350  0.00  0.00    +0.000 A 
ATOM     37  C   UNL     1      -8.464   2.161 -12.607  0.00  0.00    +0.002 A 
ATOM     38  C   UNL     1      -8.274   2.266 -11.243  0.00  0.00    +0.023 A 
ENDBRANCH  30  33
ENDBRANCH  24  25
ENDBRANCH  23  24
ENDBRANCH   4  23
TORSDOF 10
