REMARK  Name = ZINC12566922
REMARK  3 active torsions:
REMARK  status: ('A' for Active; 'I' for Inactive)
REMARK    1  A    between atoms: C_5  and  C_6
REMARK    2  A    between atoms: C_7  and  C_12
REMARK    3  A    between atoms: C_12  and  O_24
REMARK                            x       y       z     vdW  Elec       q    Type
REMARK                         _______ _______ _______ _____ _____    ______ ____
ROOT
ATOM      1  C   UNL     1      -5.247   2.325  -0.353  0.00  0.00    +0.203 C 
ATOM      2  C   UNL     1      -5.796   0.918  -0.283  0.00  0.00    +0.022 A 
ATOM      3  C   UNL     1      -5.810  -0.032   0.714  0.00  0.00    +0.029 A 
ATOM      4  C   UNL     1      -6.399  -1.265   0.484  0.00  0.00    +0.043 A 
ATOM      5  C   UNL     1      -6.972  -1.535  -0.746  0.00  0.00    +0.042 A 
ATOM      6  C   UNL     1      -6.959  -0.584  -1.746  0.00  0.00    +0.064 A 
ATOM      7  C   UNL     1      -6.367   0.659  -1.522  0.00  0.00    +0.059 A 
ATOM      8  N   UNL     1      -6.228   1.768  -2.359  0.00  0.00    -0.281 N 
ATOM      9  C   UNL     1      -5.587   2.783  -1.755  0.00  0.00    +0.259 C 
ATOM     10  O   UNL     1      -5.329   3.864  -2.242  0.00  0.00    -0.272 OA
ATOM     11 CL   UNL     1      -7.681  -0.934  -3.285  0.00  0.00    -0.082 Cl
ATOM     12 CL   UNL     1      -6.420  -2.466   1.737  0.00  0.00    -0.083 Cl
ATOM     13  H   UNL     1      -6.557   1.802  -3.271  0.00  0.00    +0.155 HD
ENDROOT
BRANCH   1  15
ATOM     14  C   UNL     1      -3.031   2.020   0.975  0.00  0.00    +0.094 A 
ATOM     15  C   UNL     1      -3.755   2.320  -0.146  0.00  0.00    +0.064 A 
ATOM     16  S   UNL     1      -2.443   2.705  -1.297  0.00  0.00    -0.053 S 
ATOM     17  C   UNL     1      -1.074   2.432  -0.181  0.00  0.00    +0.156 A 
ATOM     18  N   UNL     1      -1.701   2.079   0.926  0.00  0.00    -0.224 NA
ATOM     19  N   UNL     1       0.286   2.552  -0.417  0.00  0.00    -0.337 N 
ATOM     20  H   UNL     1       0.604   2.819  -1.294  0.00  0.00    +0.144 HD
ATOM     21  H   UNL     1       0.919   2.372   0.295  0.00  0.00    +0.144 HD
BRANCH  14  26
ATOM     22  C   UNL     1      -3.409   0.622   3.099  0.00  0.00    +0.019 A 
ATOM     23  C   UNL     1      -4.200   0.447   4.215  0.00  0.00    +0.028 A 
ATOM     24  C   UNL     1      -5.263   1.270   4.407  0.00  0.00    +0.079 A 
ATOM     25  S   UNL     1      -5.165   2.345   2.985  0.00  0.00    -0.075 S 
ATOM     26  C   UNL     1      -3.716   1.630   2.226  0.00  0.00    +0.040 A 
ATOM     27 CL   UNL     1      -6.419   1.276   5.702  0.00  0.00    -0.076 Cl
ENDBRANCH  14  26
ENDBRANCH   1  15
BRANCH   1  28
ATOM     28  O   UNL     1      -5.884   3.159   0.617  0.00  0.00    -0.371 OA
ATOM     29  H   UNL     1      -5.590   4.080   0.597  0.00  0.00    +0.212 HD
ENDBRANCH   1  28
TORSDOF 3
