REMARK  Name = ZINC15441012
REMARK  11 active torsions:
REMARK  status: ('A' for Active; 'I' for Inactive)
REMARK    1  A    between atoms: C_1  and  C_2
REMARK    2  A    between atoms: C_2  and  O_3
REMARK    3  A    between atoms: O_3  and  C_4
REMARK    4  A    between atoms: C_4  and  C_6
REMARK    5  A    between atoms: C_11  and  C_13
REMARK    6  A    between atoms: C_11  and  C_19
REMARK    7  A    between atoms: C_11  and  N_66
REMARK    8  A    between atoms: C_20  and  C_34
REMARK    9  A    between atoms: C_21  and  C_33
REMARK   10  A    between atoms: C_23  and  N_24
REMARK   11  A    between atoms: C_25  and  C_27
REMARK                            x       y       z     vdW  Elec       q    Type
REMARK                         _______ _______ _______ _____ _____    ______ ____
ROOT
ATOM      1  C   UNL     1       7.558   1.320  -0.279  0.00  0.00    -0.004 C 
ENDROOT
BRANCH   1   7
ATOM      2  C   UNL     1       4.982   2.857  -3.326  0.00  0.00    +0.094 C 
ATOM      3  C   UNL     1       5.024   3.543  -1.958  0.00  0.00    -0.004 C 
ATOM      4  C   UNL     1       6.324   3.166  -1.243  0.00  0.00    -0.077 C 
ATOM      5  C   UNL     1       6.399   1.029  -2.384  0.00  0.00    -0.077 C 
ATOM      6  C   UNL     1       5.102   1.342  -3.133  0.00  0.00    -0.004 C 
ATOM      7  N   UNL     1       6.367   1.699  -1.067  0.00  0.00    +0.387 N 
ATOM      8  H   UNL     1       5.524   1.399  -0.562  0.00  0.00    -0.080 HD
BRANCH   2   9
ATOM      9  C   UNL     1       3.678   3.177  -4.010  0.00  0.00    +0.310 C 
ATOM     10  O   UNL     1       2.864   3.881  -3.460  0.00  0.00    -0.251 OA
BRANCH   9  11
ATOM     11  O   UNL     1       3.420   2.679  -5.229  0.00  0.00    -0.465 OA
BRANCH  11  13
ATOM     12  C   UNL     1       2.030   2.374  -7.206  0.00  0.00    +0.048 C 
ATOM     13  C   UNL     1       2.143   3.029  -5.827  0.00  0.00    +0.229 C 
ENDBRANCH  11  13
ENDBRANCH   9  11
ENDBRANCH   2   9
ENDBRANCH   1   7
BRANCH   1  14
ATOM     14  C   UNL     1       7.593  -0.180  -0.135  0.00  0.00    -0.025 A 
ATOM     15  C   UNL     1       8.784  -0.871  -0.255  0.00  0.00    -0.037 A 
ATOM     16  C   UNL     1       8.780  -2.219  -0.121  0.00  0.00    -0.008 A 
ATOM     17  S   UNL     1       7.056  -2.557   0.193  0.00  0.00    -0.078 S 
ATOM     18  C   UNL     1       6.451  -0.879   0.115  0.00  0.00    +0.074 A 
ATOM     19  C   UNL     1       9.935  -3.183  -0.208  0.00  0.00    +0.052 C 
ATOM     20  C   UNL     1      10.070  -0.135  -0.531  0.00  0.00    +0.045 C 
BRANCH  18  21
ATOM     21  N   UNL     1       5.146  -0.406   0.275  0.00  0.00    -0.276 N 
ATOM     22  C   UNL     1       4.163  -1.252   0.642  0.00  0.00    +0.249 C 
ATOM     23  O   UNL     1       4.412  -2.426   0.834  0.00  0.00    -0.270 OA
ATOM     24  H   UNL     1       4.948   0.531   0.122  0.00  0.00    +0.156 HD
BRANCH  22  25
ATOM     25  C   UNL     1       2.783  -0.751   0.811  0.00  0.00    +0.037 A 
ATOM     26  C   UNL     1       1.762  -1.624   1.192  0.00  0.00    +0.013 A 
ATOM     27  C   UNL     1       0.476  -1.150   1.348  0.00  0.00    +0.001 A 
ATOM     28  C   UNL     1       0.197   0.187   1.129  0.00  0.00    +0.000 A 
ATOM     29  C   UNL     1       1.204   1.058   0.752  0.00  0.00    +0.001 A 
ATOM     30  C   UNL     1       2.494   0.597   0.592  0.00  0.00    +0.013 A 
ENDBRANCH  22  25
ENDBRANCH  18  21
ENDBRANCH   1  14
BRANCH   1  31
ATOM     31  C   UNL     1       7.462   1.953   1.085  0.00  0.00    -0.057 A 
ATOM     32  C   UNL     1       6.226   2.130   1.680  0.00  0.00    +0.002 A 
ATOM     33  C   UNL     1       6.138   2.707   2.933  0.00  0.00    +0.000 A 
ATOM     34  C   UNL     1       7.285   3.116   3.588  0.00  0.00    +0.000 A 
ATOM     35  C   UNL     1       8.520   2.943   2.991  0.00  0.00    +0.000 A 
ATOM     36  C   UNL     1       8.608   2.362   1.740  0.00  0.00    +0.002 A 
ENDBRANCH   1  31
TORSDOF 8
