REMARK  Name = ZINC15648504
REMARK  8 active torsions:
REMARK  status: ('A' for Active; 'I' for Inactive)
REMARK    1  A    between atoms: C_1  and  C_2
REMARK    2  A    between atoms: C_2  and  C_4
REMARK    3  A    between atoms: C_2  and  O_16
REMARK    4  A    between atoms: N_6  and  C_7
REMARK    5  A    between atoms: C_10  and  C_14
REMARK    6  A    between atoms: O_16  and  C_17
REMARK    7  A    between atoms: C_17  and  C_19
REMARK    8  A    between atoms: C_24  and  O_25
REMARK                            x       y       z     vdW  Elec       q    Type
REMARK                         _______ _______ _______ _____ _____    ______ ____
ROOT
ATOM      1  C   UNL     1      -0.034   1.520   0.013  0.00  0.00    +0.062 C 
ATOM      2  C   UNL     1      -0.002  -0.009   0.002  0.00  0.00    +0.259 C 
ENDROOT
BRANCH   2   3
ATOM      3  C   UNL     1       0.709  -0.488  -1.238  0.00  0.00    +0.258 C 
ATOM      4  O   UNL     1       1.759  -1.087  -1.142  0.00  0.00    -0.271 OA
ATOM      5  N   UNL     1       0.176  -0.250  -2.453  0.00  0.00    -0.282 N 
ATOM      6  H   UNL     1      -0.695   0.169  -2.527  0.00  0.00    +0.155 HD
BRANCH   5   7
ATOM      7  C   UNL     1       0.879  -0.607  -3.605  0.00  0.00    +0.035 A 
ATOM      8  C   UNL     1       1.659  -1.760  -3.612  0.00  0.00    +0.024 A 
ATOM      9  C   UNL     1       2.355  -2.115  -4.745  0.00  0.00    +0.022 A 
ATOM     10  C   UNL     1       2.276  -1.318  -5.891  0.00  0.00    +0.070 A 
ATOM     11  C   UNL     1       1.491  -0.161  -5.881  0.00  0.00    +0.060 A 
ATOM     12  C   UNL     1       0.793   0.186  -4.743  0.00  0.00    +0.044 A 
ATOM     13 CL   UNL     1       1.390   0.834  -7.300  0.00  0.00    -0.082 Cl
BRANCH  10  14
ATOM     14  C   UNL     1       2.999  -1.685  -7.072  0.00  0.00    +0.101 C 
ATOM     15  N   UNL     1       3.572  -1.976  -8.008  0.00  0.00    -0.191 NA
ENDBRANCH  10  14
ENDBRANCH   5   7
ENDBRANCH   2   3
BRANCH   2  16
ATOM     16  O   UNL     1       0.693  -0.479   1.160  0.00  0.00    -0.449 OA
BRANCH  16  17
ATOM     17  C   UNL     1      -0.044  -0.707   2.265  0.00  0.00    +0.343 C 
ATOM     18  O   UNL     1      -1.244  -0.512   2.246  0.00  0.00    -0.245 OA
BRANCH  17  19
ATOM     19  C   UNL     1       0.604  -1.193   3.496  0.00  0.00    +0.100 A 
ATOM     20  C   UNL     1       1.984  -1.413   3.524  0.00  0.00    +0.018 A 
ATOM     21  C   UNL     1       2.583  -1.867   4.678  0.00  0.00    +0.001 A 
ATOM     22  C   UNL     1       1.825  -2.107   5.812  0.00  0.00    +0.004 A 
ATOM     23  C   UNL     1       0.461  -1.894   5.799  0.00  0.00    +0.046 A 
ATOM     24  C   UNL     1      -0.159  -1.431   4.648  0.00  0.00    +0.131 A 
BRANCH  24  25
ATOM     25  O   UNL     1      -1.498  -1.215   4.635  0.00  0.00    -0.506 OA
ATOM     26  H   UNL     1      -2.018  -1.987   4.371  0.00  0.00    +0.292 HD
ENDBRANCH  24  25
ENDBRANCH  17  19
ENDBRANCH  16  17
ENDBRANCH   2  16
TORSDOF 7
