REMARK  Name = ZINC03343721
REMARK  9 active torsions:
REMARK  status: ('A' for Active; 'I' for Inactive)
REMARK    1  A    between atoms: C_1  and  C_2
REMARK    2  A    between atoms: C_2  and  C_3
REMARK    3  A    between atoms: C_2  and  C_4
REMARK    4  A    between atoms: C_4  and  C_6
REMARK    5  A    between atoms: C_4  and  N_17
REMARK    6  A    between atoms: N_8  and  C_9
REMARK    7  A    between atoms: C_10  and  C_14
REMARK    8  A    between atoms: N_17  and  S_18
REMARK    9  A    between atoms: S_18  and  C_21
REMARK                            x       y       z     vdW  Elec       q    Type
REMARK                         _______ _______ _______ _____ _____    ______ ____
ROOT
ATOM      1  C   UNL     1       0.557  -0.736   1.200  0.00  0.00    +0.165 C 
ENDROOT
BRANCH   1   2
ATOM      2  C   UNL     1       1.372  -1.971   0.916  0.00  0.00    +0.236 C 
ATOM      3  O   UNL     1       1.156  -2.623  -0.084  0.00  0.00    -0.274 OA
ATOM      4  N   UNL     1       2.341  -2.351   1.772  0.00  0.00    -0.278 N 
ATOM      5  H   UNL     1       2.465  -1.873   2.607  0.00  0.00    +0.155 HD
BRANCH   4   6
ATOM      6  C   UNL     1       3.161  -3.425   1.460  0.00  0.00    +0.084 A 
ATOM      7  C   UNL     1       4.207  -3.958   2.203  0.00  0.00    +0.065 A 
ATOM      8  C   UNL     1       4.896  -5.091   1.635  0.00  0.00    +0.022 A 
ATOM      9  C   UNL     1       4.475  -5.527   0.434  0.00  0.00    +0.048 A 
ATOM     10  S   UNL     1       3.133  -4.423   0.045  0.00  0.00    -0.081 S 
BRANCH   7  11
ATOM     11  C   UNL     1       4.589  -3.398   3.503  0.00  0.00    +0.244 C 
ATOM     12  O   UNL     1       3.985  -2.443   3.956  0.00  0.00    -0.270 OA
ATOM     13  N   UNL     1       5.609  -3.941   4.197  0.00  0.00    -0.325 N 
ATOM     14  H   UNL     1       6.091  -4.702   3.836  0.00  0.00    +0.145 HD
ATOM     15  H   UNL     1       5.862  -3.571   5.057  0.00  0.00    +0.145 HD
ENDBRANCH   7  11
ENDBRANCH   4   6
ENDBRANCH   1   2
BRANCH   1  17
ATOM     16  C   UNL     1      -1.434  -2.226   1.434  0.00  0.00    +0.009 C 
ATOM     17  C   UNL     1      -0.630  -1.102   2.092  0.00  0.00    +0.010 C 
ATOM     18  C   UNL     1      -0.119  -1.572   3.455  0.00  0.00    +0.009 C 
ENDBRANCH   1  17
BRANCH   1  19
ATOM     19  N   UNL     1       0.066  -0.174  -0.061  0.00  0.00    -0.178 NA
ATOM     20  H   UNL     1      -0.180  -0.763  -0.791  0.00  0.00    +0.149 HD
BRANCH  19  21
ATOM     21  S   UNL     1      -0.067   1.467  -0.240  0.00  0.00    +0.059 S 
ATOM     22  O   UNL     1      -0.538   1.695  -1.561  0.00  0.00    -0.153 OA
ATOM     23  O   UNL     1      -0.755   1.946   0.908  0.00  0.00    -0.153 OA
BRANCH  21  24
ATOM     24  C   UNL     1       1.562   2.134  -0.164  0.00  0.00    +0.105 A 
ATOM     25  C   UNL     1       2.095   2.521   1.052  0.00  0.00    +0.028 A 
ATOM     26  C   UNL     1       3.375   3.039   1.112  0.00  0.00    +0.002 A 
ATOM     27  C   UNL     1       4.119   3.180  -0.045  0.00  0.00    +0.000 A 
ATOM     28  C   UNL     1       3.584   2.798  -1.261  0.00  0.00    +0.002 A 
ATOM     29  C   UNL     1       2.306   2.275  -1.321  0.00  0.00    +0.028 A 
ENDBRANCH  21  24
ENDBRANCH  19  21
ENDBRANCH   1  19
TORSDOF 7
