REMARK  Name = ZINC11979699
REMARK  10 active torsions:
REMARK  status: ('A' for Active; 'I' for Inactive)
REMARK    1  A    between atoms: C_1  and  O_2
REMARK    2  A    between atoms: O_2  and  C_3
REMARK    3  A    between atoms: C_3  and  C_5
REMARK    4  A    between atoms: C_6  and  N_10
REMARK    5  A    between atoms: C_11  and  C_13
REMARK    6  A    between atoms: C_13  and  S_14
REMARK    7  A    between atoms: S_14  and  C_15
REMARK    8  A    between atoms: C_18  and  C_26
REMARK    9  A    between atoms: N_19  and  C_20
REMARK   10  A    between atoms: C_26  and  C_27
REMARK                            x       y       z     vdW  Elec       q    Type
REMARK                         _______ _______ _______ _____ _____    ______ ____
ROOT
ATOM      1  C   UNL     1       4.138  -3.151   7.903  0.00  0.00    +0.192 A 
ATOM      2  N   UNL     1       4.220  -1.855   8.095  0.00  0.00    -0.122 NA
ATOM      3  N   UNL     1       4.761  -1.615   9.236  0.00  0.00    -0.133 NA
ATOM      4  C   UNL     1       5.055  -2.734   9.835  0.00  0.00    +0.139 A 
ATOM      5  N   UNL     1       4.664  -3.753   9.011  0.00  0.00    -0.303 N 
ENDROOT
BRANCH   5   6
ATOM      6  C   UNL     1       4.786  -5.191   9.262  0.00  0.00    +0.091 C 
ATOM      7  C   UNL     1       5.655  -5.826   8.175  0.00  0.00    +0.025 C 
ATOM      8  C   UNL     1       5.783  -7.328   8.438  0.00  0.00    +0.002 C 
ATOM      9  C   UNL     1       4.394  -7.969   8.418  0.00  0.00    +0.000 C 
ATOM     10  C   UNL     1       3.524  -7.334   9.505  0.00  0.00    +0.002 C 
ATOM     11  C   UNL     1       3.397  -5.832   9.242  0.00  0.00    +0.025 C 
ENDBRANCH   5   6
BRANCH   1  12
ATOM     12  S   UNL     1       3.471  -3.961   6.488  0.00  0.00    -0.077 S 
BRANCH  12  13
ATOM     13  C   UNL     1       2.956  -2.599   5.405  0.00  0.00    +0.173 C 
BRANCH  13  15
ATOM     14  N   UNL     1       1.904  -2.329   3.183  0.00  0.00    -0.284 N 
ATOM     15  C   UNL     1       2.359  -3.161   4.141  0.00  0.00    +0.228 C 
ATOM     16  O   UNL     1       2.288  -4.362   3.985  0.00  0.00    -0.275 OA
ATOM     17  H   UNL     1       2.028  -1.371   3.273  0.00  0.00    +0.155 HD
BRANCH  14  19
ATOM     18  C   UNL     1       0.625  -2.028   1.122  0.00  0.00    +0.117 A 
ATOM     19  C   UNL     1       1.255  -2.846   2.061  0.00  0.00    +0.055 A 
ATOM     20  C   UNL     1       1.193  -4.201   1.804  0.00  0.00    +0.032 A 
ATOM     21  C   UNL     1       0.546  -4.631   0.695  0.00  0.00    +0.048 A 
ATOM     22  S   UNL     1      -0.008  -3.225  -0.037  0.00  0.00    -0.088 S 
BRANCH  18  23
ATOM     23  C   UNL     1       0.513  -0.618   1.100  0.00  0.00    +0.347 C 
ATOM     24  O   UNL     1       1.014   0.046   1.987  0.00  0.00    -0.244 OA
BRANCH  23  26
ATOM     25  C   UNL     1      -0.225   1.416   0.135  0.00  0.00    +0.280 C 
ATOM     26  O   UNL     1      -0.151  -0.010   0.094  0.00  0.00    -0.464 OA
ENDBRANCH  23  26
ENDBRANCH  18  23
ENDBRANCH  14  19
ENDBRANCH  13  15
ENDBRANCH  12  13
ENDBRANCH   1  12
BRANCH   4  27
ATOM     27  C   UNL     1       5.701  -2.880  11.189  0.00  0.00    +0.118 C 
BRANCH  27  28
ATOM     28  C   UNL     1       4.633  -2.938  12.251  0.00  0.00    -0.003 A 
ATOM     29  C   UNL     1       3.995  -4.020  12.762  0.00  0.00    +0.011 A 
ATOM     30  C   UNL     1       3.039  -3.834  13.742  0.00  0.00    +0.008 A 
ATOM     31  C   UNL     1       2.767  -2.575  14.164  0.00  0.00    +0.045 A 
ATOM     32  S   UNL     1       3.885  -1.602  13.169  0.00  0.00    -0.101 S 
ENDBRANCH  27  28
ENDBRANCH   4  27
TORSDOF 9
