REMARK  Name = ZINC40322868
REMARK  8 active torsions:
REMARK  status: ('A' for Active; 'I' for Inactive)
REMARK    1  A    between atoms: C_1  and  C_2
REMARK    2  A    between atoms: C_5  and  S_8
REMARK    3  A    between atoms: S_8  and  C_11
REMARK    4  A    between atoms: C_14  and  C_16
REMARK    5  A    between atoms: N_18  and  C_19
REMARK    6  A    between atoms: C_19  and  C_20
REMARK    7  A    between atoms: C_20  and  C_22
REMARK    8  A    between atoms: C_20  and  N_27
REMARK                            x       y       z     vdW  Elec       q    Type
REMARK                         _______ _______ _______ _____ _____    ______ ____
ROOT
ATOM      1  C   UNL     1       4.643  -5.486  -1.752  0.00  0.00    +0.279 C 
ATOM      2  O   UNL     1       5.666  -5.835  -1.193  0.00  0.00    -0.267 OA
ATOM      3  N   UNL     1       4.550  -5.556  -3.095  0.00  0.00    -0.310 N 
ATOM      4  H   UNL     1       3.735  -5.278  -3.540  0.00  0.00    +0.149 HD
ENDROOT
BRANCH   1   8
ATOM      5  C   UNL     1       1.534  -4.191  -0.444  0.00  0.00    +0.246 A 
ATOM      6  C   UNL     1       2.203  -4.357   0.718  0.00  0.00    +0.070 A 
ATOM      7  C   UNL     1       3.470  -4.868   0.395  0.00  0.00    +0.056 A 
ATOM      8  C   UNL     1       3.509  -4.990  -0.964  0.00  0.00    +0.192 A 
ATOM      9  O   UNL     1       2.322  -4.578  -1.455  0.00  0.00    -0.433 OA
BRANCH   5  10
ATOM     10  S   UNL     1      -0.109  -3.573  -0.603  0.00  0.00    +0.058 S 
ATOM     11  O   UNL     1      -0.755  -3.813   0.639  0.00  0.00    -0.161 OA
ATOM     12  O   UNL     1      -0.614  -4.074  -1.834  0.00  0.00    -0.161 OA
BRANCH  10  17
ATOM     13  C   UNL     1       0.284   2.417  -1.211  0.00  0.00    +0.044 C 
ATOM     14  C   UNL     1       0.186   0.921  -1.059  0.00  0.00    -0.050 A 
ATOM     15  C   UNL     1       0.210   0.110  -2.178  0.00  0.00    +0.005 A 
ATOM     16  C   UNL     1       0.120  -1.263  -2.039  0.00  0.00    +0.028 A 
ATOM     17  C   UNL     1       0.007  -1.824  -0.780  0.00  0.00    +0.097 A 
ATOM     18  C   UNL     1      -0.016  -1.013   0.339  0.00  0.00    +0.028 A 
ATOM     19  C   UNL     1       0.078   0.359   0.200  0.00  0.00    +0.005 A 
ENDBRANCH  10  17
ENDBRANCH   5  10
ENDBRANCH   1   8
BRANCH   3  20
ATOM     20  C   UNL     1       5.682  -6.051  -3.882  0.00  0.00    +0.094 C 
BRANCH  20  21
ATOM     21  C   UNL     1       5.274  -6.156  -5.353  0.00  0.00    -0.013 C 
BRANCH  21  22
ATOM     22  N   UNL     1       4.053  -6.966  -5.465  0.00  0.00    +0.386 N 
ATOM     23  C   UNL     1       4.309  -8.293  -4.873  0.00  0.00    -0.078 C 
ATOM     24  C   UNL     1       2.990  -8.879  -4.437  0.00  0.00    -0.019 C 
ATOM     25  C   UNL     1       2.411  -9.823  -5.508  0.00  0.00    -0.002 C 
ATOM     26  C   UNL     1       2.606  -9.261  -6.930  0.00  0.00    -0.002 C 
ATOM     27  C   UNL     1       2.345  -7.778  -7.003  0.00  0.00    -0.019 C 
ATOM     28  C   UNL     1       3.676  -7.022  -6.808  0.00  0.00    -0.078 C 
ATOM     29  H   UNL     1       3.318  -6.516  -4.941  0.00  0.00    -0.081 HD
ENDBRANCH  21  22
BRANCH  21  30
ATOM     30  C   UNL     1       6.383  -6.808  -6.137  0.00  0.00    -0.022 A 
ATOM     31  C   UNL     1       7.334  -6.231  -6.912  0.00  0.00    +0.009 A 
ATOM     32  C   UNL     1       8.263  -7.037  -7.544  0.00  0.00    +0.008 A 
ATOM     33  C   UNL     1       8.195  -8.379  -7.370  0.00  0.00    +0.045 A 
ATOM     34  S   UNL     1       6.791  -8.540  -6.280  0.00  0.00    -0.103 S 
ENDBRANCH  21  30
ENDBRANCH  20  21
ENDBRANCH   3  20
TORSDOF 7
