REMARK  Name = ZINC63425409
REMARK  5 active torsions:
REMARK  status: ('A' for Active; 'I' for Inactive)
REMARK    1  A    between atoms: C_7  and  C_10
REMARK    2  A    between atoms: C_10  and  C_11
REMARK    3  A    between atoms: C_11  and  N_12
REMARK    4  A    between atoms: N_12  and  C_13
REMARK    5  A    between atoms: N_19  and  C_22
REMARK                            x       y       z     vdW  Elec       q    Type
REMARK                         _______ _______ _______ _____ _____    ______ ____
ROOT
ATOM      1  C   UNL     1      -0.854  -5.351  -2.630  0.00  0.00    +0.085 C 
ATOM      2  C   UNL     1      -1.612  -6.508  -2.619  0.00  0.00    +0.113 C 
ATOM      3  C   UNL     1      -2.146  -7.067  -1.364  0.00  0.00    +0.258 C 
ATOM      4  N   UNL     1      -2.877  -8.198  -1.431  0.00  0.00    -0.235 N 
ATOM      5  C   UNL     1      -3.119  -8.809  -2.599  0.00  0.00    +0.320 C 
ATOM      6  O   UNL     1      -3.785  -9.825  -2.590  0.00  0.00    -0.251 OA
ATOM      7  N   UNL     1      -2.666  -8.357  -3.777  0.00  0.00    -0.190 N 
ATOM      8  C   UNL     1      -1.926  -7.232  -3.864  0.00  0.00    +0.265 C 
ATOM      9  O   UNL     1      -1.525  -6.830  -4.939  0.00  0.00    -0.269 OA
ATOM     10  O   UNL     1      -1.932  -6.522  -0.297  0.00  0.00    -0.270 OA
ATOM     11  H   UNL     1      -3.236  -8.579  -0.614  0.00  0.00    +0.159 HD
ENDROOT
BRANCH   7  12
ATOM     12  C   UNL     1      -2.973  -9.066  -4.946  0.00  0.00    +0.048 A 
ATOM     13  C   UNL     1      -1.964  -9.698  -5.662  0.00  0.00    +0.024 A 
ATOM     14  C   UNL     1      -2.268 -10.396  -6.813  0.00  0.00    +0.005 A 
ATOM     15  C   UNL     1      -3.576 -10.468  -7.256  0.00  0.00    +0.038 A 
ATOM     16  C   UNL     1      -4.585  -9.839  -6.545  0.00  0.00    +0.125 A 
ATOM     17  C   UNL     1      -4.287  -9.143  -5.388  0.00  0.00    +0.062 A 
ATOM     18  F   UNL     1      -5.862  -9.911  -6.980  0.00  0.00    -0.205 F 
ENDBRANCH   7  12
BRANCH   1  19
ATOM     19  N   UNL     1      -0.472  -4.785  -1.467  0.00  0.00    -0.349 N 
ATOM     20  H   UNL     1      -0.789  -5.147  -0.625  0.00  0.00    +0.146 HD
BRANCH  19  21
ATOM     21  C   UNL     1       0.422  -3.625  -1.477  0.00  0.00    +0.105 C 
BRANCH  21  22
ATOM     22  C   UNL     1       0.697  -3.182  -0.038  0.00  0.00    +0.052 C 
BRANCH  22  29
ATOM     23  C   UNL     1      -0.088   1.337   0.112  0.00  0.00    +0.001 A 
ATOM     24  C   UNL     1       1.080   2.112   0.080  0.00  0.00    +0.002 A 
ATOM     25  C   UNL     1       2.314   1.568   0.012  0.00  0.00    +0.026 A 
ATOM     26  C   UNL     1       2.476   0.156  -0.031  0.00  0.00    +0.043 A 
ATOM     27  N   UNL     1       3.546  -0.598  -0.098  0.00  0.00    -0.380 N 
ATOM     28  C   UNL     1       3.127  -2.004  -0.116  0.00  0.00    +0.144 C 
ATOM     29  C   UNL     1       1.616  -1.988  -0.048  0.00  0.00    -0.040 C 
ATOM     30  C   UNL     1       1.258  -0.684   0.002  0.00  0.00    -0.001 A 
ATOM     31  C   UNL     1      -0.046  -0.014   0.076  0.00  0.00    +0.010 A 
ATOM     32  H   UNL     1       4.462  -0.280  -0.131  0.00  0.00    +0.160 HD
ENDBRANCH  22  29
ENDBRANCH  21  22
ENDBRANCH  19  21
ENDBRANCH   1  19
TORSDOF 5
