REMARK  Name = ZINC08896602
REMARK  11 active torsions:
REMARK  status: ('A' for Active; 'I' for Inactive)
REMARK    1  A    between atoms: C_1  and  C_2
REMARK    2  A    between atoms: C_3  and  C_11
REMARK    3  A    between atoms: C_7  and  N_8
REMARK    4  A    between atoms: N_13  and  C_14
REMARK    5  A    between atoms: C_14  and  N_16
REMARK    6  A    between atoms: N_16  and  C_17
REMARK    7  A    between atoms: C_18  and  C_31
REMARK    8  A    between atoms: C_23  and  C_27
REMARK    9  A    between atoms: C_27  and  C_28
REMARK   10  A    between atoms: C_27  and  C_29
REMARK   11  A    between atoms: C_27  and  C_30
REMARK                            x       y       z     vdW  Elec       q    Type
REMARK                         _______ _______ _______ _____ _____    ______ ____
ROOT
ATOM      1  N   UNL     1      -1.768   0.884   2.601  0.00  0.00    -0.291 N 
ATOM      2  H   UNL     1      -0.966   1.343   2.892  0.00  0.00    +0.154 HD
ENDROOT
BRANCH   1   3
ATOM      3  C   UNL     1      -2.007   0.697   1.249  0.00  0.00    +0.084 A 
ATOM      4  C   UNL     1      -1.225   1.092   0.172  0.00  0.00    +0.068 A 
ATOM      5  C   UNL     1      -1.703   0.764  -1.161  0.00  0.00    -0.023 A 
ATOM      6  C   UNL     1      -2.881   0.105  -1.204  0.00  0.00    -0.004 A 
ATOM      7  S   UNL     1      -3.356  -0.084   0.491  0.00  0.00    -0.077 S 
ATOM      8  C   UNL     1      -3.613  -0.358  -2.425  0.00  0.00    +0.046 C 
ATOM      9  C   UNL     1      -3.014   0.354  -3.647  0.00  0.00    -0.000 C 
ATOM     10  C   UNL     1      -1.488   0.250  -3.580  0.00  0.00    +0.009 C 
ATOM     11  C   UNL     1      -0.957   1.122  -2.440  0.00  0.00    +0.037 C 
BRANCH   4  12
ATOM     12  C   UNL     1       0.039   1.807   0.372  0.00  0.00    +0.244 C 
ATOM     13  O   UNL     1       0.050   3.023   0.413  0.00  0.00    -0.270 OA
ATOM     14  N   UNL     1       1.188   1.117   0.510  0.00  0.00    -0.325 N 
ATOM     15  H   UNL     1       1.180   0.148   0.477  0.00  0.00    +0.145 HD
ATOM     16  H   UNL     1       2.025   1.591   0.639  0.00  0.00    +0.145 HD
ENDBRANCH   4  12
BRANCH   9  17
ATOM     17  C   UNL     1      -3.518  -0.315  -4.928  0.00  0.00    -0.035 C 
ATOM     18  C   UNL     1      -3.107  -1.788  -4.929  0.00  0.00    +0.011 C 
ATOM     19  C   UNL     1      -5.043  -0.210  -4.992  0.00  0.00    +0.011 C 
ATOM     20  C   UNL     1      -2.906   0.386  -6.143  0.00  0.00    +0.011 C 
ENDBRANCH   9  17
ENDBRANCH   1   3
BRANCH   1  21
ATOM     21  C   UNL     1      -2.651   0.426   3.510  0.00  0.00    +0.141 C 
ATOM     22  S   UNL     1      -4.068  -0.386   2.996  0.00  0.00    -0.018 S 
BRANCH  21  25
ATOM     23  C   UNL     1      -3.302   0.150   5.735  0.00  0.00    +0.250 C 
ATOM     24  O   UNL     1      -4.307  -0.426   5.370  0.00  0.00    -0.270 OA
ATOM     25  N   UNL     1      -2.419   0.608   4.826  0.00  0.00    -0.264 N 
ATOM     26  H   UNL     1      -1.616   1.068   5.117  0.00  0.00    +0.157 HD
BRANCH  23  29
ATOM     27  C   UNL     1      -5.327  -0.597   7.662  0.00  0.00    +0.047 C 
ATOM     28  C   UNL     1      -4.017  -0.007   8.117  0.00  0.00    -0.008 A 
ATOM     29  C   UNL     1      -3.047   0.349   7.177  0.00  0.00    +0.042 A 
ATOM     30  C   UNL     1      -1.833   0.889   7.607  0.00  0.00    +0.013 A 
ATOM     31  C   UNL     1      -1.604   1.077   8.954  0.00  0.00    +0.003 A 
ATOM     32  C   UNL     1      -2.570   0.722   9.880  0.00  0.00    +0.033 A 
ATOM     33  C   UNL     1      -3.773   0.181   9.461  0.00  0.00    +0.130 A 
BRANCH  33  34
ATOM     34  N   UNL     1      -4.800  -0.195  10.458  0.00  0.00    +0.057 N 
ATOM     35  O   UNL     1      -4.640   0.085  11.633  0.00  0.00    -0.126 OA
ATOM     36  O   UNL     1      -5.805  -0.785  10.104  0.00  0.00    -0.126 OA
ENDBRANCH  33  34
ENDBRANCH  23  29
ENDBRANCH  21  25
ENDBRANCH   1  21
TORSDOF 7
