REMARK  Name = ZINC35191337
REMARK  11 active torsions:
REMARK  status: ('A' for Active; 'I' for Inactive)
REMARK    1  A    between atoms: C_1  and  C_2
REMARK    2  A    between atoms: N_8  and  C_9
REMARK    3  A    between atoms: C_9  and  C_10
REMARK    4  A    between atoms: C_10  and  C_11
REMARK    5  A    between atoms: C_11  and  N_12
REMARK    6  A    between atoms: C_13  and  C_15
REMARK    7  A    between atoms: C_15  and  S_16
REMARK    8  A    between atoms: S_16  and  C_17
REMARK    9  A    between atoms: C_17  and  S_18
REMARK   10  A    between atoms: S_18  and  C_19
REMARK   11  A    between atoms: N_29  and  C_30
REMARK                            x       y       z     vdW  Elec       q    Type
REMARK                         _______ _______ _______ _____ _____    ______ ____
ROOT
ATOM      1  S   UNL     1       3.600   0.848  12.920  0.00  0.00    -0.076 S 
ENDROOT
BRANCH   1   2
ATOM      2  C   UNL     1       2.849   2.431  12.730  0.00  0.00    +0.177 A 
ATOM      3  N   UNL     1       1.605   2.582  13.112  0.00  0.00    -0.223 NA
ATOM      4  C   UNL     1       0.968   3.764  12.996  0.00  0.00    +0.079 A 
ATOM      5  C   UNL     1      -0.359   3.925  13.404  0.00  0.00    +0.028 A 
ATOM      6  C   UNL     1      -0.966   5.142  13.269  0.00  0.00    +0.002 A 
ATOM      7  C   UNL     1      -0.283   6.225  12.731  0.00  0.00    +0.001 A 
ATOM      8  C   UNL     1       1.016   6.099  12.322  0.00  0.00    +0.015 A 
ATOM      9  C   UNL     1       1.660   4.869  12.449  0.00  0.00    +0.065 A 
ATOM     10  C   UNL     1       3.054   4.676  12.028  0.00  0.00    +0.267 A 
ATOM     11  O   UNL     1       3.701   5.590  11.551  0.00  0.00    -0.267 OA
ATOM     12  N   UNL     1       3.593   3.446  12.197  0.00  0.00    -0.255 N 
BRANCH  12  13
ATOM     13  C   UNL     1       4.921   3.210  11.816  0.00  0.00    +0.052 A 
ATOM     14  C   UNL     1       5.210   2.787  10.526  0.00  0.00    +0.029 A 
ATOM     15  C   UNL     1       6.520   2.555  10.153  0.00  0.00    +0.040 A 
ATOM     16  C   UNL     1       7.544   2.745  11.065  0.00  0.00    +0.124 A 
ATOM     17  C   UNL     1       7.258   3.167  12.353  0.00  0.00    +0.040 A 
ATOM     18  C   UNL     1       5.950   3.406  12.728  0.00  0.00    +0.029 A 
ATOM     19  F   UNL     1       8.825   2.518  10.699  0.00  0.00    -0.205 F 
ENDBRANCH  12  13
ENDBRANCH   1   2
BRANCH   1  20
ATOM     20  C   UNL     1       2.290  -0.175  13.646  0.00  0.00    +0.146 C 
BRANCH  20  21
ATOM     21  S   UNL     1       1.071  -0.592  12.369  0.00  0.00    -0.140 S 
BRANCH  21  22
ATOM     22  C   UNL     1       1.898  -1.859  11.369  0.00  0.00    +0.165 C 
BRANCH  22  24
ATOM     23  N   UNL     1       1.387  -3.239   9.381  0.00  0.00    -0.315 N 
ATOM     24  C   UNL     1       0.982  -2.299  10.257  0.00  0.00    +0.223 C 
ATOM     25  O   UNL     1      -0.121  -1.806  10.149  0.00  0.00    -0.275 OA
ATOM     26  H   UNL     1       2.270  -3.634   9.467  0.00  0.00    +0.149 HD
BRANCH  23  27
ATOM     27  C   UNL     1       0.496  -3.667   8.300  0.00  0.00    +0.102 C 
BRANCH  27  28
ATOM     28  C   UNL     1       1.194  -4.736   7.456  0.00  0.00    +0.000 C 
BRANCH  28  29
ATOM     29  C   UNL     1       0.263  -5.182   6.327  0.00  0.00    -0.077 C 
BRANCH  29  36
ATOM     30  C   UNL     1      -0.211  -5.283   3.561  0.00  0.00    -0.013 C 
ATOM     31  C   UNL     1       0.089  -6.549   4.365  0.00  0.00    -0.072 C 
ATOM     32  C   UNL     1       0.818  -7.557   3.475  0.00  0.00    -0.016 C 
ATOM     33  C   UNL     1       1.116  -8.823   4.284  0.00  0.00    -0.003 C 
ATOM     34  C   UNL     1       1.934  -8.444   5.522  0.00  0.00    -0.019 C 
ATOM     35  C   UNL     1       1.164  -7.403   6.337  0.00  0.00    -0.078 C 
ATOM     36  N   UNL     1       0.934  -6.208   5.517  0.00  0.00    +0.381 N 
ATOM     37  H   UNL     1       1.818  -5.850   5.189  0.00  0.00    -0.081 HD
ENDBRANCH  29  36
ENDBRANCH  28  29
ENDBRANCH  27  28
ENDBRANCH  23  27
ENDBRANCH  22  24
ENDBRANCH  21  22
ENDBRANCH  20  21
ENDBRANCH   1  20
TORSDOF 10
