REMARK  Name = ZINC43706155
REMARK  3 active torsions:
REMARK  status: ('A' for Active; 'I' for Inactive)
REMARK    1  A    between atoms: C_1  and  C_2
REMARK    2  A    between atoms: C_2  and  N_3
REMARK    3  A    between atoms: C_15  and  C_18
REMARK                            x       y       z     vdW  Elec       q    Type
REMARK                         _______ _______ _______ _____ _____    ______ ____
ROOT
ATOM      1  N   UNL     1       1.320  -0.410  -0.499  0.00  0.00    +0.382 N 
ATOM      2  C   UNL     1       2.577   0.099  -1.063  0.00  0.00    -0.059 C 
ATOM      3  C   UNL     1       2.766  -0.461  -2.476  0.00  0.00    +0.091 C 
ATOM      4  N   UNL     1       2.679  -1.928  -2.412  0.00  0.00    -0.289 N 
ATOM      5  C   UNL     1       1.528  -2.525  -1.718  0.00  0.00    +0.091 C 
ATOM      6  C   UNL     1       1.397  -1.868  -0.340  0.00  0.00    -0.059 C 
ATOM      7  C   UNL     1       3.628  -2.703  -2.974  0.00  0.00    +0.305 C 
ATOM      8  O   UNL     1       4.653  -2.202  -3.394  0.00  0.00    -0.252 OA
ATOM      9  N   UNL     1       3.440  -4.034  -3.071  0.00  0.00    -0.280 N 
ATOM     10  C   UNL     1       2.092  -4.618  -2.984  0.00  0.00    +0.137 C 
ATOM     11  C   UNL     1       1.895  -5.558  -4.179  0.00  0.00    +0.180 C 
ATOM     12  O   UNL     1       2.984  -6.482  -4.236  0.00  0.00    -0.362 OA
ATOM     13  C   UNL     1       4.259  -5.871  -4.446  0.00  0.00    +0.248 C 
ATOM     14  C   UNL     1       4.577  -4.947  -3.271  0.00  0.00    +0.152 C 
ATOM     15  H   UNL     1       0.559  -0.181  -1.121  0.00  0.00    -0.082 HD
ENDROOT
BRANCH  13  16
ATOM     16  C   UNL     1       5.317  -6.939  -4.551  0.00  0.00    +0.386 C 
ATOM     17  O   UNL     1       5.009  -8.115  -4.454  0.00  0.00    -0.243 OA
ATOM     18  O   UNL     1       6.482  -6.628  -4.732  0.00  0.00    -0.243 OA
ENDBRANCH  13  16
BRANCH   1  20
ATOM     19  C   UNL     1       0.880   1.718   0.630  0.00  0.00    -0.017 C 
ATOM     20  C   UNL     1       1.085   0.212   0.810  0.00  0.00    -0.082 C 
ENDBRANCH   1  20
TORSDOF 2
