REMARK  Name = ZINC28355988
REMARK  6 active torsions:
REMARK  status: ('A' for Active; 'I' for Inactive)
REMARK    1  A    between atoms: C_1  and  C_2
REMARK    2  A    between atoms: C_5  and  N_8
REMARK    3  A    between atoms: C_9  and  C_19
REMARK    4  A    between atoms: C_14  and  C_17
REMARK    5  A    between atoms: C_22  and  C_24
REMARK    6  A    between atoms: C_27  and  N_30
REMARK                            x       y       z     vdW  Elec       q    Type
REMARK                         _______ _______ _______ _____ _____    ______ ____
ROOT
ATOM      1  N   UNL     1       3.583   2.123  -0.021  0.00  0.00    -0.267 N 
ATOM      2  C   UNL     1       3.582   3.586  -0.124  0.00  0.00    +0.234 C 
ATOM      3  N   UNL     1       4.574   4.014  -1.112  0.00  0.00    -0.286 N 
ATOM      4  C   UNL     1       5.693   3.291  -1.318  0.00  0.00    +0.258 C 
ATOM      5  O   UNL     1       6.533   3.675  -2.111  0.00  0.00    -0.269 OA
ATOM      6  C   UNL     1       5.892   2.039  -0.583  0.00  0.00    +0.142 C 
ATOM      7  C   UNL     1       4.786   1.467   0.073  0.00  0.00    +0.103 C 
ATOM      8  S   UNL     1       4.935  -0.037   0.977  0.00  0.00    -0.033 SA
ATOM      9  H   UNL     1       4.410   4.933  -1.694  0.00  0.00    +0.151 HD
ENDROOT
BRANCH   1  14
ATOM     10  C   UNL     1      -1.293  -0.774   0.010  0.00  0.00    +0.044 C 
ATOM     11  C   UNL     1       0.002  -0.004   0.002  0.00  0.00    -0.050 A 
ATOM     12  C   UNL     1       0.317   0.828   1.060  0.00  0.00    +0.005 A 
ATOM     13  C   UNL     1       1.504   1.534   1.056  0.00  0.00    +0.024 A 
ATOM     14  C   UNL     1       2.381   1.409  -0.014  0.00  0.00    +0.037 A 
ATOM     15  C   UNL     1       2.062   0.572  -1.075  0.00  0.00    +0.024 A 
ATOM     16  C   UNL     1       0.874  -0.132  -1.064  0.00  0.00    +0.005 A 
ENDBRANCH   1  14
BRANCH   2  17
ATOM     17  C   UNL     1       3.920   4.183   1.218  0.00  0.00    +0.144 A 
ATOM     18  C   UNL     1       4.552   5.356   1.419  0.00  0.00    +0.049 A 
ATOM     19  C   UNL     1       4.665   5.530   2.812  0.00  0.00    +0.050 A 
ATOM     20  C   UNL     1       4.089   4.443   3.391  0.00  0.00    +0.135 A 
ATOM     21  O   UNL     1       3.638   3.637   2.412  0.00  0.00    -0.456 OA
BRANCH  20  22
ATOM     22  C   UNL     1       3.974   4.193   4.843  0.00  0.00    +0.017 A 
ATOM     23  C   UNL     1       4.487   5.115   5.757  0.00  0.00    +0.014 A 
ATOM     24  C   UNL     1       4.371   4.878   7.111  0.00  0.00    +0.033 A 
ATOM     25  C   UNL     1       3.758   3.723   7.564  0.00  0.00    +0.126 A 
ATOM     26  C   UNL     1       3.252   2.802   6.663  0.00  0.00    +0.033 A 
ATOM     27  C   UNL     1       3.356   3.030   5.307  0.00  0.00    +0.014 A 
BRANCH  25  28
ATOM     28  N   UNL     1       3.642   3.472   9.018  0.00  0.00    +0.056 N 
ATOM     29  O   UNL     1       3.102   2.457   9.420  0.00  0.00    -0.126 OA
ATOM     30  O   UNL     1       4.086   4.282   9.813  0.00  0.00    -0.126 OA
ENDBRANCH  25  28
ENDBRANCH  20  22
ENDBRANCH   2  17
BRANCH   6  31
ATOM     31  C   UNL     1       7.180   1.417  -0.528  0.00  0.00    +0.107 C 
ATOM     32  N   UNL     1       8.202   0.922  -0.484  0.00  0.00    -0.191 NA
ENDBRANCH   6  31
TORSDOF 5
