REMARK  Name = ZINC35590299
REMARK  7 active torsions:
REMARK  status: ('A' for Active; 'I' for Inactive)
REMARK    1  A    between atoms: C_1  and  N_2
REMARK    2  A    between atoms: N_2  and  C_3
REMARK    3  A    between atoms: N_2  and  C_4
REMARK    4  A    between atoms: C_7  and  C_10
REMARK    5  A    between atoms: N_15  and  C_18
REMARK    6  A    between atoms: C_18  and  C_19
REMARK    7  A    between atoms: C_19  and  N_20
REMARK                            x       y       z     vdW  Elec       q    Type
REMARK                         _______ _______ _______ _____ _____    ______ ____
ROOT
ATOM      1  C   UNL     1      -0.006  -2.813  -4.924  0.00  0.00    +0.142 C 
ATOM      2  C   UNL     1       1.424  -2.891  -5.420  0.00  0.00    +0.058 C 
ATOM      3  C   UNL     1       1.697  -2.367  -6.632  0.00  0.00    +0.039 C 
ATOM      4  C   UNL     1       3.175  -2.582  -6.865  0.00  0.00    +0.159 C 
ATOM      5  N   UNL     1       3.652  -3.270  -5.656  0.00  0.00    -0.294 N 
ATOM      6  C   UNL     1       2.593  -3.428  -4.843  0.00  0.00    +0.247 C 
ATOM      7  O   UNL     1       2.637  -3.964  -3.751  0.00  0.00    -0.270 OA
ATOM      8  N   UNL     1       0.719  -1.786  -7.388  0.00  0.00    -0.271 N 
ATOM      9  C   UNL     1      -0.559  -1.690  -7.001  0.00  0.00    +0.304 C 
ATOM     10  O   UNL     1      -1.360  -1.156  -7.742  0.00  0.00    -0.252 OA
ATOM     11  N   UNL     1      -0.985  -2.166  -5.814  0.00  0.00    -0.288 N 
ATOM     12  H   UNL     1       0.965  -1.423  -8.254  0.00  0.00    +0.156 HD
ATOM     13  H   UNL     1      -1.916  -2.086  -5.554  0.00  0.00    +0.151 HD
ENDROOT
BRANCH   1  17
ATOM     14  C   UNL     1       0.000  -0.696  -1.211  0.00  0.00    +0.029 A 
ATOM     15  C   UNL     1       0.013  -2.085  -1.221  0.00  0.00    +0.023 A 
ATOM     16  C   UNL     1       0.010  -2.766  -2.422  0.00  0.00    +0.007 A 
ATOM     17  C   UNL     1      -0.005  -2.066  -3.615  0.00  0.00    -0.022 A 
ATOM     18  C   UNL     1      -0.018  -0.684  -3.609  0.00  0.00    +0.007 A 
ATOM     19  C   UNL     1      -0.021   0.004  -2.411  0.00  0.00    +0.023 A 
BRANCH  14  21
ATOM     20  C   UNL     1      -0.018   1.461   0.010  0.00  0.00    +0.129 C 
ATOM     21  N   UNL     1       0.002  -0.004   0.002  0.00  0.00    -0.336 N 
ATOM     22  C   UNL     1       0.024  -0.743   1.267  0.00  0.00    +0.129 C 
ENDBRANCH  14  21
ENDBRANCH   1  17
BRANCH   5  23
ATOM     23  C   UNL     1       5.026  -3.703  -5.388  0.00  0.00    +0.090 C 
BRANCH  23  24
ATOM     24  C   UNL     1       5.786  -2.580  -4.680  0.00  0.00    -0.060 C 
BRANCH  24  25
ATOM     25  N   UNL     1       7.163  -3.014  -4.411  0.00  0.00    +0.381 N 
ATOM     26  C   UNL     1       7.918  -3.143  -5.684  0.00  0.00    -0.079 C 
ATOM     27  C   UNL     1       9.396  -3.037  -5.232  0.00  0.00    -0.020 C 
ATOM     28  C   UNL     1       9.339  -1.980  -4.106  0.00  0.00    -0.020 C 
ATOM     29  C   UNL     1       7.877  -1.988  -3.621  0.00  0.00    -0.079 C 
ATOM     30  H   UNL     1       7.161  -3.894  -3.917  0.00  0.00    -0.082 HD
ENDBRANCH  24  25
ENDBRANCH  23  24
ENDBRANCH   5  23
TORSDOF 5
