REMARK  Name = ZINC67562808
REMARK  8 active torsions:
REMARK  status: ('A' for Active; 'I' for Inactive)
REMARK    1  A    between atoms: C_1  and  C_2
REMARK    2  A    between atoms: C_4  and  C_11
REMARK    3  A    between atoms: C_6  and  C_10
REMARK    4  A    between atoms: C_7  and  O_8
REMARK    5  A    between atoms: O_8  and  C_9
REMARK    6  A    between atoms: C_11  and  C_13
REMARK    7  A    between atoms: N_18  and  C_20
REMARK    8  A    between atoms: C_20  and  C_21
REMARK                            x       y       z     vdW  Elec       q    Type
REMARK                         _______ _______ _______ _____ _____    ______ ____
ROOT
ATOM      1  C   UNL     1      -0.439  -4.393  -2.215  0.00  0.00    +0.074 C 
ATOM      2  C   UNL     1       1.081  -4.577  -2.161  0.00  0.00    +0.014 C 
ATOM      3  C   UNL     1       1.417  -6.052  -2.395  0.00  0.00    +0.016 C 
ATOM      4  C   UNL     1       0.842  -6.493  -3.744  0.00  0.00    +0.085 C 
ATOM      5  N   UNL     1      -0.613  -6.298  -3.744  0.00  0.00    -0.296 NA
ATOM      6  C   UNL     1      -0.960  -4.882  -3.568  0.00  0.00    +0.096 C 
ENDROOT
BRANCH   1   7
ATOM      7  C   UNL     1      -0.775  -2.933  -2.044  0.00  0.00    +0.167 C 
ATOM      8  O   UNL     1      -0.945  -2.232  -3.019  0.00  0.00    -0.292 OA
BRANCH   7  12
ATOM      9  C   UNL     1      -1.658   0.983   0.899  0.00  0.00    +0.047 C 
ATOM     10  C   UNL     1      -1.322  -0.475   0.724  0.00  0.00    -0.008 A 
ATOM     11  C   UNL     1      -1.209  -1.005  -0.536  0.00  0.00    +0.018 A 
ATOM     12  C   UNL     1      -0.897  -2.361  -0.698  0.00  0.00    +0.018 A 
ATOM     13  C   UNL     1      -0.701  -3.168   0.430  0.00  0.00    +0.018 A 
ATOM     14  C   UNL     1      -0.817  -2.629   1.685  0.00  0.00    -0.008 A 
ATOM     15  C   UNL     1      -1.122  -1.281   1.840  0.00  0.00    +0.126 A 
ATOM     16  C   UNL     1      -0.607  -3.497   2.899  0.00  0.00    +0.047 C 
BRANCH  15  17
ATOM     17  O   UNL     1      -1.229  -0.750   3.084  0.00  0.00    -0.495 OA
ATOM     18  C   UNL     1      -2.521  -0.784   3.694  0.00  0.00    +0.277 C 
ENDBRANCH  15  17
ENDBRANCH   7  12
ENDBRANCH   1   7
BRANCH   5  19
ATOM     19  C   UNL     1      -1.216  -6.839  -4.970  0.00  0.00    +0.137 C 
BRANCH  19  20
ATOM     20  C   UNL     1      -1.267  -8.343  -4.883  0.00  0.00    +0.040 A 
ATOM     21  C   UNL     1      -0.533  -9.096  -5.729  0.00  0.00    +0.092 A 
ATOM     22  C   UNL     1      -0.597 -10.507  -5.628  0.00  0.00    +0.254 A 
ATOM     23  O   UNL     1       0.057 -11.207  -6.380  0.00  0.00    -0.268 OA
ATOM     24  N   UNL     1      -1.388 -11.068  -4.691  0.00  0.00    -0.275 N 
ATOM     25  H   UNL     1      -1.438 -12.033  -4.615  0.00  0.00    +0.173 HD
ATOM     26  C   UNL     1      -2.110 -10.292  -3.861  0.00  0.00    +0.327 A 
ATOM     27  O   UNL     1      -2.819 -10.812  -3.021  0.00  0.00    -0.247 OA
ATOM     28  N   UNL     1      -2.054  -8.951  -3.943  0.00  0.00    -0.310 N 
ATOM     29  H   UNL     1      -2.579  -8.409  -3.333  0.00  0.00    +0.170 HD
ENDBRANCH  19  20
ENDBRANCH   5  19
TORSDOF 5
