REMARK  Name = ZINC08251348
REMARK  6 active torsions:
REMARK  status: ('A' for Active; 'I' for Inactive)
REMARK    1  A    between atoms: C_1  and  C_2
REMARK    2  A    between atoms: C_4  and  C_7
REMARK    3  A    between atoms: C_7  and  S_8
REMARK    4  A    between atoms: S_8  and  C_9
REMARK    5  A    between atoms: C_12  and  C_15
REMARK    6  A    between atoms: N_13  and  N_14
REMARK                            x       y       z     vdW  Elec       q    Type
REMARK                         _______ _______ _______ _____ _____    ______ ____
ROOT
ATOM      1  C   UNL     1       2.748   5.316   1.419  0.00  0.00    +0.209 A 
ATOM      2  N   UNL     1       2.960   5.873   0.248  0.00  0.00    -0.121 NA
ATOM      3  N   UNL     1       3.440   7.055   0.402  0.00  0.00    -0.127 NA
ATOM      4  C   UNL     1       3.564   7.325   1.680  0.00  0.00    +0.182 A 
ATOM      5  N   UNL     1       3.119   6.222   2.371  0.00  0.00    -0.224 N 
ENDROOT
BRANCH   4   6
ATOM      6  C   UNL     1       4.078   8.581   2.267  0.00  0.00    +0.022 A 
ATOM      7  C   UNL     1       4.195   9.727   1.478  0.00  0.00    +0.012 A 
ATOM      8  C   UNL     1       4.674  10.896   2.032  0.00  0.00    +0.002 A 
ATOM      9  C   UNL     1       5.039  10.935   3.366  0.00  0.00    +0.015 A 
ATOM     10  C   UNL     1       4.926   9.803   4.154  0.00  0.00    +0.019 A 
ATOM     11  C   UNL     1       4.443   8.628   3.613  0.00  0.00    +0.027 A 
ATOM     12 BR   UNL     1       5.428   9.867   5.976  0.00  0.00    -0.050 Br
ENDBRANCH   4   6
BRANCH   5  13
ATOM     13  N   UNL     1       3.064   6.064   3.727  0.00  0.00    -0.295 N 
ATOM     14  H   UNL     1       3.923   5.670   4.080  0.00  0.00    +0.163 HD
ATOM     15  H   UNL     1       2.852   6.938   4.184  0.00  0.00    +0.163 HD
ENDBRANCH   5  13
BRANCH   1  16
ATOM     16  S   UNL     1       2.100   3.703   1.707  0.00  0.00    -0.077 S 
BRANCH  16  17
ATOM     17  C   UNL     1       1.857   3.152   0.001  0.00  0.00    +0.154 C 
BRANCH  17  21
ATOM     18  C   UNL     1      -1.192  -0.923   0.008  0.00  0.00    +0.069 C 
ATOM     19  C   UNL     1       0.002  -0.004   0.002  0.00  0.00    +0.081 A 
ATOM     20  C   UNL     1      -0.017   1.410   0.010  0.00  0.00    +0.071 A 
ATOM     21  C   UNL     1       1.293   1.755  -0.001  0.00  0.00    +0.148 A 
ATOM     22  O   UNL     1       1.987   0.608  -0.014  0.00  0.00    -0.359 OA
ATOM     23  N   UNL     1       1.256  -0.354  -0.012  0.00  0.00    -0.083 NA
ENDBRANCH  17  21
ENDBRANCH  16  17
ENDBRANCH   1  16
TORSDOF 5
