REMARK  Name = ZINC33018635
REMARK  6 active torsions:
REMARK  status: ('A' for Active; 'I' for Inactive)
REMARK    1  A    between atoms: C_1  and  C_2
REMARK    2  A    between atoms: C_8  and  C_13
REMARK    3  A    between atoms: C_13  and  N_14
REMARK    4  A    between atoms: N_14  and  C_15
REMARK    5  A    between atoms: N_14  and  C_16
REMARK    6  A    between atoms: C_16  and  C_17
REMARK                            x       y       z     vdW  Elec       q    Type
REMARK                         _______ _______ _______ _____ _____    ______ ____
ROOT
ATOM      1  C   UNL     1       3.672   2.208  -0.020  0.00  0.00    +0.044 C 
ATOM      2  C   UNL     1       2.387   1.420  -0.012  0.00  0.00    -0.050 A 
ATOM      3  C   UNL     1       1.170   2.087   0.002  0.00  0.00    +0.007 A 
ATOM      4  C   UNL     1      -0.017   1.385   0.010  0.00  0.00    +0.047 A 
ATOM      5  C   UNL     1       0.002  -0.004   0.002  0.00  0.00    +0.139 A 
ATOM      6  C   UNL     1       1.237  -0.676  -0.013  0.00  0.00    +0.019 A 
ATOM      7  C   UNL     1       2.429   0.054  -0.020  0.00  0.00    +0.015 A 
ATOM      8  C   UNL     1       1.248  -2.142  -0.021  0.00  0.00    -0.047 A 
ATOM      9  C   UNL     1       0.056  -2.792  -0.013  0.00  0.00    +0.094 A 
ATOM     10  C   UNL     1      -1.146  -2.053   0.002  0.00  0.00    +0.337 A 
ATOM     11  O   UNL     1      -2.209  -2.648   0.009  0.00  0.00    -0.245 OA
ATOM     12  O   UNL     1      -1.148  -0.711   0.010  0.00  0.00    -0.422 OA
ENDROOT
BRANCH   8  13
ATOM     13  C   UNL     1       2.546  -2.907  -0.037  0.00  0.00    -0.042 C 
BRANCH  13  14
ATOM     14  N   UNL     1       3.103  -2.955   1.321  0.00  0.00    +0.383 N 
ATOM     15  C   UNL     1       2.244  -3.744   2.214  0.00  0.00    -0.095 C 
ATOM     16  H   UNL     1       3.139  -1.926   1.709  0.00  0.00    -0.081 HD
BRANCH  14  17
ATOM     17  C   UNL     1       4.474  -3.481   1.310  0.00  0.00    -0.043 C 
BRANCH  17  18
ATOM     18  C   UNL     1       5.097  -3.289   2.669  0.00  0.00    -0.064 A 
ATOM     19  C   UNL     1       5.796  -2.130   2.951  0.00  0.00    +0.003 A 
ATOM     20  C   UNL     1       6.363  -1.951   4.199  0.00  0.00    +0.020 A 
ATOM     21  C   UNL     1       6.240  -2.937   5.162  0.00  0.00    +0.041 A 
ATOM     22  C   UNL     1       5.545  -4.098   4.877  0.00  0.00    +0.020 A 
ATOM     23  C   UNL     1       4.974  -4.274   3.631  0.00  0.00    +0.003 A 
ATOM     24 CL   UNL     1       6.957  -2.715   6.727  0.00  0.00    -0.084 Cl
ENDBRANCH  17  18
ENDBRANCH  14  17
ENDBRANCH  13  14
ENDBRANCH   8  13
TORSDOF 4
