REMARK  Name = ZINC66978375
REMARK  8 active torsions:
REMARK  status: ('A' for Active; 'I' for Inactive)
REMARK    1  A    between atoms: C_1  and  C_2
REMARK    2  A    between atoms: C_2  and  C_3
REMARK    3  A    between atoms: C_2  and  C_4
REMARK    4  A    between atoms: C_2  and  N_12
REMARK    5  A    between atoms: C_4  and  C_5
REMARK    6  A    between atoms: N_15  and  N_16
REMARK    7  A    between atoms: C_17  and  C_19
REMARK    8  A    between atoms: C_19  and  C_20
REMARK                            x       y       z     vdW  Elec       q    Type
REMARK                         _______ _______ _______ _____ _____    ______ ____
ROOT
ATOM      1  N   UNL     1       0.688  -0.476  -1.203  0.00  0.00    -0.293 N 
ATOM      2  C   UNL     1       1.972  -0.132  -1.427  0.00  0.00    +0.316 C 
ATOM      3  O   UNL     1       2.561   0.570  -0.628  0.00  0.00    -0.251 OA
ATOM      4  N   UNL     1       2.602  -0.567  -2.536  0.00  0.00    -0.218 N 
ATOM      5  H   UNL     1       0.218  -1.037  -1.840  0.00  0.00    +0.151 HD
ATOM      6  H   UNL     1       3.526  -0.319  -2.697  0.00  0.00    +0.174 HD
ENDROOT
BRANCH   4   7
ATOM      7  N   UNL     1       1.924  -1.377  -3.456  0.00  0.00    -0.233 N 
ATOM      8  C   UNL     1       2.554  -1.811  -4.565  0.00  0.00    +0.234 C 
ATOM      9  O   UNL     1       3.710  -1.501  -4.766  0.00  0.00    -0.274 OA
ATOM     10  H   UNL     1       1.000  -1.624  -3.295  0.00  0.00    +0.173 HD
BRANCH   8  11
ATOM     11  C   UNL     1       1.825  -2.682  -5.555  0.00  0.00    +0.135 C 
BRANCH  11  12
ATOM     12  C   UNL     1       2.747  -3.027  -6.696  0.00  0.00    -0.003 A 
ATOM     13  C   UNL     1       2.734  -2.266  -7.849  0.00  0.00    +0.007 A 
ATOM     14  C   UNL     1       3.580  -2.583  -8.896  0.00  0.00    +0.000 A 
ATOM     15  C   UNL     1       4.439  -3.661  -8.790  0.00  0.00    +0.003 A 
ATOM     16  C   UNL     1       4.453  -4.423  -7.638  0.00  0.00    +0.038 A 
ATOM     17  C   UNL     1       3.610  -4.104  -6.587  0.00  0.00    +0.127 A 
ATOM     18  F   UNL     1       3.626  -4.846  -5.458  0.00  0.00    -0.205 F 
ENDBRANCH  11  12
ENDBRANCH   8  11
ENDBRANCH   4   7
BRANCH   1  20
ATOM     19  C   UNL     1      -0.019   1.526   0.010  0.00  0.00    +0.031 C 
ATOM     20  C   UNL     1       0.002  -0.004   0.002  0.00  0.00    +0.034 C 
ATOM     21  C   UNL     1       0.742  -0.511   1.242  0.00  0.00    +0.031 C 
BRANCH  20  22
ATOM     22  C   UNL     1      -1.433  -0.534   0.013  0.00  0.00    +0.061 C 
BRANCH  22  23
ATOM     23  C   UNL     1      -2.139  -0.048   1.253  0.00  0.00    -0.027 A 
ATOM     24  C   UNL     1      -2.181  -0.845   2.381  0.00  0.00    +0.005 A 
ATOM     25  C   UNL     1      -2.828  -0.399   3.519  0.00  0.00    +0.000 A 
ATOM     26  C   UNL     1      -3.433   0.844   3.528  0.00  0.00    +0.001 A 
ATOM     27  C   UNL     1      -3.392   1.642   2.401  0.00  0.00    +0.020 A 
ATOM     28  C   UNL     1      -2.739   1.198   1.264  0.00  0.00    +0.044 A 
ATOM     29 CL   UNL     1      -2.681   2.203  -0.151  0.00  0.00    -0.083 Cl
ENDBRANCH  22  23
ENDBRANCH  20  22
ENDBRANCH   1  20
TORSDOF 6
