REMARK  Name = ZINC39710423
REMARK  12 active torsions:
REMARK  status: ('A' for Active; 'I' for Inactive)
REMARK    1  A    between atoms: C_1  and  C_2
REMARK    2  A    between atoms: C_2  and  C_3
REMARK    3  A    between atoms: C_3  and  N_4
REMARK    4  A    between atoms: N_7  and  C_10
REMARK    5  A    between atoms: C_10  and  C_12
REMARK    6  A    between atoms: C_10  and  C_26
REMARK    7  A    between atoms: C_17  and  C_24
REMARK    8  A    between atoms: C_24  and  C_25
REMARK    9  A    between atoms: N_31  and  C_32
REMARK   10  A    between atoms: C_32  and  C_33
REMARK   11  A    between atoms: C_32  and  C_34
REMARK   12  A    between atoms: C_32  and  C_35
REMARK                            x       y       z     vdW  Elec       q    Type
REMARK                         _______ _______ _______ _____ _____    ______ ____
ROOT
ATOM      1  C   UNL     1       2.149  -5.939   1.436  0.00  0.00    +0.115 C 
ENDROOT
BRANCH   1   2
ATOM      2  C   UNL     1       0.836  -6.702   1.621  0.00  0.00    +0.119 C 
ATOM      3  C   UNL     1       0.212  -6.246   2.926  0.00  0.00    -0.003 C 
ATOM      4  C   UNL     1      -1.041  -5.714   2.866  0.00  0.00    -0.007 A 
ATOM      5  C   UNL     1      -1.718  -5.249   4.078  0.00  0.00    +0.013 A 
ATOM      6  C   UNL     1      -2.966  -4.726   3.971  0.00  0.00    -0.047 A 
ATOM      7  C   UNL     1      -3.609  -4.627   2.737  0.00  0.00    +0.005 A 
ATOM      8  C   UNL     1      -3.036  -5.041   1.576  0.00  0.00    +0.024 A 
ATOM      9  C   UNL     1      -1.744  -5.597   1.577  0.00  0.00    +0.040 A 
ATOM     10  N   UNL     1      -1.191  -5.998   0.432  0.00  0.00    -0.284 N 
ATOM     11  C   UNL     1       0.017  -6.530   0.362  0.00  0.00    +0.226 C 
ATOM     12  O   UNL     1       0.469  -6.878  -0.713  0.00  0.00    -0.275 OA
ATOM     13  H   UNL     1      -1.700  -5.897  -0.387  0.00  0.00    +0.155 HD
BRANCH   6  14
ATOM     14  C   UNL     1      -3.673  -4.244   5.212  0.00  0.00    +0.032 C 
ATOM     15  C   UNL     1      -3.347  -2.767   5.443  0.00  0.00    +0.009 C 
ENDBRANCH   6  14
ENDBRANCH   1   2
BRANCH   1  19
ATOM     16  N   UNL     1       0.209  -2.481  -0.030  0.00  0.00    +0.381 N 
ATOM     17  C   UNL     1       1.350  -3.007  -0.791  0.00  0.00    -0.063 C 
ATOM     18  C   UNL     1       1.589  -4.469  -0.406  0.00  0.00    +0.066 C 
ATOM     19  N   UNL     1       1.858  -4.555   1.036  0.00  0.00    -0.299 NA
ATOM     20  C   UNL     1       0.734  -4.008   1.810  0.00  0.00    +0.066 C 
ATOM     21  C   UNL     1       0.503  -2.551   1.407  0.00  0.00    -0.063 C 
ATOM     22  H   UNL     1      -0.612  -3.031  -0.233  0.00  0.00    -0.082 HD
BRANCH  16  23
ATOM     23  C   UNL     1      -0.031  -1.083  -0.413  0.00  0.00    -0.079 C 
BRANCH  23  25
ATOM     24  C   UNL     1      -0.709   0.433  -2.280  0.00  0.00    +0.002 C 
ATOM     25  C   UNL     1      -0.458  -1.023  -1.881  0.00  0.00    -0.022 C 
ENDBRANCH  23  25
ENDBRANCH  16  23
ENDBRANCH   1  19
BRANCH   1  26
ATOM     26  C   UNL     1       2.928  -5.936   2.753  0.00  0.00    +0.236 C 
ATOM     27  N   UNL     1       2.268  -5.067   3.737  0.00  0.00    -0.148 NA
ATOM     28  N   UNL     1       3.042  -4.160   4.051  0.00  0.00    -0.069 NA
ATOM     29  N   UNL     1       4.267  -4.240   3.391  0.00  0.00    -0.179 N 
ATOM     30  N   UNL     1       4.264  -5.334   2.561  0.00  0.00    -0.179 NA
ATOM     31  H   UNL     1       5.006  -3.622   3.501  0.00  0.00    +0.191 HD
BRANCH  30  32
ATOM     32  C   UNL     1       5.325  -6.281   2.929  0.00  0.00    +0.035 C 
ATOM     33  C   UNL     1       5.239  -7.518   2.033  0.00  0.00    +0.029 C 
ATOM     34  C   UNL     1       6.690  -5.613   2.747  0.00  0.00    +0.029 C 
ATOM     35  C   UNL     1       5.153  -6.697   4.391  0.00  0.00    +0.029 C 
ENDBRANCH  30  32
ENDBRANCH   1  26
TORSDOF 7
