REMARK  Name = ZINC38863964
REMARK  11 active torsions:
REMARK  status: ('A' for Active; 'I' for Inactive)
REMARK    1  A    between atoms: C_1  and  C_2
REMARK    2  A    between atoms: C_2  and  C_3
REMARK    3  A    between atoms: C_2  and  C_4
REMARK    4  A    between atoms: C_2  and  C_5
REMARK    5  A    between atoms: N_11  and  S_32
REMARK    6  A    between atoms: C_13  and  C_16
REMARK    7  A    between atoms: N_18  and  C_19
REMARK    8  A    between atoms: C_20  and  C_28
REMARK    9  A    between atoms: C_28  and  O_30
REMARK   10  A    between atoms: O_30  and  C_31
REMARK   11  A    between atoms: S_32  and  C_35
REMARK                            x       y       z     vdW  Elec       q    Type
REMARK                         _______ _______ _______ _____ _____    ______ ____
ROOT
ATOM      1  C   UNL     1       0.707  -0.490  -1.238  0.00  0.00    -0.040 A 
ATOM      2  C   UNL     1       0.035  -1.284  -2.148  0.00  0.00    +0.008 A 
ATOM      3  C   UNL     1       0.676  -1.735  -3.287  0.00  0.00    +0.048 A 
ATOM      4  C   UNL     1       1.999  -1.390  -3.522  0.00  0.00    +0.144 A 
ATOM      5  C   UNL     1       2.673  -0.588  -2.605  0.00  0.00    +0.093 A 
ATOM      6  C   UNL     1       2.025  -0.137  -1.467  0.00  0.00    +0.032 A 
ATOM      7  N   UNL     1       4.009  -0.231  -2.843  0.00  0.00    -0.200 N 
ATOM      8  C   UNL     1       4.740  -0.968  -3.888  0.00  0.00    +0.185 C 
ATOM      9  C   UNL     1       3.790  -1.143  -5.082  0.00  0.00    +0.278 C 
ATOM     10  O   UNL     1       2.622  -1.841  -4.643  0.00  0.00    -0.476 OA
ENDROOT
BRANCH   1  12
ATOM     11  C   UNL     1      -0.019   1.526   0.010  0.00  0.00    +0.015 C 
ATOM     12  C   UNL     1       0.002  -0.004   0.002  0.00  0.00    -0.013 C 
ATOM     13  C   UNL     1       0.742  -0.511   1.242  0.00  0.00    +0.015 C 
ATOM     14  C   UNL     1      -1.433  -0.534   0.013  0.00  0.00    +0.015 C 
ENDBRANCH   1  12
BRANCH   9  15
ATOM     15  C   UNL     1       4.479  -1.935  -6.163  0.00  0.00    +0.260 C 
ATOM     16  O   UNL     1       4.063  -3.032  -6.470  0.00  0.00    -0.271 OA
ATOM     17  N   UNL     1       5.558  -1.425  -6.789  0.00  0.00    -0.276 N 
ATOM     18  H   UNL     1       5.891  -0.547  -6.544  0.00  0.00    +0.155 HD
BRANCH  17  19
ATOM     19  C   UNL     1       6.191  -2.153  -7.784  0.00  0.00    +0.086 A 
ATOM     20  C   UNL     1       7.307  -1.793  -8.525  0.00  0.00    +0.091 A 
ATOM     21  C   UNL     1       7.779  -2.744  -9.517  0.00  0.00    -0.021 A 
ATOM     22  C   UNL     1       7.051  -3.878  -9.586  0.00  0.00    -0.004 A 
ATOM     23  S   UNL     1       5.789  -3.677  -8.363  0.00  0.00    -0.077 S 
ATOM     24  C   UNL     1       7.281  -5.041 -10.501  0.00  0.00    +0.043 C 
ATOM     25  C   UNL     1       8.242  -4.596 -11.614  0.00  0.00    +0.005 C 
ATOM     26  C   UNL     1       9.433  -3.873 -10.979  0.00  0.00    +0.005 C 
ATOM     27  C   UNL     1       8.985  -2.522 -10.419  0.00  0.00    +0.037 C 
BRANCH  20  28
ATOM     28  C   UNL     1       7.979  -0.509  -8.318  0.00  0.00    +0.342 C 
ATOM     29  O   UNL     1       8.883  -0.419  -7.509  0.00  0.00    -0.245 OA
BRANCH  28  30
ATOM     30  O   UNL     1       7.597   0.575  -9.024  0.00  0.00    -0.464 OA
ATOM     31  C   UNL     1       8.296   1.795  -8.770  0.00  0.00    +0.280 C 
ENDBRANCH  28  30
ENDBRANCH  20  28
ENDBRANCH  17  19
ENDBRANCH   9  15
BRANCH   7  32
ATOM     32  S   UNL     1       4.739   0.978  -1.978  0.00  0.00    +0.043 S 
ATOM     33  O   UNL     1       5.763   1.468  -2.833  0.00  0.00    -0.155 OA
ATOM     34  O   UNL     1       3.674   1.823  -1.566  0.00  0.00    -0.155 OA
ATOM     35  C   UNL     1       5.470   0.147  -0.541  0.00  0.00    +0.218 C 
ENDBRANCH   7  32
TORSDOF 6
