REMARK  Name = ZINC08845414
REMARK  8 active torsions:
REMARK  status: ('A' for Active; 'I' for Inactive)
REMARK    1  A    between atoms: C_1  and  C_2
REMARK    2  A    between atoms: C_5  and  C_8
REMARK    3  A    between atoms: C_8  and  N_9
REMARK    4  A    between atoms: C_10  and  C_29
REMARK    5  A    between atoms: C_13  and  C_20
REMARK    6  A    between atoms: C_23  and  C_27
REMARK    7  A    between atoms: C_25  and  O_26
REMARK    8  A    between atoms: C_33  and  O_35
REMARK                            x       y       z     vdW  Elec       q    Type
REMARK                         _______ _______ _______ _____ _____    ______ ____
ROOT
ATOM      1  N   UNL     1       1.447  -4.746  -0.032  0.00  0.00    -0.281 N 
ATOM      2  C   UNL     1       2.249  -5.007  -1.232  0.00  0.00    +0.142 C 
ATOM      3  C   UNL     1       3.597  -5.469  -0.748  0.00  0.00    +0.035 A 
ATOM      4  C   UNL     1       4.848  -5.890  -1.067  0.00  0.00    +0.075 A 
ATOM      5  N   UNL     1       5.496  -6.120   0.113  0.00  0.00    -0.276 N 
ATOM      6  H   UNL     1       6.412  -6.431   0.194  0.00  0.00    +0.189 HD
ATOM      7  N   UNL     1       4.714  -5.863   1.100  0.00  0.00    -0.168 NA
ATOM      8  C   UNL     1       3.537  -5.461   0.664  0.00  0.00    +0.153 A 
ATOM      9  C   UNL     1       2.192  -5.002   1.057  0.00  0.00    +0.268 C 
ATOM     10  O   UNL     1       1.810  -4.876   2.204  0.00  0.00    -0.268 OA
ENDROOT
BRANCH   4  11
ATOM     11  C   UNL     1       5.402  -6.066  -2.428  0.00  0.00    +0.043 A 
ATOM     12  C   UNL     1       5.751  -7.337  -2.883  0.00  0.00    +0.034 A 
ATOM     13  C   UNL     1       6.267  -7.495  -4.154  0.00  0.00    +0.045 A 
ATOM     14  C   UNL     1       6.439  -6.396  -4.978  0.00  0.00    -0.029 A 
ATOM     15  C   UNL     1       6.096  -5.132  -4.537  0.00  0.00    +0.050 A 
ATOM     16  C   UNL     1       5.571  -4.959  -3.266  0.00  0.00    +0.126 A 
ATOM     17  C   UNL     1       7.003  -6.579  -6.364  0.00  0.00    +0.045 C 
ATOM     18 CL   UNL     1       6.702  -9.078  -4.720  0.00  0.00    -0.083 Cl
BRANCH  16  19
ATOM     19  O   UNL     1       5.229  -3.717  -2.834  0.00  0.00    -0.506 OA
ATOM     20  H   UNL     1       5.946  -3.243  -2.391  0.00  0.00    +0.292 HD
ENDBRANCH  16  19
ENDBRANCH   4  11
BRANCH   2  21
ATOM     21  C   UNL     1       2.394  -3.746  -2.043  0.00  0.00    -0.019 A 
ATOM     22  C   UNL     1       2.573  -2.531  -1.406  0.00  0.00    +0.006 A 
ATOM     23  C   UNL     1       2.706  -1.372  -2.147  0.00  0.00    +0.004 A 
ATOM     24  C   UNL     1       2.659  -1.424  -3.527  0.00  0.00    +0.045 A 
ATOM     25  C   UNL     1       2.479  -2.640  -4.169  0.00  0.00    +0.117 A 
ATOM     26  C   UNL     1       2.352  -3.803  -3.423  0.00  0.00    +0.051 A 
BRANCH  25  27
ATOM     27  O   UNL     1       2.432  -2.694  -5.526  0.00  0.00    -0.507 OA
ATOM     28  H   UNL     1       3.294  -2.826  -5.944  0.00  0.00    +0.292 HD
ENDBRANCH  25  27
ENDBRANCH   2  21
BRANCH   1  29
ATOM     29  C   UNL     1       0.059  -4.275  -0.021  0.00  0.00    +0.144 C 
BRANCH  29  34
ATOM     30  C   UNL     1      -0.018   1.503   0.010  0.00  0.00    +0.044 C 
ATOM     31  C   UNL     1       0.002  -0.004   0.002  0.00  0.00    -0.050 A 
ATOM     32  C   UNL     1       0.006  -0.689  -1.199  0.00  0.00    +0.003 A 
ATOM     33  C   UNL     1       0.025  -2.071  -1.206  0.00  0.00    +0.005 A 
ATOM     34  C   UNL     1       0.040  -2.768  -0.013  0.00  0.00    -0.030 A 
ATOM     35  C   UNL     1       0.037  -2.084   1.188  0.00  0.00    +0.005 A 
ATOM     36  C   UNL     1       0.023  -0.702   1.195  0.00  0.00    +0.003 A 
ENDBRANCH  29  34
ENDBRANCH   1  29
TORSDOF 6
