REMARK  Name = ZINC00876829
REMARK  7 active torsions:
REMARK  status: ('A' for Active; 'I' for Inactive)
REMARK    1  A    between atoms: C_1  and  C_2
REMARK    2  A    between atoms: C_4  and  C_30
REMARK    3  A    between atoms: C_6  and  N_8
REMARK    4  A    between atoms: C_10  and  C_20
REMARK    5  A    between atoms: C_15  and  O_19
REMARK    6  A    between atoms: N_22  and  C_23
REMARK    7  A    between atoms: C_23  and  C_24
REMARK                            x       y       z     vdW  Elec       q    Type
REMARK                         _______ _______ _______ _____ _____    ______ ____
ROOT
ATOM      1  N   UNL     1      -3.878   2.775   0.529  0.00  0.00    -0.213 NA
ATOM      2  C   UNL     1      -3.757   1.559   0.040  0.00  0.00    +0.233 A 
ATOM      3  C   UNL     1      -2.452   0.871   0.017  0.00  0.00    +0.099 A 
ATOM      4  C   UNL     1      -2.463  -0.517   0.017  0.00  0.00    +0.030 A 
ATOM      5  C   UNL     1      -3.718  -1.177  -0.001  0.00  0.00    +0.018 A 
ATOM      6  C   UNL     1      -3.793  -2.564   0.199  0.00  0.00    +0.015 A 
ATOM      7  C   UNL     1      -5.008  -3.183   0.221  0.00  0.00    +0.046 A 
ATOM      8  C   UNL     1      -6.179  -2.448   0.040  0.00  0.00    +0.120 A 
ATOM      9  C   UNL     1      -6.124  -1.080  -0.178  0.00  0.00    +0.092 A 
ATOM     10  C   UNL     1      -4.897  -0.437  -0.212  0.00  0.00    +0.141 A 
ATOM     11  O   UNL     1      -4.829   0.893  -0.469  0.00  0.00    -0.437 OA
ENDROOT
BRANCH   1  17
ATOM     12  C   UNL     1      -6.948   5.593  -2.039  0.00  0.00    +0.044 C 
ATOM     13  C   UNL     1      -6.601   4.815  -0.796  0.00  0.00    -0.048 A 
ATOM     14  C   UNL     1      -7.494   4.766   0.260  0.00  0.00    +0.006 A 
ATOM     15  C   UNL     1      -7.183   4.054   1.405  0.00  0.00    -0.048 A 
ATOM     16  C   UNL     1      -5.980   3.388   1.502  0.00  0.00    +0.031 A 
ATOM     17  C   UNL     1      -5.073   3.433   0.440  0.00  0.00    +0.068 A 
ATOM     18  C   UNL     1      -5.391   4.157  -0.711  0.00  0.00    +0.031 A 
ATOM     19  C   UNL     1      -8.162   4.008   2.550  0.00  0.00    +0.044 C 
ENDBRANCH   1  17
BRANCH   3  20
ATOM     20  C   UNL     1      -1.189   1.626   0.002  0.00  0.00    +0.249 C 
ATOM     21  O   UNL     1      -1.208   2.842   0.003  0.00  0.00    -0.270 OA
ATOM     22  N   UNL     1      -0.012   0.970  -0.012  0.00  0.00    -0.309 N 
ATOM     23  H   UNL     1       0.003  -0.000  -0.013  0.00  0.00    +0.149 HD
BRANCH  22  24
ATOM     24  C   UNL     1       1.245   1.722  -0.033  0.00  0.00    +0.136 C 
BRANCH  24  25
ATOM     25  C   UNL     1       2.423   0.745  -0.054  0.00  0.00    +0.135 C 
ATOM     26  C   UNL     1       3.764   1.519  -0.004  0.00  0.00    +0.035 C 
ATOM     27  C   UNL     1       4.704   0.443   0.605  0.00  0.00    +0.031 C 
ATOM     28  C   UNL     1       3.759  -0.312   1.565  0.00  0.00    +0.160 C 
ATOM     29  O   UNL     1       2.416  -0.069   1.130  0.00  0.00    -0.375 OA
ENDBRANCH  24  25
ENDBRANCH  22  24
ENDBRANCH   3  20
BRANCH   8  30
ATOM     30  O   UNL     1      -7.381  -3.076   0.077  0.00  0.00    -0.507 OA
ATOM     31  H   UNL     1      -7.683  -3.400  -0.783  0.00  0.00    +0.292 HD
ENDBRANCH   8  30
TORSDOF 5
