REMARK  Name = ZINC62321434
REMARK  6 active torsions:
REMARK  status: ('A' for Active; 'I' for Inactive)
REMARK    1  A    between atoms: C_1  and  C_2
REMARK    2  A    between atoms: C_5  and  N_9
REMARK    3  A    between atoms: C_6  and  O_8
REMARK    4  A    between atoms: C_10  and  C_12
REMARK    5  A    between atoms: N_14  and  C_24
REMARK    6  A    between atoms: C_19  and  N_23
REMARK                            x       y       z     vdW  Elec       q    Type
REMARK                         _______ _______ _______ _____ _____    ______ ____
ROOT
ATOM      1  C   UNL     1      -0.560  -6.304  -1.212  0.00  0.00    +0.100 A 
ATOM      2  C   UNL     1      -0.537  -7.003  -2.400  0.00  0.00    +0.102 A 
ATOM      3  N   UNL     1      -0.480  -8.342  -2.439  0.00  0.00    -0.349 N 
ATOM      4  C   UNL     1      -0.441  -9.121  -1.303  0.00  0.00    +0.054 A 
ATOM      5  C   UNL     1      -0.382 -10.508  -1.399  0.00  0.00    +0.026 A 
ATOM      6  C   UNL     1      -0.343 -11.280  -0.257  0.00  0.00    +0.004 A 
ATOM      7  C   UNL     1      -0.360 -10.695   0.998  0.00  0.00    +0.023 A 
ATOM      8  C   UNL     1      -0.418  -9.315   1.123  0.00  0.00    +0.037 A 
ATOM      9  C   UNL     1      -0.458  -8.520  -0.032  0.00  0.00    +0.066 A 
ATOM     10  C   UNL     1      -0.514  -7.053   0.056  0.00  0.00    +0.203 A 
ATOM     11  O   UNL     1      -0.526  -6.481   1.132  0.00  0.00    -0.286 OA
ATOM     12  C   UNL     1      -0.460  -9.005  -3.746  0.00  0.00    +0.149 C 
ENDROOT
BRANCH   1  14
ATOM     13  N   UNL     1      -0.531  -4.157  -0.048  0.00  0.00    -0.278 N 
ATOM     14  C   UNL     1      -0.622  -4.835  -1.210  0.00  0.00    +0.253 C 
ATOM     15  O   UNL     1      -0.757  -4.230  -2.257  0.00  0.00    -0.270 OA
ATOM     16  H   UNL     1      -0.376  -4.636   0.781  0.00  0.00    +0.155 HD
BRANCH  13  21
ATOM     17  C   UNL     1      -1.050   1.496  -0.014  0.00  0.00    +0.044 C 
ATOM     18  C   UNL     1      -0.913  -0.004  -0.020  0.00  0.00    -0.047 A 
ATOM     19  C   UNL     1      -0.466  -0.651  -1.158  0.00  0.00    +0.005 A 
ATOM     20  C   UNL     1      -0.338  -2.027  -1.170  0.00  0.00    +0.027 A 
ATOM     21  C   UNL     1      -0.659  -2.763  -0.038  0.00  0.00    +0.076 A 
ATOM     22  C   UNL     1      -1.110  -2.111   1.107  0.00  0.00    +0.138 A 
ATOM     23  C   UNL     1      -1.230  -0.731   1.113  0.00  0.00    +0.050 A 
BRANCH  22  24
ATOM     24  O   UNL     1      -1.427  -2.827   2.219  0.00  0.00    -0.505 OA
ATOM     25  H   UNL     1      -0.685  -2.959   2.826  0.00  0.00    +0.292 HD
ENDBRANCH  22  24
ENDBRANCH  13  21
ENDBRANCH   1  14
BRANCH   8  26
ATOM     26  N   UNL     1      -0.435  -8.725   2.381  0.00  0.00    -0.357 N 
ATOM     27  H   UNL     1      -0.578  -9.270   3.171  0.00  0.00    +0.142 HD
ATOM     28  H   UNL     1      -0.306  -7.768   2.470  0.00  0.00    +0.142 HD
ENDBRANCH   8  26
TORSDOF 4
