REMARK  Name = ZINC24549791
REMARK  7 active torsions:
REMARK  status: ('A' for Active; 'I' for Inactive)
REMARK    1  A    between atoms: C_4  and  O_29
REMARK    2  A    between atoms: C_5  and  C_7
REMARK    3  A    between atoms: C_9  and  C_20
REMARK    4  A    between atoms: N_11  and  C_12
REMARK    5  A    between atoms: C_12  and  C_13
REMARK    6  A    between atoms: C_13  and  N_14
REMARK    7  A    between atoms: C_21  and  C_22
REMARK                            x       y       z     vdW  Elec       q    Type
REMARK                         _______ _______ _______ _____ _____    ______ ____
ROOT
ATOM      1  C   UNL     1       1.236  -2.166  -0.127  0.00  0.00    +0.163 A 
ATOM      2  N   UNL     1       2.314  -2.918  -0.189  0.00  0.00    -0.207 NA
ATOM      3  C   UNL     1       1.977  -4.206  -0.034  0.00  0.00    +0.175 A 
ATOM      4  N   UNL     1       0.672  -4.291   0.130  0.00  0.00    -0.150 NA
ATOM      5  N   UNL     1       0.167  -2.981   0.079  0.00  0.00    -0.246 N 
ENDROOT
BRANCH   1  10
ATOM      6  C   UNL     1       0.463   1.444   0.562  0.00  0.00    +0.001 A 
ATOM      7  C   UNL     1       1.114   2.068  -0.488  0.00  0.00    +0.004 A 
ATOM      8  C   UNL     1       1.806   1.322  -1.423  0.00  0.00    +0.046 A 
ATOM      9  C   UNL     1       1.851  -0.059  -1.313  0.00  0.00    +0.128 A 
ATOM     10  C   UNL     1       1.194  -0.693  -0.253  0.00  0.00    +0.060 A 
ATOM     11  C   UNL     1       0.499   0.071   0.685  0.00  0.00    +0.015 A 
BRANCH   9  12
ATOM     12  O   UNL     1       2.530  -0.794  -2.231  0.00  0.00    -0.506 OA
ATOM     13  H   UNL     1       3.459  -0.944  -2.007  0.00  0.00    +0.292 HD
ENDBRANCH   9  12
ENDBRANCH   1  10
BRANCH   3  14
ATOM     14  C   UNL     1       2.915  -5.343  -0.045  0.00  0.00    +0.050 C 
ATOM     15  C   UNL     1       4.228  -5.129  -0.222  0.00  0.00    +0.011 C 
BRANCH  15  16
ATOM     16  C   UNL     1       5.165  -6.266  -0.233  0.00  0.00    -0.025 A 
ATOM     17  C   UNL     1       4.689  -7.570  -0.066  0.00  0.00    +0.009 A 
ATOM     18  C   UNL     1       5.572  -8.629  -0.077  0.00  0.00    +0.016 A 
ATOM     19  C   UNL     1       6.927  -8.404  -0.253  0.00  0.00    +0.018 A 
ATOM     20  C   UNL     1       7.405  -7.115  -0.419  0.00  0.00    +0.016 A 
ATOM     21  C   UNL     1       6.533  -6.047  -0.416  0.00  0.00    +0.009 A 
ATOM     22 BR   UNL     1       8.129  -9.863  -0.267  0.00  0.00    -0.050 Br
ENDBRANCH  15  16
ENDBRANCH   3  14
BRANCH   5  23
ATOM     23  C   UNL     1      -1.234  -2.575   0.217  0.00  0.00    +0.127 C 
BRANCH  23  24
ATOM     24  C   UNL     1      -1.895  -2.548  -1.162  0.00  0.00    -0.055 C 
BRANCH  24  25
ATOM     25  N   UNL     1      -3.300  -2.140  -1.023  0.00  0.00    +0.381 N 
ATOM     26  C   UNL     1      -4.029  -3.155  -0.253  0.00  0.00    -0.079 C 
ATOM     27  C   UNL     1      -5.472  -2.696  -0.036  0.00  0.00    -0.019 C 
ATOM     28  C   UNL     1      -6.150  -2.501  -1.396  0.00  0.00    -0.004 C 
ATOM     29  C   UNL     1      -5.339  -1.496  -2.219  0.00  0.00    -0.019 C 
ATOM     30  C   UNL     1      -3.900  -1.999  -2.355  0.00  0.00    -0.079 C 
ATOM     31  H   UNL     1      -3.346  -1.256  -0.539  0.00  0.00    -0.082 HD
ENDBRANCH  24  25
ENDBRANCH  23  24
ENDBRANCH   5  23
TORSDOF 7
