REMARK  Name = ZINC33265161
REMARK  6 active torsions:
REMARK  status: ('A' for Active; 'I' for Inactive)
REMARK    1  A    between atoms: C_1  and  O_2
REMARK    2  A    between atoms: O_2  and  C_3
REMARK    3  A    between atoms: C_8  and  C_9
REMARK    4  A    between atoms: C_12  and  C_14
REMARK    5  A    between atoms: C_15  and  N_26
REMARK    6  A    between atoms: N_16  and  C_19
REMARK                            x       y       z     vdW  Elec       q    Type
REMARK                         _______ _______ _______ _____ _____    ______ ____
ROOT
ATOM      1  C   UNL     1       3.458   6.500   0.004  0.00  0.00    +0.159 A 
ATOM      2  C   UNL     1       3.386   7.883   0.013  0.00  0.00    +0.150 A 
ATOM      3  N   UNL     1       4.673   8.334   0.004  0.00  0.00    -0.198 N 
ATOM      4  N   UNL     1       5.496   7.199  -0.011  0.00  0.00    -0.058 NA
ATOM      5  N   UNL     1       4.754   6.148  -0.004  0.00  0.00    -0.125 NA
ENDROOT
BRANCH   3   6
ATOM      6  C   UNL     1       5.091   9.672   0.007  0.00  0.00    +0.069 A 
ATOM      7  C   UNL     1       4.356  10.632  -0.675  0.00  0.00    +0.029 A 
ATOM      8  C   UNL     1       4.767  11.951  -0.666  0.00  0.00    +0.022 A 
ATOM      9  C   UNL     1       5.917  12.313   0.013  0.00  0.00    +0.041 A 
ATOM     10  C   UNL     1       6.655  11.357   0.689  0.00  0.00    +0.022 A 
ATOM     11  C   UNL     1       6.245  10.038   0.687  0.00  0.00    +0.029 A 
ATOM     12 CL   UNL     1       6.436  13.970   0.016  0.00  0.00    -0.084 Cl
ENDBRANCH   3   6
BRANCH   1  16
ATOM     13  C   UNL     1       1.167   3.571   0.010  0.00  0.00    +0.082 A 
ATOM     14  C   UNL     1      -0.022   4.249   0.024  0.00  0.00    +0.075 A 
ATOM     15  S   UNL     1       0.561   5.940   0.028  0.00  0.00    -0.073 S 
ATOM     16  C   UNL     1       2.310   5.573   0.010  0.00  0.00    +0.132 A 
ATOM     17  N   UNL     1       2.302   4.248   0.008  0.00  0.00    -0.237 NA
BRANCH  13  23
ATOM     18  C   UNL     1       2.397   1.397  -0.012  0.00  0.00    +0.129 A 
ATOM     19  C   UNL     1       2.401   0.012  -0.020  0.00  0.00    +0.046 A 
ATOM     20  C   UNL     1       1.207  -0.684  -0.013  0.00  0.00    +0.004 A 
ATOM     21  C   UNL     1       0.002  -0.004   0.002  0.00  0.00    +0.001 A 
ATOM     22  C   UNL     1      -0.017   1.376   0.010  0.00  0.00    +0.013 A 
ATOM     23  C   UNL     1       1.181   2.087   0.002  0.00  0.00    +0.043 A 
BRANCH  18  25
ATOM     24  C   UNL     1       4.772   1.310  -0.033  0.00  0.00    +0.277 C 
ATOM     25  O   UNL     1       3.570   2.083  -0.019  0.00  0.00    -0.494 OA
ENDBRANCH  18  25
ENDBRANCH  13  23
ENDBRANCH   1  16
BRANCH   2  26
ATOM     26  N   UNL     1       2.234   8.654   0.028  0.00  0.00    -0.341 N 
ATOM     27  H   UNL     1       2.307   9.752   0.034  0.00  0.00    +0.144 HD
ATOM     28  H   UNL     1       1.247   8.169   0.035  0.00  0.00    +0.144 HD
ENDBRANCH   2  26
TORSDOF 5
