REMARK  Name = ZINC45714257
REMARK  6 active torsions:
REMARK  status: ('A' for Active; 'I' for Inactive)
REMARK    1  A    between atoms: C_1  and  C_2
REMARK    2  A    between atoms: C_5  and  C_7
REMARK    3  A    between atoms: C_9  and  C_12
REMARK    4  A    between atoms: C_12  and  C_13
REMARK    5  A    between atoms: C_13  and  N_15
REMARK    6  A    between atoms: N_17  and  C_21
REMARK                            x       y       z     vdW  Elec       q    Type
REMARK                         _______ _______ _______ _____ _____    ______ ____
ROOT
ATOM      1  C   UNL     1       1.662  -3.220  -0.025  0.00  0.00    +0.144 A 
ATOM      2  N   UNL     1       2.990  -3.240  -0.027  0.00  0.00    -0.240 NA
ATOM      3  C   UNL     1       3.654  -4.372  -0.037  0.00  0.00    +0.058 A 
ATOM      4  C   UNL     1       2.980  -5.552  -0.047  0.00  0.00    +0.071 A 
ATOM      5  S   UNL     1       1.289  -4.969  -0.033  0.00  0.00    -0.072 S 
ENDROOT
BRANCH   1  10
ATOM      6  C   UNL     1      -0.018   1.503   0.010  0.00  0.00    +0.086 C 
ATOM      7  C   UNL     1       0.002  -0.004   0.002  0.00  0.00    +0.103 A 
ATOM      8  C   UNL     1      -1.083  -0.804   0.003  0.00  0.00    +0.045 A 
ATOM      9  C   UNL     1      -0.617  -2.133  -0.008  0.00  0.00    +0.052 A 
ATOM     10  C   UNL     1       0.745  -2.071  -0.014  0.00  0.00    +0.160 A 
ATOM     11  O   UNL     1       1.104  -0.771  -0.013  0.00  0.00    -0.458 OA
ENDBRANCH   1  10
BRANCH   3  12
ATOM     12  C   UNL     1       5.160  -4.363  -0.039  0.00  0.00    +0.153 C 
BRANCH  12  13
ATOM     13  C   UNL     1       5.657  -3.534  -1.196  0.00  0.00    +0.244 C 
ATOM     14  O   UNL     1       4.862  -3.002  -1.948  0.00  0.00    -0.273 OA
BRANCH  13  15
ATOM     15  N   UNL     1       6.960  -3.386  -1.395  0.00  0.00    -0.156 NA
ATOM     16  C   UNL     1       7.399  -2.652  -2.419  0.00  0.00    +0.165 A 
ATOM     17  N   UNL     1       8.684  -2.393  -2.783  0.00  0.00    -0.331 N 
ATOM     18  C   UNL     1       8.912  -1.613  -3.873  0.00  0.00    +0.094 A 
ATOM     19  C   UNL     1       7.843  -1.144  -4.527  0.00  0.00    +0.066 A 
ATOM     20  S   UNL     1       6.499  -1.830  -3.578  0.00  0.00    -0.061 S 
ATOM     21  C   UNL     1       9.802  -2.943  -2.014  0.00  0.00    +0.150 C 
ENDBRANCH  13  15
ENDBRANCH  12  13
ENDBRANCH   3  12
TORSDOF 4
