REMARK  Name = ZINC33503462
REMARK  4 active torsions:
REMARK  status: ('A' for Active; 'I' for Inactive)
REMARK    1  A    between atoms: C_1  and  C_2
REMARK    2  A    between atoms: C_9  and  C_13
REMARK    3  A    between atoms: C_10  and  C_11
REMARK    4  A    between atoms: C_16  and  N_19
REMARK                            x       y       z     vdW  Elec       q    Type
REMARK                         _______ _______ _______ _____ _____    ______ ____
ROOT
ATOM      1  C   UNL     1      -2.534   1.103  -0.033  0.00  0.00    +0.044 C 
ATOM      2  C   UNL     1      -1.214   1.830  -0.003  0.00  0.00    -0.046 A 
ATOM      3  C   UNL     1      -1.182   3.232   0.082  0.00  0.00    +0.021 A 
ATOM      4  C   UNL     1      -0.002   3.885   0.104  0.00  0.00    +0.093 A 
ATOM      5  N   UNL     1       1.176   3.197   0.048  0.00  0.00    -0.302 N 
ATOM      6  C   UNL     1       1.177   1.828  -0.031  0.00  0.00    +0.139 A 
ATOM      7  C   UNL     1      -0.048   1.131  -0.054  0.00  0.00    +0.050 A 
ATOM      8  N   UNL     1       2.435   1.415  -0.073  0.00  0.00    -0.227 NA
ATOM      9  C   UNL     1       3.250   2.481  -0.022  0.00  0.00    +0.094 A 
ATOM     10  C   UNL     1       2.481   3.603   0.053  0.00  0.00    +0.066 A 
ENDROOT
BRANCH   9  11
ATOM     11  C   UNL     1       4.733   2.443  -0.045  0.00  0.00    +0.002 A 
ATOM     12  C   UNL     1       5.397   1.576  -0.911  0.00  0.00    +0.012 A 
ATOM     13  C   UNL     1       6.777   1.548  -0.931  0.00  0.00    +0.033 A 
ATOM     14  C   UNL     1       7.500   2.372  -0.087  0.00  0.00    +0.126 A 
ATOM     15  C   UNL     1       6.846   3.230   0.778  0.00  0.00    +0.033 A 
ATOM     16  C   UNL     1       5.467   3.270   0.803  0.00  0.00    +0.012 A 
BRANCH  14  17
ATOM     17  N   UNL     1       8.980   2.333  -0.109  0.00  0.00    +0.056 N 
ATOM     18  O   UNL     1       9.619   3.057   0.634  0.00  0.00    -0.126 OA
ATOM     19  O   UNL     1       9.558   1.578  -0.869  0.00  0.00    -0.126 OA
ENDBRANCH  14  17
ENDBRANCH   9  11
BRANCH  10  20
ATOM     20  C   UNL     1       2.977   5.024   0.129  0.00  0.00    +0.164 C 
ATOM     21 CL   UNL     1       3.047   5.545   1.854  0.00  0.00    -0.119 Cl
ENDBRANCH  10  20
TORSDOF 3
