REMARK  Name = ZINC39594374
REMARK  9 active torsions:
REMARK  status: ('A' for Active; 'I' for Inactive)
REMARK    1  A    between atoms: C_1  and  C_2
REMARK    2  A    between atoms: C_5  and  C_35
REMARK    3  A    between atoms: N_8  and  S_10
REMARK    4  A    between atoms: S_10  and  C_13
REMARK    5  A    between atoms: C_17  and  C_19
REMARK    6  A    between atoms: C_19  and  O_21
REMARK    7  A    between atoms: O_21  and  C_22
REMARK    8  A    between atoms: C_22  and  C_23
REMARK    9  A    between atoms: N_25  and  C_26
REMARK                            x       y       z     vdW  Elec       q    Type
REMARK                         _______ _______ _______ _____ _____    ______ ____
ROOT
ATOM      1  C   UNL     1       2.523  -3.252  -0.230  0.00  0.00    +0.106 A 
ATOM      2  C   UNL     1       2.060  -4.380  -0.884  0.00  0.00    +0.028 A 
ATOM      3  C   UNL     1       2.492  -4.671  -2.166  0.00  0.00    +0.003 A 
ATOM      4  C   UNL     1       3.389  -3.836  -2.800  0.00  0.00    +0.015 A 
ATOM      5  C   UNL     1       3.859  -2.696  -2.146  0.00  0.00    +0.061 A 
ATOM      6  C   UNL     1       3.414  -2.406  -0.855  0.00  0.00    +0.043 A 
ENDROOT
BRANCH   1   7
ATOM      7  S   UNL     1       1.966  -2.892   1.403  0.00  0.00    +0.061 S 
ATOM      8  O   UNL     1       2.960  -2.071   1.999  0.00  0.00    -0.153 OA
ATOM      9  O   UNL     1       1.555  -4.127   1.974  0.00  0.00    -0.153 OA
BRANCH   7  15
ATOM     10  C   UNL     1      -0.058   1.535  -0.036  0.00  0.00    +0.009 C 
ATOM     11  C   UNL     1      -0.032   0.005  -0.037  0.00  0.00    +0.002 C 
ATOM     12  C   UNL     1      -1.466  -0.529  -0.029  0.00  0.00    +0.009 C 
ATOM     13  C   UNL     1      -1.443  -2.059  -0.063  0.00  0.00    +0.002 C 
ATOM     14  C   UNL     1      -0.724  -2.583   1.184  0.00  0.00    +0.112 C 
ATOM     15  N   UNL     1       0.604  -1.960   1.261  0.00  0.00    -0.176 NA
ATOM     16  C   UNL     1       0.703  -0.495   1.210  0.00  0.00    +0.112 C 
ATOM     17  C   UNL     1      -2.877  -2.591  -0.089  0.00  0.00    +0.009 C 
ENDBRANCH   7  15
ENDBRANCH   1   7
BRANCH   5  18
ATOM     18  C   UNL     1       4.819  -1.798  -2.820  0.00  0.00    +0.340 C 
ATOM     19  O   UNL     1       5.227  -0.806  -2.248  0.00  0.00    -0.245 OA
BRANCH  18  20
ATOM     20  O   UNL     1       5.243  -2.077  -4.067  0.00  0.00    -0.452 OA
BRANCH  20  21
ATOM     21  C   UNL     1       6.171  -1.165  -4.657  0.00  0.00    +0.328 C 
BRANCH  21  22
ATOM     22  C   UNL     1       6.528  -1.638  -6.043  0.00  0.00    +0.255 C 
ATOM     23  O   UNL     1       6.035  -2.656  -6.482  0.00  0.00    -0.272 OA
ATOM     24  N   UNL     1       7.394  -0.930  -6.795  0.00  0.00    -0.281 N 
ATOM     25  H   UNL     1       7.737  -0.082  -6.471  0.00  0.00    +0.155 HD
BRANCH  24  26
ATOM     26  C   UNL     1       7.798  -1.416  -8.040  0.00  0.00    +0.062 A 
ATOM     27  C   UNL     1       6.923  -2.113  -8.814  0.00  0.00    +0.025 A 
ATOM     28  C   UNL     1       7.295  -2.612 -10.061  0.00  0.00    +0.004 A 
ATOM     29  C   UNL     1       8.542  -2.425 -10.556  0.00  0.00    +0.031 A 
ATOM     30  C   UNL     1       9.511  -1.707  -9.805  0.00  0.00    +0.102 A 
ATOM     31  C   UNL     1       9.126  -1.177  -8.502  0.00  0.00    +0.121 A 
ATOM     32  N   UNL     1      10.111  -0.517  -7.892  0.00  0.00    -0.189 NA
ATOM     33  S   UNL     1      11.364  -0.580  -8.899  0.00  0.00    +0.117 S 
ATOM     34  N   UNL     1      10.774  -1.430 -10.131  0.00  0.00    -0.191 NA
ENDBRANCH  24  26
ENDBRANCH  21  22
ENDBRANCH  20  21
ENDBRANCH  18  20
ENDBRANCH   5  18
TORSDOF 7
