REMARK  Name = ZINC63859354
REMARK  7 active torsions:
REMARK  status: ('A' for Active; 'I' for Inactive)
REMARK    1  A    between atoms: C_1  and  C_2
REMARK    2  A    between atoms: C_5  and  C_9
REMARK    3  A    between atoms: C_7  and  C_8
REMARK    4  A    between atoms: N_13  and  C_14
REMARK    5  A    between atoms: C_17  and  S_23
REMARK    6  A    between atoms: C_19  and  N_20
REMARK    7  A    between atoms: S_23  and  N_26
REMARK                            x       y       z     vdW  Elec       q    Type
REMARK                         _______ _______ _______ _____ _____    ______ ____
ROOT
ATOM      1  C   UNL     1       2.211  -4.506  -1.364  0.00  0.00    +0.061 A 
ATOM      2  C   UNL     1       2.615  -3.335  -1.994  0.00  0.00    +0.027 A 
ATOM      3  C   UNL     1       3.958  -3.095  -2.208  0.00  0.00    +0.030 A 
ATOM      4  C   UNL     1       4.901  -4.020  -1.796  0.00  0.00    +0.107 A 
ATOM      5  C   UNL     1       4.503  -5.186  -1.170  0.00  0.00    +0.063 A 
ATOM      6  C   UNL     1       3.161  -5.429  -0.947  0.00  0.00    +0.149 A 
ENDROOT
BRANCH   1  11
ATOM      7  C   UNL     1       0.110  -4.422   0.079  0.00  0.00    +0.104 C 
ATOM      8  C   UNL     1      -1.344  -4.898  -0.126  0.00  0.00    +0.029 C 
ATOM      9  C   UNL     1      -1.204  -5.977  -1.232  0.00  0.00    +0.021 C 
ATOM     10  C   UNL     1      -0.071  -5.381  -2.106  0.00  0.00    +0.106 C 
ATOM     11  N   UNL     1       0.854  -4.751  -1.146  0.00  0.00    -0.321 N 
BRANCH   7  16
ATOM     12  C   UNL     1       0.198   1.288   0.963  0.00  0.00    +0.044 C 
ATOM     13  C   UNL     1       0.175  -0.201   0.732  0.00  0.00    -0.048 A 
ATOM     14  C   UNL     1      -0.117  -0.702  -0.523  0.00  0.00    +0.004 A 
ATOM     15  C   UNL     1      -0.138  -2.068  -0.734  0.00  0.00    +0.006 A 
ATOM     16  C   UNL     1       0.134  -2.933   0.309  0.00  0.00    -0.027 A 
ATOM     17  C   UNL     1       0.426  -2.433   1.564  0.00  0.00    +0.009 A 
ATOM     18  C   UNL     1       0.452  -1.066   1.774  0.00  0.00    -0.047 A 
ATOM     19  C   UNL     1       0.776  -0.520   3.141  0.00  0.00    +0.044 C 
ENDBRANCH   7  16
ENDBRANCH   1  11
BRANCH   6  20
ATOM     20  N   UNL     1       2.736  -6.675  -0.271  0.00  0.00    +0.058 N 
ATOM     21  O   UNL     1       3.565  -7.432   0.179  0.00  0.00    -0.126 OA
ATOM     22  O   UNL     1       1.560  -6.936  -0.168  0.00  0.00    -0.126 OA
ENDBRANCH   6  20
BRANCH   4  23
ATOM     23  S   UNL     1       6.613  -3.710  -2.071  0.00  0.00    +0.056 S 
ATOM     24  O   UNL     1       7.258  -4.976  -2.084  0.00  0.00    -0.153 OA
ATOM     25  O   UNL     1       6.692  -2.804  -3.163  0.00  0.00    -0.153 OA
BRANCH  23  26
ATOM     26  N   UNL     1       7.184  -2.902  -0.743  0.00  0.00    -0.204 NA
ATOM     27  H   UNL     1       6.586  -2.692  -0.009  0.00  0.00    +0.144 HD
ATOM     28  H   UNL     1       8.116  -2.637  -0.700  0.00  0.00    +0.144 HD
ENDBRANCH  23  26
ENDBRANCH   4  23
TORSDOF 5
