REMARK  Name = ZINC66534225
REMARK  8 active torsions:
REMARK  status: ('A' for Active; 'I' for Inactive)
REMARK    1  A    between atoms: C_10  and  N_12
REMARK    2  A    between atoms: C_13  and  C_15
REMARK    3  A    between atoms: C_15  and  O_16
REMARK    4  A    between atoms: O_16  and  C_17
REMARK    5  A    between atoms: C_17  and  C_19
REMARK    6  A    between atoms: C_19  and  N_20
REMARK    7  A    between atoms: N_23  and  C_24
REMARK    8  A    between atoms: C_24  and  C_25
REMARK                            x       y       z     vdW  Elec       q    Type
REMARK                         _______ _______ _______ _____ _____    ______ ____
ROOT
ATOM      1  O   UNL     1       6.854   2.930  -0.798  0.00  0.00    -0.454 OA
ENDROOT
BRANCH   1   2
ATOM      2  C   UNL     1       7.708   3.683  -1.509  0.00  0.00    +0.325 C 
ATOM      3  O   UNL     1       7.928   3.417  -2.667  0.00  0.00    -0.249 OA
BRANCH   2   4
ATOM      4  C   UNL     1       8.392   4.860  -0.863  0.00  0.00    +0.226 C 
BRANCH   4   5
ATOM      5  N   UNL     1       9.267   5.513  -1.841  0.00  0.00    -0.289 N 
ATOM      6  C   UNL     1       9.985   6.597  -1.484  0.00  0.00    +0.300 C 
ATOM      7  O   UNL     1       9.907   7.032  -0.351  0.00  0.00    -0.253 OA
ATOM      8  N   UNL     1      10.789   7.198  -2.383  0.00  0.00    -0.292 N 
ATOM      9  H   UNL     1       9.329   5.166  -2.744  0.00  0.00    +0.151 HD
ATOM     10  H   UNL     1      10.852   6.850  -3.287  0.00  0.00    +0.151 HD
BRANCH   8  11
ATOM     11  C   UNL     1      11.570   8.375  -1.996  0.00  0.00    +0.180 C 
BRANCH  11  12
ATOM     12  C   UNL     1      12.380   8.851  -3.174  0.00  0.00    +0.122 A 
ATOM     13  C   UNL     1      11.981   9.750  -4.091  0.00  0.00    +0.046 A 
ATOM     14  C   UNL     1      13.045   9.898  -5.010  0.00  0.00    +0.041 A 
ATOM     15  C   UNL     1      14.031   9.081  -4.599  0.00  0.00    +0.195 A 
ATOM     16  O   UNL     1      13.625   8.454  -3.483  0.00  0.00    -0.466 OA
ENDBRANCH  11  12
ENDBRANCH   8  11
ENDBRANCH   4   5
ENDBRANCH   2   4
ENDBRANCH   1   2
BRANCH   1  17
ATOM     17  C   UNL     1       6.241   1.831  -1.474  0.00  0.00    +0.327 C 
BRANCH  17  19
ATOM     18  N   UNL     1       4.631   0.029  -0.946  0.00  0.00    -0.306 N 
ATOM     19  C   UNL     1       5.321   1.107  -0.525  0.00  0.00    +0.251 C 
ATOM     20  O   UNL     1       5.202   1.495   0.618  0.00  0.00    -0.272 OA
ATOM     21  H   UNL     1       4.726  -0.282  -1.860  0.00  0.00    +0.149 HD
BRANCH  18  31
ATOM     22  C   UNL     1      -0.017   1.375   0.010  0.00  0.00    +0.000 A 
ATOM     23  C   UNL     1       1.174   2.078   0.002  0.00  0.00    +0.000 A 
ATOM     24  C   UNL     1       2.372   1.395  -0.010  0.00  0.00    +0.006 A 
ATOM     25  C   UNL     1       2.393   0.006  -0.017  0.00  0.00    -0.024 A 
ATOM     26  C   UNL     1       1.208  -0.694  -0.015  0.00  0.00    -0.042 A 
ATOM     27  C   UNL     1       0.002  -0.004   0.002  0.00  0.00    +0.004 A 
ATOM     28  C   UNL     1       1.155  -2.199  -0.038  0.00  0.00    +0.035 C 
ATOM     29  C   UNL     1       2.501  -2.790   0.375  0.00  0.00    +0.007 C 
ATOM     30  C   UNL     1       3.599  -2.130  -0.467  0.00  0.00    +0.027 C 
ATOM     31  C   UNL     1       3.737  -0.675  -0.023  0.00  0.00    +0.104 C 
ENDBRANCH  18  31
ENDBRANCH  17  19
ENDBRANCH   1  17
TORSDOF 8
