REMARK  Name = ZINC57953966
REMARK  6 active torsions:
REMARK  status: ('A' for Active; 'I' for Inactive)
REMARK    1  A    between atoms: C_1  and  C_2
REMARK    2  A    between atoms: C_4  and  C_19
REMARK    3  A    between atoms: C_5  and  C_18
REMARK    4  A    between atoms: C_6  and  C_9
REMARK    5  A    between atoms: C_7  and  C_8
REMARK    6  A    between atoms: C_12  and  N_17
REMARK                            x       y       z     vdW  Elec       q    Type
REMARK                         _______ _______ _______ _____ _____    ______ ____
ROOT
ATOM      1  C   UNL     1      -0.231   1.487  -0.179  0.00  0.00    +0.044 C 
ATOM      2  C   UNL     1      -0.100  -0.012  -0.089  0.00  0.00    -0.047 A 
ATOM      3  C   UNL     1       0.034  -0.765  -1.240  0.00  0.00    +0.007 A 
ATOM      4  C   UNL     1       0.154  -2.139  -1.157  0.00  0.00    -0.047 A 
ATOM      5  C   UNL     1       0.142  -2.761   0.077  0.00  0.00    -0.041 A 
ATOM      6  C   UNL     1       0.010  -2.008   1.229  0.00  0.00    -0.001 A 
ATOM      7  C   UNL     1      -0.106  -0.633   1.146  0.00  0.00    -0.041 A 
ATOM      8  C   UNL     1      -0.245   0.189   2.402  0.00  0.00    +0.044 C 
ATOM      9  C   UNL     1       0.272  -4.260   0.168  0.00  0.00    +0.044 C 
ATOM     10  C   UNL     1       0.298  -2.960  -2.413  0.00  0.00    +0.044 C 
ENDROOT
BRANCH   6  11
ATOM     11  C   UNL     1      -0.004  -2.686   2.575  0.00  0.00    +0.209 C 
ATOM     12  C   UNL     1      -1.317  -3.483   2.768  0.00  0.00    +0.079 C 
ATOM     13  C   UNL     1      -0.828  -4.758   3.496  0.00  0.00    +0.165 C 
ATOM     14  C   UNL     1       0.670  -4.537   3.645  0.00  0.00    +0.325 C 
ATOM     15  O   UNL     1       1.395  -5.016   4.484  0.00  0.00    -0.249 OA
ATOM     16  O   UNL     1       1.029  -3.692   2.647  0.00  0.00    -0.455 OA
BRANCH  13  17
ATOM     17  N   UNL     1      -1.098  -5.952   2.684  0.00  0.00    -0.318 NA
ATOM     18  H   UNL     1      -0.782  -6.788   3.153  0.00  0.00    +0.119 HD
ATOM     19  H   UNL     1      -2.078  -6.017   2.452  0.00  0.00    +0.119 HD
ENDBRANCH  13  17
ENDBRANCH   6  11
TORSDOF 2
