REMARK  Name = ZINC33392137
REMARK  3 active torsions:
REMARK  status: ('A' for Active; 'I' for Inactive)
REMARK    1  A    between atoms: C_3  and  O_16
REMARK    2  A    between atoms: C_4  and  O_15
REMARK    3  A    between atoms: C_6  and  C_7
REMARK                            x       y       z     vdW  Elec       q    Type
REMARK                         _______ _______ _______ _____ _____    ______ ____
ROOT
ATOM      1  C   UNL     1       0.148   1.199   0.619  0.00  0.00    +0.012 A 
ATOM      2  C   UNL     1       1.383   1.772   0.830  0.00  0.00    +0.050 A 
ATOM      3  C   UNL     1       2.539   1.021   0.662  0.00  0.00    +0.158 A 
ATOM      4  C   UNL     1       2.456  -0.318   0.280  0.00  0.00    +0.159 A 
ATOM      5  C   UNL     1       1.223  -0.901   0.067  0.00  0.00    +0.057 A 
ATOM      6  C   UNL     1       0.057  -0.144   0.235  0.00  0.00    -0.020 A 
ENDROOT
BRANCH   6   7
ATOM      7  C   UNL     1      -1.258  -0.758   0.011  0.00  0.00    +0.028 C 
ATOM      8  C   UNL     1      -1.353  -1.929  -0.669  0.00  0.00    +0.080 C 
ATOM      9  C   UNL     1      -2.527  -2.796  -0.891  0.00  0.00    +0.258 C 
ATOM     10  O   UNL     1      -3.623  -2.514  -0.443  0.00  0.00    -0.269 OA
ATOM     11  N   UNL     1      -2.328  -3.893  -1.601  0.00  0.00    -0.243 N 
ATOM     12  C   UNL     1      -1.112  -4.201  -2.096  0.00  0.00    +0.283 C 
ATOM     13  O   UNL     1      -0.789  -5.168  -2.759  0.00  0.00    -0.262 OA
ATOM     14  S   UNL     1      -0.092  -2.841  -1.548  0.00  0.00    -0.026 S 
ATOM     15  H   UNL     1      -3.074  -4.490  -1.770  0.00  0.00    +0.159 HD
ENDBRANCH   6   7
BRANCH   4  16
ATOM     16  O   UNL     1       3.591  -1.049   0.117  0.00  0.00    -0.503 OA
ATOM     17  H   UNL     1       3.887  -1.501   0.919  0.00  0.00    +0.292 HD
ENDBRANCH   4  16
BRANCH   3  18
ATOM     18  O   UNL     1       3.754   1.592   0.871  0.00  0.00    -0.503 OA
ATOM     19  H   UNL     1       4.072   1.517   1.781  0.00  0.00    +0.292 HD
ENDBRANCH   3  18
TORSDOF 3
