REMARK  Name = ZINC56157494
REMARK  7 active torsions:
REMARK  status: ('A' for Active; 'I' for Inactive)
REMARK    1  A    between atoms: C_1  and  C_2
REMARK    2  A    between atoms: C_5  and  N_9
REMARK    3  A    between atoms: C_10  and  C_12
REMARK    4  A    between atoms: C_12  and  C_14
REMARK    5  A    between atoms: C_12  and  N_15
REMARK    6  A    between atoms: N_15  and  C_16
REMARK    7  A    between atoms: C_20  and  N_22
REMARK                            x       y       z     vdW  Elec       q    Type
REMARK                         _______ _______ _______ _____ _____    ______ ____
ROOT
ATOM      1  N   UNL     1      -0.241  -6.821  -2.575  0.00  0.00    -0.333 N 
ATOM      2  H   UNL     1       0.110  -6.283  -3.302  0.00  0.00    +0.147 HD
ENDROOT
BRANCH   1   3
ATOM      3  C   UNL     1      -0.839  -8.054  -2.844  0.00  0.00    +0.029 A 
ATOM      4  C   UNL     1      -1.347  -8.822  -1.803  0.00  0.00    +0.023 A 
ATOM      5  C   UNL     1      -1.939 -10.042  -2.068  0.00  0.00    +0.004 A 
ATOM      6  C   UNL     1      -2.028 -10.502  -3.368  0.00  0.00    +0.024 A 
ATOM      7  C   UNL     1      -1.522  -9.739  -4.413  0.00  0.00    +0.040 A 
ATOM      8  C   UNL     1      -0.932  -8.511  -4.151  0.00  0.00    +0.046 A 
BRANCH   7   9
ATOM      9  N   UNL     1      -1.613 -10.206  -5.729  0.00  0.00    -0.254 N 
ATOM     10  C   UNL     1      -2.317 -11.425  -6.154  0.00  0.00    +0.134 C 
ATOM     11  C   UNL     1      -2.103 -11.462  -7.680  0.00  0.00    +0.125 C 
ATOM     12  N   UNL     1      -1.301 -10.260  -7.952  0.00  0.00    -0.297 N 
ATOM     13  C   UNL     1      -1.076  -9.611  -6.802  0.00  0.00    +0.307 C 
ATOM     14  O   UNL     1      -0.440  -8.576  -6.738  0.00  0.00    -0.252 OA
ATOM     15  H   UNL     1      -0.988  -9.979  -8.826  0.00  0.00    +0.150 HD
ENDBRANCH   7   9
ENDBRANCH   1   3
BRANCH   1  16
ATOM     16  C   UNL     1      -0.143  -6.339  -1.195  0.00  0.00    +0.154 C 
ATOM     17  C   UNL     1       1.109  -6.924  -0.539  0.00  0.00    +0.038 C 
BRANCH  16  19
ATOM     18  N   UNL     1       0.043  -4.167  -0.026  0.00  0.00    -0.282 N 
ATOM     19  C   UNL     1      -0.055  -4.835  -1.193  0.00  0.00    +0.237 C 
ATOM     20  O   UNL     1      -0.073  -4.225  -2.241  0.00  0.00    -0.273 OA
ATOM     21  H   UNL     1       0.138  -4.656   0.806  0.00  0.00    +0.155 HD
BRANCH  18  26
ATOM     22  C   UNL     1      -0.107   1.506   0.017  0.00  0.00    +0.044 C 
ATOM     23  C   UNL     1      -0.067  -0.000   0.007  0.00  0.00    -0.048 A 
ATOM     24  C   UNL     1      -0.655  -0.699  -1.031  0.00  0.00    +0.005 A 
ATOM     25  C   UNL     1      -0.621  -2.080  -1.045  0.00  0.00    +0.026 A 
ATOM     26  C   UNL     1       0.006  -2.767  -0.015  0.00  0.00    +0.069 A 
ATOM     27  C   UNL     1       0.598  -2.063   1.028  0.00  0.00    +0.145 A 
ATOM     28  C   UNL     1       0.563  -0.680   1.032  0.00  0.00    +0.043 A 
ATOM     29  F   UNL     1       1.208  -2.728   2.033  0.00  0.00    -0.204 F 
ENDBRANCH  18  26
ENDBRANCH  16  19
ENDBRANCH   1  16
TORSDOF 5
