REMARK  Name = ZINC38478019
REMARK  1 active torsions:
REMARK  status: ('A' for Active; 'I' for Inactive)
REMARK    1  A    between atoms: C_1  and  C_2
REMARK                            x       y       z     vdW  Elec       q    Type
REMARK                         _______ _______ _______ _____ _____    ______ ____
ROOT
ATOM      1  C   UNL     1      -0.019   1.526   0.010  0.00  0.00    +0.009 C 
ATOM      2  C   UNL     1       0.002  -0.004   0.002  0.00  0.00    +0.007 C 
ATOM      3  C   UNL     1       0.723  -0.500  -1.252  0.00  0.00    +0.043 C 
ATOM      4  C   UNL     1       0.955  -1.984  -1.171  0.00  0.00    -0.006 A 
ATOM      5  C   UNL     1       1.194  -2.694  -2.338  0.00  0.00    +0.023 A 
ATOM      6  C   UNL     1       1.409  -4.063  -2.251  0.00  0.00    +0.036 A 
ATOM      7  C   UNL     1       1.379  -4.673  -1.013  0.00  0.00    +0.128 A 
ATOM      8  N   UNL     1       1.149  -3.972   0.080  0.00  0.00    -0.239 NA
ATOM      9  C   UNL     1       0.937  -2.663   0.039  0.00  0.00    +0.122 A 
ATOM     10  N   UNL     1       0.689  -1.982   1.230  0.00  0.00    -0.329 N 
ATOM     11  C   UNL     1       0.750  -0.515   1.240  0.00  0.00    +0.106 C 
ATOM     12 BR   UNL     1       1.738  -5.080  -3.812  0.00  0.00    -0.049 Br
ATOM     13  H   UNL     1       0.478  -2.471   2.042  0.00  0.00    +0.147 HD
ENDROOT
TORSDOF 0
