REMARK  Name = ZINC55265262
REMARK  7 active torsions:
REMARK  status: ('A' for Active; 'I' for Inactive)
REMARK    1  A    between atoms: C_1  and  C_2
REMARK    2  A    between atoms: C_2  and  C_4
REMARK    3  A    between atoms: C_2  and  C_21
REMARK    4  A    between atoms: C_4  and  N_5
REMARK    5  A    between atoms: N_5  and  S_6
REMARK    6  A    between atoms: S_6  and  C_9
REMARK    7  A    between atoms: C_21  and  N_22
REMARK                            x       y       z     vdW  Elec       q    Type
REMARK                         _______ _______ _______ _____ _____    ______ ____
ROOT
ATOM      1  S   UNL     1       3.100  -0.181   2.524  0.00  0.00    +0.060 S 
ATOM      2  O   UNL     1       4.397   0.248   2.132  0.00  0.00    -0.153 OA
ATOM      3  O   UNL     1       2.373   0.448   3.570  0.00  0.00    -0.153 OA
ENDROOT
BRANCH   1   4
ATOM      4  C   UNL     1       3.244  -1.882   2.963  0.00  0.00    +0.127 A 
ATOM      5  C   UNL     1       4.477  -2.506   2.907  0.00  0.00    +0.077 A 
ATOM      6  C   UNL     1       4.590  -3.841   3.252  0.00  0.00    +0.144 A 
ATOM      7  C   UNL     1       3.461  -4.553   3.654  0.00  0.00    +0.077 A 
ATOM      8  C   UNL     1       2.229  -3.924   3.709  0.00  0.00    +0.049 A 
ATOM      9  C   UNL     1       2.124  -2.586   3.368  0.00  0.00    +0.069 A 
ATOM     10 CL   UNL     1       0.582  -1.792   3.443  0.00  0.00    -0.081 Cl
ATOM     11  N   UNL     1       3.591  -5.906   3.999  0.00  0.00    -0.280 N 
ATOM     12  C   UNL     1       4.822  -6.405   4.241  0.00  0.00    +0.255 C 
ATOM     13  O   UNL     1       4.961  -7.579   4.511  0.00  0.00    -0.272 OA
ATOM     14  C   UNL     1       6.024  -5.497   4.172  0.00  0.00    +0.325 C 
ATOM     15  O   UNL     1       5.795  -4.470   3.203  0.00  0.00    -0.481 OA
ATOM     16  H   UNL     1       2.807  -6.475   4.065  0.00  0.00    +0.155 HD
ENDBRANCH   1   4
BRANCH   1  17
ATOM     17  N   UNL     1       2.148  -0.104   1.172  0.00  0.00    -0.190 NA
ATOM     18  H   UNL     1       2.520   0.211   0.333  0.00  0.00    +0.148 HD
BRANCH  17  19
ATOM     19  C   UNL     1       0.742  -0.511   1.242  0.00  0.00    +0.107 C 
BRANCH  19  21
ATOM     20  C   UNL     1      -0.019   1.526   0.010  0.00  0.00    +0.007 C 
ATOM     21  C   UNL     1       0.002  -0.004   0.002  0.00  0.00    -0.015 C 
BRANCH  21  22
ATOM     22  C   UNL     1      -1.433  -0.534   0.013  0.00  0.00    -0.074 C 
BRANCH  22  23
ATOM     23  N   UNL     1      -2.107  -0.147  -1.234  0.00  0.00    +0.380 N 
ATOM     24  C   UNL     1      -1.517  -0.880  -2.383  0.00  0.00    -0.079 C 
ATOM     25  C   UNL     1      -2.635  -0.820  -3.454  0.00  0.00    -0.020 C 
ATOM     26  C   UNL     1      -3.925  -0.973  -2.616  0.00  0.00    -0.020 C 
ATOM     27  C   UNL     1      -3.530  -0.547  -1.189  0.00  0.00    -0.079 C 
ATOM     28  H   UNL     1      -2.030   0.848  -1.378  0.00  0.00    -0.082 HD
ENDBRANCH  22  23
ENDBRANCH  21  22
ENDBRANCH  19  21
ENDBRANCH  17  19
ENDBRANCH   1  17
TORSDOF 6
