REMARK  Name = ZINC66004658
REMARK  8 active torsions:
REMARK  status: ('A' for Active; 'I' for Inactive)
REMARK    1  A    between atoms: C_1  and  C_2
REMARK    2  A    between atoms: C_6  and  N_8
REMARK    3  A    between atoms: C_9  and  C_31
REMARK    4  A    between atoms: C_10  and  C_13
REMARK    5  A    between atoms: C_15  and  C_16
REMARK    6  A    between atoms: C_15  and  C_18
REMARK    7  A    between atoms: C_18  and  C_20
REMARK    8  A    between atoms: C_21  and  C_30
REMARK                            x       y       z     vdW  Elec       q    Type
REMARK                         _______ _______ _______ _____ _____    ______ ____
ROOT
ATOM      1  C   UNL     1      -0.765  -5.559   4.627  0.00  0.00    +0.210 C 
ATOM      2  O   UNL     1      -0.516  -5.729   5.942  0.00  0.00    -0.286 OA
ATOM      3  C   UNL     1      -1.449  -6.542   3.916  0.00  0.00    +0.146 C 
ENDROOT
BRANCH   1   6
ATOM      4  N   UNL     1       0.958  -2.723   3.169  0.00  0.00    -0.236 N 
ATOM      5  C   UNL     1       0.983  -3.860   3.887  0.00  0.00    +0.053 A 
ATOM      6  C   UNL     1      -0.315  -4.339   3.945  0.00  0.00    +0.064 A 
ATOM      7  C   UNL     1      -1.126  -3.430   3.224  0.00  0.00    +0.146 A 
ATOM      8  N   UNL     1      -0.361  -2.475   2.774  0.00  0.00    -0.174 NA
ATOM      9  C   UNL     1       2.198  -4.496   4.512  0.00  0.00    +0.066 C 
BRANCH   4  15
ATOM     10  C   UNL     1       3.314   0.252   0.040  0.00  0.00    +0.044 C 
ATOM     11  C   UNL     1       3.233  -0.466   1.363  0.00  0.00    -0.048 A 
ATOM     12  C   UNL     1       4.255  -0.330   2.285  0.00  0.00    +0.003 A 
ATOM     13  C   UNL     1       4.185  -0.987   3.500  0.00  0.00    +0.002 A 
ATOM     14  C   UNL     1       3.094  -1.781   3.796  0.00  0.00    +0.028 A 
ATOM     15  C   UNL     1       2.067  -1.918   2.872  0.00  0.00    +0.066 A 
ATOM     16  C   UNL     1       2.137  -1.253   1.655  0.00  0.00    +0.031 A 
ENDBRANCH   4  15
ENDBRANCH   1   6
BRANCH   3  17
ATOM     17  C   UNL     1      -1.608  -6.420   2.498  0.00  0.00    +0.107 C 
ATOM     18  N   UNL     1      -1.734  -6.322   1.373  0.00  0.00    -0.191 NA
ENDBRANCH   3  17
BRANCH   3  19
ATOM     19  C   UNL     1      -2.006  -7.702   4.618  0.00  0.00    +0.209 C 
ATOM     20  O   UNL     1      -1.789  -7.855   5.807  0.00  0.00    -0.286 OA
BRANCH  19  21
ATOM     21  C   UNL     1      -2.826  -8.680   3.888  0.00  0.00    +0.051 A 
ATOM     22  C   UNL     1      -2.399  -9.848   3.329  0.00  0.00    +0.025 A 
ATOM     23  N   UNL     1      -3.442 -10.484   2.741  0.00  0.00    -0.358 N 
ATOM     24  H   UNL     1      -3.382 -11.335   2.279  0.00  0.00    +0.166 HD
ATOM     25  C   UNL     1      -4.600  -9.749   2.893  0.00  0.00    +0.047 A 
ATOM     26  C   UNL     1      -4.273  -8.593   3.620  0.00  0.00    +0.011 A 
ATOM     27  C   UNL     1      -5.260  -7.661   3.929  0.00  0.00    +0.011 A 
ATOM     28  C   UNL     1      -6.558  -7.880   3.522  0.00  0.00    +0.001 A 
ATOM     29  C   UNL     1      -6.883  -9.024   2.807  0.00  0.00    +0.002 A 
ATOM     30  C   UNL     1      -5.915  -9.951   2.486  0.00  0.00    +0.026 A 
ATOM     31  C   UNL     1      -0.980 -10.357   3.362  0.00  0.00    +0.064 C 
ENDBRANCH  19  21
ENDBRANCH   3  19
TORSDOF 5
