REMARK  Name = ZINC46915507
REMARK  8 active torsions:
REMARK  status: ('A' for Active; 'I' for Inactive)
REMARK    1  A    between atoms: C_1  and  C_2
REMARK    2  A    between atoms: C_3  and  C_15
REMARK    3  A    between atoms: C_4  and  C_14
REMARK    4  A    between atoms: N_5  and  C_7
REMARK    5  A    between atoms: C_15  and  C_16
REMARK    6  A    between atoms: N_18  and  C_19
REMARK    7  A    between atoms: N_18  and  C_20
REMARK    8  A    between atoms: C_20  and  C_21
REMARK                            x       y       z     vdW  Elec       q    Type
REMARK                         _______ _______ _______ _____ _____    ______ ____
ROOT
ATOM      1  C   UNL     1       1.022  -0.016  -3.149  0.00  0.00    +0.220 C 
ATOM      2  O   UNL     1       2.031  -0.134  -2.488  0.00  0.00    -0.275 OA
ATOM      3  N   UNL     1       1.097   0.425  -4.421  0.00  0.00    -0.297 N 
ATOM      4  C   UNL     1      -0.122   0.568  -5.220  0.00  0.00    +0.132 C 
ENDROOT
BRANCH   1   5
ATOM      5  C   UNL     1      -0.317  -0.363  -2.550  0.00  0.00    +0.134 C 
BRANCH   5   8
ATOM      6  C   UNL     1      -0.339   1.479   0.029  0.00  0.00    +0.068 C 
ATOM      7  C   UNL     1      -0.137  -0.015   0.010  0.00  0.00    +0.064 A 
ATOM      8  C   UNL     1      -0.127  -0.827  -1.129  0.00  0.00    +0.005 A 
ATOM      9  C   UNL     1       0.084  -2.102  -0.730  0.00  0.00    +0.046 A 
ATOM     10  N   UNL     1       0.203  -2.097   0.617  0.00  0.00    -0.236 N 
ATOM     11  N   UNL     1       0.066  -0.774   1.056  0.00  0.00    -0.171 NA
ATOM     12  C   UNL     1       0.170  -3.312  -1.625  0.00  0.00    +0.066 C 
BRANCH  10  13
ATOM     13  C   UNL     1       0.430  -3.217   1.429  0.00  0.00    +0.066 A 
ATOM     14  C   UNL     1       1.348  -4.184   1.042  0.00  0.00    +0.029 A 
ATOM     15  C   UNL     1       1.569  -5.286   1.844  0.00  0.00    +0.022 A 
ATOM     16  C   UNL     1       0.876  -5.428   3.033  0.00  0.00    +0.041 A 
ATOM     17  C   UNL     1      -0.040  -4.466   3.422  0.00  0.00    +0.022 A 
ATOM     18  C   UNL     1      -0.260  -3.359   2.626  0.00  0.00    +0.029 A 
ATOM     19 CL   UNL     1       1.155  -6.816   4.038  0.00  0.00    -0.084 Cl
ENDBRANCH  10  13
ENDBRANCH   5   8
ENDBRANCH   1   5
BRANCH   3  20
ATOM     20  C   UNL     1       2.398   0.762  -5.003  0.00  0.00    +0.181 C 
BRANCH  20  21
ATOM     21  C   UNL     1       2.987  -0.461  -5.659  0.00  0.00    +0.128 A 
ATOM     22  N   UNL     1       4.203  -0.350  -6.255  0.00  0.00    -0.309 N 
ATOM     23  H   UNL     1       4.666   0.502  -6.248  0.00  0.00    +0.170 HD
ATOM     24  C   UNL     1       4.775  -1.419  -6.857  0.00  0.00    +0.259 A 
ATOM     25  O   UNL     1       5.864  -1.334  -7.394  0.00  0.00    -0.267 OA
ATOM     26  C   UNL     1       4.029  -2.686  -6.837  0.00  0.00    +0.065 A 
ATOM     27  C   UNL     1       4.529  -3.845  -7.428  0.00  0.00    +0.015 A 
ATOM     28  C   UNL     1       3.788  -5.005  -7.380  0.00  0.00    +0.001 A 
ATOM     29  C   UNL     1       2.551  -5.028  -6.749  0.00  0.00    +0.002 A 
ATOM     30  C   UNL     1       2.040  -3.894  -6.159  0.00  0.00    +0.028 A 
ATOM     31  C   UNL     1       2.772  -2.706  -6.194  0.00  0.00    +0.078 A 
ATOM     32  N   UNL     1       2.308  -1.567  -5.621  0.00  0.00    -0.232 NA
ENDBRANCH  20  21
ENDBRANCH   3  20
TORSDOF 5
