REMARK  Name = ZINC08868160
REMARK  5 active torsions:
REMARK  status: ('A' for Active; 'I' for Inactive)
REMARK    1  A    between atoms: C_1  and  C_2
REMARK    2  A    between atoms: C_2  and  C_29
REMARK    3  A    between atoms: C_7  and  C_9
REMARK    4  A    between atoms: C_14  and  O_15
REMARK    5  A    between atoms: N_19  and  C_22
REMARK                            x       y       z     vdW  Elec       q    Type
REMARK                         _______ _______ _______ _____ _____    ______ ____
ROOT
ATOM      1  C   UNL     1       3.148   2.234  -1.838  0.00  0.00    +0.002 C 
ATOM      2  C   UNL     1       1.759   2.601  -1.312  0.00  0.00    +0.045 C 
ATOM      3  C   UNL     1       1.486   1.887   0.029  0.00  0.00    +0.086 C 
ATOM      4  C   UNL     1      -0.018   1.508  -0.021  0.00  0.00    +0.077 C 
ATOM      5  C   UNL     1      -0.513   2.029  -1.386  0.00  0.00    -0.023 C 
ATOM      6  C   UNL     1       0.003  -0.004  -0.043  0.00  0.00    +0.229 C 
ATOM      7  O   UNL     1      -0.977  -0.717  -0.082  0.00  0.00    -0.275 OA
ATOM      8  N   UNL     1       1.270  -0.431  -0.012  0.00  0.00    -0.210 N 
ATOM      9  C   UNL     1       2.184   0.545   0.029  0.00  0.00    +0.229 C 
ATOM     10  O   UNL     1       3.385   0.380   0.062  0.00  0.00    -0.275 OA
ATOM     11  N   UNL     1       0.704   2.103  -2.194  0.00  0.00    +0.395 N 
ATOM     12  H   UNL     1       0.950   1.172  -2.551  0.00  0.00    -0.083 HD
ATOM     13  H   UNL     1       0.568   2.746  -2.983  0.00  0.00    -0.083 HD
ENDROOT
BRANCH   5  14
ATOM     14  C   UNL     1      -1.513   1.073  -1.982  0.00  0.00    -0.018 A 
ATOM     15  C   UNL     1      -1.099   0.114  -2.886  0.00  0.00    +0.025 A 
ATOM     16  C   UNL     1      -2.016  -0.768  -3.429  0.00  0.00    +0.041 A 
ATOM     17  C   UNL     1      -3.352  -0.685  -3.076  0.00  0.00    +0.023 A 
ATOM     18  C   UNL     1      -3.770   0.276  -2.177  0.00  0.00    +0.047 A 
ATOM     19  C   UNL     1      -2.851   1.158  -1.627  0.00  0.00    +0.119 A 
ATOM     20 CL   UNL     1      -1.492  -1.976  -4.560  0.00  0.00    -0.084 Cl
BRANCH  19  21
ATOM     21  O   UNL     1      -3.262   2.104  -0.742  0.00  0.00    -0.507 OA
ATOM     22  H   UNL     1      -3.522   2.940  -1.152  0.00  0.00    +0.292 HD
ENDBRANCH  19  21
ENDBRANCH   5  14
BRANCH   8  23
ATOM     23  C   UNL     1       1.613  -1.791  -0.023  0.00  0.00    +0.044 A 
ATOM     24  C   UNL     1       2.260  -2.336  -1.124  0.00  0.00    +0.025 A 
ATOM     25  C   UNL     1       2.600  -3.674  -1.130  0.00  0.00    +0.022 A 
ATOM     26  C   UNL     1       2.288  -4.474  -0.045  0.00  0.00    +0.041 A 
ATOM     27  C   UNL     1       1.638  -3.934   1.051  0.00  0.00    +0.022 A 
ATOM     28  C   UNL     1       1.300  -2.595   1.064  0.00  0.00    +0.025 A 
ATOM     29 CL   UNL     1       2.712  -6.158  -0.058  0.00  0.00    -0.084 Cl
ENDBRANCH   8  23
BRANCH   2  30
ATOM     30  C   UNL     1       1.639   4.094  -1.145  0.00  0.00    +0.346 C 
ATOM     31  O   UNL     1       1.814   4.597  -0.060  0.00  0.00    -0.248 OA
ATOM     32  O   UNL     1       1.338   4.865  -2.202  0.00  0.00    -0.248 OA
ENDBRANCH   2  30
TORSDOF 4
