REMARK  Name = ZINC32599649
REMARK  6 active torsions:
REMARK  status: ('A' for Active; 'I' for Inactive)
REMARK    1  A    between atoms: C_1  and  C_2
REMARK    2  A    between atoms: C_2  and  C_4
REMARK    3  A    between atoms: C_8  and  N_16
REMARK    4  A    between atoms: C_11  and  N_13
REMARK    5  A    between atoms: N_16  and  C_17
REMARK    6  A    between atoms: N_28  and  C_29
REMARK                            x       y       z     vdW  Elec       q    Type
REMARK                         _______ _______ _______ _____ _____    ______ ____
ROOT
ATOM      1  C   UNL     1      -0.554  -2.401  -1.811  0.00  0.00    -0.069 C 
ATOM      2  C   UNL     1      -1.614  -2.300  -0.719  0.00  0.00    -0.014 C 
ATOM      3  C   UNL     1      -2.967  -2.883  -1.168  0.00  0.00    +0.023 C 
ATOM      4  C   UNL     1      -2.710  -4.315  -1.579  0.00  0.00    +0.099 C 
ATOM      5  C   UNL     1      -1.786  -4.247  -2.829  0.00  0.00    +0.148 C 
ATOM      6  C   UNL     1      -0.416  -3.843  -2.342  0.00  0.00    +0.015 C 
ATOM      7  N   UNL     1      -2.018  -5.532  -3.443  0.00  0.00    -0.168 NA
ATOM      8  N   UNL     1      -3.126  -5.971  -3.058  0.00  0.00    -0.102 NA
ATOM      9  N   UNL     1      -3.794  -5.099  -2.160  0.00  0.00    -0.306 NA
ATOM     10  H   UNL     1      -4.885  -5.111  -2.024  0.00  0.00    +0.148 HD
ENDROOT
BRANCH   9  11
ATOM     11  C   UNL     1      -5.229  -5.008  -1.883  0.00  0.00    +0.073 C 
ATOM     12  C   UNL     1      -5.731  -6.351  -1.348  0.00  0.00    +0.022 C 
ATOM     13  C   UNL     1      -7.231  -6.256  -1.059  0.00  0.00    +0.002 C 
ATOM     14  C   UNL     1      -7.978  -5.909  -2.348  0.00  0.00    +0.000 C 
ATOM     15  C   UNL     1      -7.476  -4.567  -2.882  0.00  0.00    +0.002 C 
ATOM     16  C   UNL     1      -5.977  -4.661  -3.172  0.00  0.00    +0.022 C 
ENDBRANCH   9  11
BRANCH   1  17
ATOM     17  N   UNL     1       0.738  -1.966  -1.265  0.00  0.00    +0.383 N 
ATOM     18  H   UNL     1       1.235  -2.832  -0.802  0.00  0.00    -0.085 HD
ATOM     19  H   UNL     1       0.557  -1.196  -0.501  0.00  0.00    -0.085 HD
BRANCH  17  23
ATOM     20  C   UNL     1       3.657   0.470  -3.209  0.00  0.00    +0.084 C 
ATOM     21  C   UNL     1       2.189   0.648  -3.601  0.00  0.00    +0.012 C 
ATOM     22  C   UNL     1       1.294   0.074  -2.501  0.00  0.00    -0.015 C 
ATOM     23  C   UNL     1       1.597  -1.415  -2.321  0.00  0.00    -0.069 C 
ATOM     24  C   UNL     1       3.065  -1.593  -1.929  0.00  0.00    +0.017 C 
ATOM     25  C   UNL     1       3.960  -1.019  -3.030  0.00  0.00    +0.178 C 
BRANCH  20  27
ATOM     26  C   UNL     1       4.961   2.481  -4.242  0.00  0.00    +0.086 C 
ATOM     27  C   UNL     1       4.538   1.035  -4.293  0.00  0.00    +0.136 C 
ATOM     28  O   UNL     1       4.905   0.330  -5.202  0.00  0.00    -0.297 OA
ENDBRANCH  20  27
BRANCH  25  29
ATOM     29  N   UNL     1       5.366  -1.189  -2.654  0.00  0.00    +0.026 N 
ATOM     30  O   UNL     1       6.111  -1.842  -3.363  0.00  0.00    -0.131 OA
ATOM     31  O   UNL     1       5.790  -0.677  -1.633  0.00  0.00    -0.131 OA
ENDBRANCH  25  29
ENDBRANCH  17  23
ENDBRANCH   1  17
TORSDOF 5
