REMARK  Name = ZINC14016139
REMARK  7 active torsions:
REMARK  status: ('A' for Active; 'I' for Inactive)
REMARK    1  A    between atoms: C_1  and  C_2
REMARK    2  A    between atoms: C_2  and  C_4
REMARK    3  A    between atoms: C_2  and  O_21
REMARK    4  A    between atoms: N_6  and  N_7
REMARK    5  A    between atoms: C_10  and  C_14
REMARK    6  A    between atoms: C_10  and  C_15
REMARK    7  A    between atoms: O_21  and  C_22
REMARK                            x       y       z     vdW  Elec       q    Type
REMARK                         _______ _______ _______ _____ _____    ______ ____
ROOT
ATOM      1  N   UNL     1      -7.021   0.891  -1.129  0.00  0.00    -0.137 N 
ATOM      2  C   UNL     1      -8.024   0.337  -0.419  0.00  0.00    +0.267 C 
ATOM      3  O   UNL     1      -8.172   0.362   0.784  0.00  0.00    -0.271 OA
ATOM      4  C   UNL     1      -8.929  -0.327  -1.439  0.00  0.00    +0.137 C 
ATOM      5  N   UNL     1      -8.269  -0.043  -2.724  0.00  0.00    -0.280 N 
ATOM      6  C   UNL     1      -7.168   0.676  -2.441  0.00  0.00    +0.327 C 
ATOM      7  O   UNL     1      -6.391   1.083  -3.283  0.00  0.00    -0.251 OA
ATOM      8  C   UNL     1      -9.005  -1.835  -1.190  0.00  0.00    +0.047 C 
ATOM      9  H   UNL     1      -8.571  -0.317  -3.604  0.00  0.00    +0.152 HD
ENDROOT
BRANCH   4  10
ATOM     10  C   UNL     1     -10.306   0.285  -1.403  0.00  0.00    -0.015 A 
ATOM     11  C   UNL     1     -10.803   0.801  -0.221  0.00  0.00    +0.006 A 
ATOM     12  C   UNL     1     -12.064   1.366  -0.189  0.00  0.00    +0.000 A 
ATOM     13  C   UNL     1     -12.832   1.406  -1.337  0.00  0.00    +0.000 A 
ATOM     14  C   UNL     1     -12.338   0.885  -2.518  0.00  0.00    +0.000 A 
ATOM     15  C   UNL     1     -11.075   0.324  -2.551  0.00  0.00    +0.006 A 
ENDBRANCH   4  10
BRANCH   1  18
ATOM     16  C   UNL     1      -4.739   1.045  -0.470  0.00  0.00    +0.270 C 
ATOM     17  O   UNL     1      -4.559  -0.083  -0.878  0.00  0.00    -0.270 OA
ATOM     18  N   UNL     1      -5.960   1.608  -0.562  0.00  0.00    -0.221 N 
ATOM     19  H   UNL     1      -6.103   2.510  -0.236  0.00  0.00    +0.174 HD
BRANCH  16  21
ATOM     20  C   UNL     1      -3.889   2.077   1.619  0.00  0.00    +0.062 C 
ATOM     21  C   UNL     1      -3.597   1.817   0.140  0.00  0.00    +0.257 C 
BRANCH  21  22
ATOM     22  O   UNL     1      -2.391   1.058   0.019  0.00  0.00    -0.480 OA
BRANCH  22  23
ATOM     23  C   UNL     1      -1.223   1.753   0.018  0.00  0.00    +0.122 A 
ATOM     24  C   UNL     1      -1.229   3.122   0.244  0.00  0.00    +0.048 A 
ATOM     25  C   UNL     1      -0.040   3.825   0.249  0.00  0.00    +0.042 A 
ATOM     26  C   UNL     1       1.157   3.166   0.024  0.00  0.00    +0.124 A 
ATOM     27  C   UNL     1       1.163   1.801  -0.207  0.00  0.00    +0.042 A 
ATOM     28  C   UNL     1      -0.024   1.095  -0.214  0.00  0.00    +0.048 A 
ATOM     29  F   UNL     1       2.318   3.856   0.029  0.00  0.00    -0.205 F 
ENDBRANCH  22  23
ENDBRANCH  21  22
ENDBRANCH  16  21
ENDBRANCH   1  18
TORSDOF 5
