REMARK  Name = ZINC36116825
REMARK  11 active torsions:
REMARK  status: ('A' for Active; 'I' for Inactive)
REMARK    1  A    between atoms: C_1  and  C_2
REMARK    2  A    between atoms: C_2  and  N_3
REMARK    3  A    between atoms: N_3  and  C_4
REMARK    4  A    between atoms: C_4  and  C_5
REMARK    5  A    between atoms: C_15  and  C_17
REMARK    6  A    between atoms: C_17  and  O_18
REMARK    7  A    between atoms: O_18  and  C_19
REMARK    8  A    between atoms: C_22  and  C_25
REMARK    9  A    between atoms: C_25  and  C_26
REMARK   10  A    between atoms: C_25  and  C_27
REMARK   11  A    between atoms: C_28  and  C_30
REMARK                            x       y       z     vdW  Elec       q    Type
REMARK                         _______ _______ _______ _____ _____    ______ ____
ROOT
ATOM      1  C   UNL     1       2.431  -2.154  -0.722  0.00  0.00    +0.234 C 
ATOM      2  O   UNL     1       1.526  -2.916  -0.455  0.00  0.00    -0.274 OA
ATOM      3  N   UNL     1       3.711  -2.569  -0.628  0.00  0.00    -0.289 N 
ATOM      4  C   UNL     1       4.816  -1.651  -0.942  0.00  0.00    +0.114 C 
ATOM      5  C   UNL     1       5.554  -2.191  -2.177  0.00  0.00    +0.061 C 
ATOM      6  C   UNL     1       5.718  -3.669  -2.030  0.00  0.00    -0.004 A 
ATOM      7  C   UNL     1       5.061  -4.502  -1.178  0.00  0.00    -0.014 A 
ATOM      8  C   UNL     1       5.394  -5.854  -1.243  0.00  0.00    +0.013 A 
ATOM      9  C   UNL     1       6.335  -6.277  -2.119  0.00  0.00    +0.046 A 
ATOM     10  S   UNL     1       6.808  -4.750  -2.917  0.00  0.00    -0.101 S 
ATOM     11  C   UNL     1       4.020  -3.941  -0.205  0.00  0.00    +0.144 C 
ENDROOT
BRANCH   1  12
ATOM     12  C   UNL     1       2.126  -0.744  -1.157  0.00  0.00    +0.203 C 
BRANCH  12  13
ATOM     13  N   UNL     1       0.675  -0.543  -1.178  0.00  0.00    -0.289 N 
ATOM     14  C   UNL     1      -0.025  -0.801  -2.300  0.00  0.00    +0.250 C 
ATOM     15  O   UNL     1      -1.214  -0.556  -2.345  0.00  0.00    -0.270 OA
BRANCH  14  16
ATOM     16  C   UNL     1       0.654  -1.381  -3.477  0.00  0.00    +0.072 A 
ATOM     17  C   UNL     1       1.730  -0.713  -4.067  0.00  0.00    +0.016 A 
ATOM     18  C   UNL     1       2.359  -1.260  -5.164  0.00  0.00    +0.001 A 
ATOM     19  C   UNL     1       1.929  -2.469  -5.684  0.00  0.00    +0.003 A 
ATOM     20  C   UNL     1       0.865  -3.138  -5.108  0.00  0.00    +0.039 A 
ATOM     21  C   UNL     1       0.227  -2.604  -4.002  0.00  0.00    +0.135 A 
ATOM     22  F   UNL     1      -0.809  -3.260  -3.436  0.00  0.00    -0.205 F 
ENDBRANCH  14  16
BRANCH  13  24
ATOM     23  C   UNL     1       0.045   1.467   0.066  0.00  0.00    +0.024 C 
ATOM     24  C   UNL     1      -0.015  -0.061   0.021  0.00  0.00    +0.105 C 
ENDBRANCH  13  24
ENDBRANCH  12  13
ENDBRANCH   1  12
BRANCH  11  25
ATOM     25  C   UNL     1       4.586  -3.930   1.216  0.00  0.00    +0.256 C 
BRANCH  25  26
ATOM     26  O   UNL     1       5.840  -3.244   1.224  0.00  0.00    -0.490 OA
BRANCH  26  27
ATOM     27  C   UNL     1       6.481  -3.144   2.418  0.00  0.00    +0.121 A 
ATOM     28  C   UNL     1       5.918  -3.700   3.558  0.00  0.00    +0.046 A 
ATOM     29  C   UNL     1       6.572  -3.597   4.770  0.00  0.00    +0.007 A 
ATOM     30  C   UNL     1       7.787  -2.941   4.849  0.00  0.00    -0.045 A 
ATOM     31  C   UNL     1       8.350  -2.386   3.714  0.00  0.00    +0.007 A 
ATOM     32  C   UNL     1       7.703  -2.491   2.498  0.00  0.00    +0.046 A 
BRANCH  30  33
ATOM     33  C   UNL     1       8.498  -2.830   6.173  0.00  0.00    +0.013 C 
ATOM     34  C   UNL     1       9.868  -3.502   6.073  0.00  0.00    +0.012 C 
ATOM     35  C   UNL     1       8.678  -1.354   6.532  0.00  0.00    +0.012 C 
ENDBRANCH  30  33
ENDBRANCH  26  27
ENDBRANCH  25  26
ENDBRANCH  11  25
TORSDOF 8
