REMARK  Name = ZINC12100088
REMARK  8 active torsions:
REMARK  status: ('A' for Active; 'I' for Inactive)
REMARK    1  A    between atoms: C_1  and  O_2
REMARK    2  A    between atoms: O_2  and  C_3
REMARK    3  A    between atoms: C_5  and  N_29
REMARK    4  A    between atoms: C_18  and  C_19
REMARK    5  A    between atoms: C_18  and  N_63
REMARK    6  A    between atoms: C_22  and  O_25
REMARK    7  A    between atoms: O_25  and  C_26
REMARK    8  A    between atoms: C_30  and  C_32
REMARK                            x       y       z     vdW  Elec       q    Type
REMARK                         _______ _______ _______ _____ _____    ______ ____
ROOT
ATOM      1  C   UNL     1      -0.793   2.045  -1.213  0.00  0.00    +0.153 C 
ATOM      2  C   UNL     1      -1.480   3.309  -0.651  0.00  0.00    +0.133 C 
ATOM      3  C   UNL     1      -1.613   3.061   0.837  0.00  0.00    -0.021 A 
ATOM      4  C   UNL     1      -2.408   3.685   1.783  0.00  0.00    +0.006 A 
ATOM      5  C   UNL     1      -2.363   3.285   3.103  0.00  0.00    +0.000 A 
ATOM      6  C   UNL     1      -1.520   2.257   3.484  0.00  0.00    +0.000 A 
ATOM      7  C   UNL     1      -0.726   1.633   2.542  0.00  0.00    +0.004 A 
ATOM      8  C   UNL     1      -0.770   2.032   1.216  0.00  0.00    -0.034 A 
ATOM      9  C   UNL     1      -0.019   1.522   0.010  0.00  0.00    +0.021 C 
ATOM     10  C   UNL     1       1.406   2.071  -0.000  0.00  0.00    -0.005 C 
ATOM     11  C   UNL     1       2.154   1.515  -1.215  0.00  0.00    -0.077 C 
ATOM     12  C   UNL     1       0.796  -0.493  -1.213  0.00  0.00    -0.077 C 
ATOM     13  C   UNL     1       0.002  -0.004   0.002  0.00  0.00    -0.005 C 
ATOM     14  N   UNL     1       2.173   0.039  -1.131  0.00  0.00    +0.382 N 
ATOM     15  H   UNL     1       2.583  -0.238  -0.231  0.00  0.00    -0.081 HD
ENDROOT
BRANCH   2  16
ATOM     16  N   UNL     1      -0.648   4.490  -0.896  0.00  0.00    -0.302 N 
ATOM     17  C   UNL     1      -1.215   5.711  -0.966  0.00  0.00    +0.251 C 
ATOM     18  O   UNL     1      -2.418   5.832  -0.826  0.00  0.00    -0.270 OA
ATOM     19  H   UNL     1       0.310   4.394  -1.009  0.00  0.00    +0.150 HD
BRANCH  17  20
ATOM     20  C   UNL     1      -0.383   6.893  -1.212  0.00  0.00    +0.074 A 
ATOM     21  C   UNL     1      -0.763   8.222  -1.319  0.00  0.00    +0.021 A 
ATOM     22  C   UNL     1       0.231   9.139  -1.554  0.00  0.00    +0.008 A 
ATOM     23  C   UNL     1       1.515   8.710  -1.669  0.00  0.00    +0.046 A 
ATOM     24  S   UNL     1       1.383   6.996  -1.444  0.00  0.00    -0.092 S 
ENDBRANCH  17  20
ENDBRANCH   2  16
BRANCH   1  26
ATOM     25  C   UNL     1      -2.028   1.130  -3.052  0.00  0.00    +0.194 C 
ATOM     26  O   UNL     1      -1.761   1.088  -1.649  0.00  0.00    -0.377 OA
ENDBRANCH   1  26
BRANCH  14  27
ATOM     27  C   UNL     1       2.995  -0.518  -2.225  0.00  0.00    -0.043 C 
BRANCH  27  28
ATOM     28  C   UNL     1       4.434  -0.137  -1.992  0.00  0.00    -0.064 A 
ATOM     29  C   UNL     1       4.936   1.029  -2.541  0.00  0.00    +0.005 A 
ATOM     30  C   UNL     1       6.254   1.384  -2.325  0.00  0.00    +0.046 A 
ATOM     31  C   UNL     1       7.076   0.564  -1.566  0.00  0.00    +0.127 A 
ATOM     32  C   UNL     1       6.571  -0.608  -1.021  0.00  0.00    +0.046 A 
ATOM     33  C   UNL     1       5.252  -0.955  -1.236  0.00  0.00    +0.005 A 
BRANCH  31  34
ATOM     34  O   UNL     1       8.374   0.908  -1.356  0.00  0.00    -0.434 OA
BRANCH  34  35
ATOM     35  C   UNL     1       8.825   2.128  -1.948  0.00  0.00    +0.541 C 
ATOM     36  F   UNL     1       8.675   2.057  -3.337  0.00  0.00    -0.166 F 
ATOM     37  F   UNL     1       8.068   3.195  -1.451  0.00  0.00    -0.166 F 
ENDBRANCH  34  35
ENDBRANCH  31  34
ENDBRANCH  27  28
ENDBRANCH  14  27
TORSDOF 7
