REMARK  Name = ZINC23039495
REMARK  6 active torsions:
REMARK  status: ('A' for Active; 'I' for Inactive)
REMARK    1  A    between atoms: C_1  and  C_2
REMARK    2  A    between atoms: C_2  and  C_4
REMARK    3  A    between atoms: C_2  and  N_10
REMARK    4  A    between atoms: N_10  and  C_11
REMARK    5  A    between atoms: N_10  and  C_12
REMARK    6  A    between atoms: C_12  and  C_13
REMARK                            x       y       z     vdW  Elec       q    Type
REMARK                         _______ _______ _______ _____ _____    ______ ____
ROOT
ATOM      1  C   UNL     1       1.929   0.873  -1.229  0.00  0.00    -0.022 C 
ENDROOT
BRANCH   1   2
ATOM      2  C   UNL     1       3.402   1.145  -1.385  0.00  0.00    +0.032 A 
ATOM      3  C   UNL     1       4.310   0.108  -1.292  0.00  0.00    +0.092 A 
ATOM      4  C   UNL     1       5.673   0.385  -1.445  0.00  0.00    +0.259 A 
ATOM      5  O   UNL     1       6.500  -0.510  -1.372  0.00  0.00    -0.267 OA
ATOM      6  N   UNL     1       6.060   1.659  -1.669  0.00  0.00    -0.267 N 
ATOM      7  C   UNL     1       7.384   1.946  -1.815  0.00  0.00    +0.116 A 
ATOM      8  C   UNL     1       7.795   3.215  -2.039  0.00  0.00    +0.058 A 
ATOM      9  C   UNL     1       6.858   4.255  -2.125  0.00  0.00    +0.025 A 
ATOM     10  C   UNL     1       5.532   3.978  -1.981  0.00  0.00    +0.048 A 
ATOM     11  C   UNL     1       5.123   2.651  -1.747  0.00  0.00    +0.140 A 
ATOM     12  N   UNL     1       3.827   2.380  -1.605  0.00  0.00    -0.236 NA
ATOM     13 CL   UNL     1       9.488   3.557  -2.221  0.00  0.00    -0.082 Cl
ENDBRANCH   1   2
BRANCH   1  14
ATOM     14  N   UNL     1       1.432   1.541  -0.018  0.00  0.00    +0.386 N 
ATOM     15  C   UNL     1       1.505   3.002  -0.156  0.00  0.00    -0.095 C 
ATOM     16  H   UNL     1       2.082   1.248   0.820  0.00  0.00    -0.081 HD
BRANCH  14  18
ATOM     17  C   UNL     1      -0.420   1.833   1.556  0.00  0.00    -0.008 C 
ATOM     18  C   UNL     1       0.064   1.110   0.298  0.00  0.00    -0.041 C 
BRANCH  18  19
ATOM     19  C   UNL     1       0.049  -0.378   0.537  0.00  0.00    -0.061 A 
ATOM     20  C   UNL     1       1.014  -0.959   1.339  0.00  0.00    +0.002 A 
ATOM     21  C   UNL     1       0.998  -2.323   1.562  0.00  0.00    +0.000 A 
ATOM     22  C   UNL     1       0.023  -3.108   0.974  0.00  0.00    +0.000 A 
ATOM     23  C   UNL     1      -0.939  -2.527   0.168  0.00  0.00    +0.000 A 
ATOM     24  C   UNL     1      -0.925  -1.163  -0.051  0.00  0.00    +0.002 A 
ENDBRANCH  18  19
ENDBRANCH  14  18
ENDBRANCH   1  14
TORSDOF 4
