REMARK  Name = ZINC12247241
REMARK  10 active torsions:
REMARK  status: ('A' for Active; 'I' for Inactive)
REMARK    1  A    between atoms: C_1  and  C_2
REMARK    2  A    between atoms: C_3  and  C_4
REMARK    3  A    between atoms: C_4  and  N_5
REMARK    4  A    between atoms: C_8  and  C_12
REMARK    5  A    between atoms: C_8  and  C_20
REMARK    6  A    between atoms: C_12  and  C_13
REMARK    7  A    between atoms: C_13  and  C_14
REMARK    8  A    between atoms: C_25  and  C_26
REMARK    9  A    between atoms: C_25  and  N_75
REMARK   10  A    between atoms: C_29  and  N_32
REMARK                            x       y       z     vdW  Elec       q    Type
REMARK                         _______ _______ _______ _____ _____    ______ ____
ROOT
ATOM      1  N   UNL     1      -1.274   1.892   4.641  0.00  0.00    -0.212 N 
ATOM      2  C   UNL     1      -1.531   0.716   5.247  0.00  0.00    +0.248 C 
ATOM      3  O   UNL     1      -2.366  -0.104   4.931  0.00  0.00    -0.273 OA
ATOM      4  C   UNL     1      -0.558   0.631   6.406  0.00  0.00    +0.115 C 
ATOM      5  N   UNL     1       0.201   1.890   6.314  0.00  0.00    -0.285 N 
ATOM      6  C   UNL     1      -0.289   2.558   5.254  0.00  0.00    +0.310 C 
ATOM      7  O   UNL     1       0.118   3.645   4.893  0.00  0.00    -0.252 OA
ATOM      8  H   UNL     1       0.915   2.181   6.902  0.00  0.00    +0.151 HD
ENDROOT
BRANCH   4   9
ATOM      9  C   UNL     1       0.374  -0.572   6.245  0.00  0.00    +0.018 C 
ATOM     10  C   UNL     1       1.428  -0.555   7.355  0.00  0.00    -0.013 C 
ATOM     11  C   UNL     1       2.393  -1.726   7.153  0.00  0.00    -0.078 C 
ATOM     12  C   UNL     1       2.050  -1.669   4.755  0.00  0.00    -0.078 C 
ATOM     13  C   UNL     1       1.075  -0.497   4.885  0.00  0.00    -0.013 C 
ATOM     14  N   UNL     1       3.053  -1.582   5.838  0.00  0.00    +0.382 N 
ATOM     15  H   UNL     1       3.511  -0.665   5.793  0.00  0.00    -0.081 HD
BRANCH  14  16
ATOM     16  C   UNL     1       4.073  -2.637   5.667  0.00  0.00    -0.043 C 
BRANCH  16  17
ATOM     17  C   UNL     1       5.193  -2.392   6.645  0.00  0.00    -0.064 A 
ATOM     18  C   UNL     1       6.262  -1.593   6.285  0.00  0.00    +0.003 A 
ATOM     19  C   UNL     1       7.287  -1.362   7.181  0.00  0.00    +0.023 A 
ATOM     20  C   UNL     1       7.248  -1.942   8.442  0.00  0.00    +0.030 A 
ATOM     21  C   UNL     1       6.176  -2.750   8.799  0.00  0.00    +0.023 A 
ATOM     22  C   UNL     1       5.151  -2.972   7.900  0.00  0.00    +0.003 A 
BRANCH  20  23
ATOM     23  N   UNL     1       8.286  -1.716   9.349  0.00  0.00    -0.330 N 
ATOM     24  C   UNL     1       7.794  -1.001  10.554  0.00  0.00    +0.105 C 
ATOM     25  C   UNL     1       8.881  -1.304  11.615  0.00  0.00    +0.020 C 
ATOM     26  C   UNL     1       9.270  -2.767  11.304  0.00  0.00    +0.020 C 
ATOM     27  C   UNL     1       8.850  -2.992   9.840  0.00  0.00    +0.105 C 
ENDBRANCH  20  23
ENDBRANCH  16  17
ENDBRANCH  14  16
ENDBRANCH   4   9
BRANCH   1  28
ATOM     28  C   UNL     1      -1.990   2.383   3.461  0.00  0.00    +0.206 C 
BRANCH  28  31
ATOM     29  C   UNL     1      -0.058   1.107   0.055  0.00  0.00    +0.106 C 
ATOM     30  C   UNL     1      -0.749   1.563   1.272  0.00  0.00    -0.104 C 
ATOM     31  C   UNL     1      -1.299   1.927   2.243  0.00  0.00    -0.083 C 
ENDBRANCH  28  31
ENDBRANCH   1  28
BRANCH   4  32
ATOM     32  C   UNL     1      -1.310   0.552   7.736  0.00  0.00    +0.040 C 
BRANCH  32  33
ATOM     33  C   UNL     1      -2.272   1.737   7.848  0.00  0.00    +0.038 C 
BRANCH  33  34
ATOM     34  C   UNL     1      -3.014   1.659   9.158  0.00  0.00    -0.047 A 
ATOM     35  C   UNL     1      -4.215   0.981   9.233  0.00  0.00    +0.003 A 
ATOM     36  C   UNL     1      -4.893   0.906  10.435  0.00  0.00    +0.000 A 
ATOM     37  C   UNL     1      -4.374   1.518  11.560  0.00  0.00    +0.000 A 
ATOM     38  C   UNL     1      -3.174   2.200  11.485  0.00  0.00    +0.000 A 
ATOM     39  C   UNL     1      -2.494   2.272  10.283  0.00  0.00    +0.003 A 
ENDBRANCH  33  34
ENDBRANCH  32  33
ENDBRANCH   4  32
TORSDOF 9
