REMARK  Name = ZINC44450035
REMARK  5 active torsions:
REMARK  status: ('A' for Active; 'I' for Inactive)
REMARK    1  A    between atoms: C_1  and  C_2
REMARK    2  A    between atoms: C_5  and  N_9
REMARK    3  A    between atoms: C_7  and  C_8
REMARK    4  A    between atoms: N_12  and  C_13
REMARK    5  A    between atoms: C_19  and  N_21
REMARK                            x       y       z     vdW  Elec       q    Type
REMARK                         _______ _______ _______ _____ _____    ______ ____
ROOT
ATOM      1  N   UNL     1       0.177  -4.027  -0.315  0.00  0.00    -0.269 N 
ATOM      2  C   UNL     1       0.059  -4.772  -1.432  0.00  0.00    +0.304 C 
ATOM      3  O   UNL     1       0.068  -4.236  -2.523  0.00  0.00    -0.253 OA
ATOM      4  N   UNL     1      -0.069  -6.110  -1.339  0.00  0.00    -0.295 N 
ATOM      5  H   UNL     1       0.238  -4.459   0.552  0.00  0.00    +0.156 HD
ATOM      6  H   UNL     1      -0.077  -6.537  -0.468  0.00  0.00    +0.151 HD
ENDROOT
BRANCH   1  11
ATOM      7  C   UNL     1       0.314   1.633  -0.681  0.00  0.00    +0.044 C 
ATOM      8  C   UNL     1       0.278   0.130  -0.583  0.00  0.00    -0.047 A 
ATOM      9  C   UNL     1       0.864  -0.640  -1.571  0.00  0.00    +0.005 A 
ATOM     10  C   UNL     1       0.833  -2.018  -1.485  0.00  0.00    +0.023 A 
ATOM     11  C   UNL     1       0.211  -2.631  -0.405  0.00  0.00    +0.035 A 
ATOM     12  C   UNL     1      -0.377  -1.855   0.585  0.00  0.00    +0.027 A 
ATOM     13  C   UNL     1      -0.337  -0.477   0.496  0.00  0.00    -0.046 A 
ATOM     14  C   UNL     1      -0.970   0.365   1.573  0.00  0.00    +0.044 C 
ENDBRANCH   1  11
BRANCH   4  15
ATOM     15  C   UNL     1      -0.198  -6.920  -2.553  0.00  0.00    +0.095 C 
ATOM     16  C   UNL     1      -1.644  -6.867  -3.050  0.00  0.00    +0.024 C 
ATOM     17  C   UNL     1      -2.575  -7.419  -1.969  0.00  0.00    +0.002 C 
ATOM     18  C   UNL     1      -2.194  -8.868  -1.659  0.00  0.00    +0.002 C 
ATOM     19  C   UNL     1      -0.748  -8.920  -1.161  0.00  0.00    +0.025 C 
ATOM     20  C   UNL     1       0.183  -8.368  -2.243  0.00  0.00    +0.105 C 
BRANCH  20  21
ATOM     21  N   UNL     1       1.568  -8.418  -1.767  0.00  0.00    -0.228 N 
ATOM     22  C   UNL     1       2.532  -8.086  -2.609  0.00  0.00    +0.233 C 
ATOM     23  O   UNL     1       2.306  -7.745  -3.751  0.00  0.00    -0.274 OA
ATOM     24  C   UNL     1       3.944  -8.161  -2.046  0.00  0.00    +0.175 C 
ATOM     25  S   UNL     1       3.570  -8.722  -0.333  0.00  0.00    -0.058 S 
ATOM     26  C   UNL     1       1.791  -8.794  -0.494  0.00  0.00    +0.281 C 
ATOM     27  O   UNL     1       0.974  -9.111   0.349  0.00  0.00    -0.262 OA
ENDBRANCH  20  21
ENDBRANCH   4  15
TORSDOF 3
