REMARK  Name = ZINC64006320
REMARK  3 active torsions:
REMARK  status: ('A' for Active; 'I' for Inactive)
REMARK    1  A    between atoms: C_5  and  C_12
REMARK    2  A    between atoms: N_14  and  C_15
REMARK    3  A    between atoms: C_15  and  C_16
REMARK                            x       y       z     vdW  Elec       q    Type
REMARK                         _______ _______ _______ _____ _____    ______ ____
ROOT
ATOM      1  C   UNL     1       5.388   0.783  -1.281  0.00  0.00    +0.256 C 
ATOM      2  O   UNL     1       5.091   1.507  -2.207  0.00  0.00    -0.271 OA
ATOM      3  N   UNL     1       6.479  -0.004  -1.362  0.00  0.00    -0.306 N 
ATOM      4  H   UNL     1       6.716  -0.583  -0.621  0.00  0.00    +0.149 HD
ENDROOT
BRANCH   1   9
ATOM      5  C   UNL     1      -0.017   1.405   0.010  0.00  0.00    +0.040 A 
ATOM      6  C   UNL     1       1.108   2.146   0.003  0.00  0.00    +0.030 A 
ATOM      7  C   UNL     1       2.417   1.477  -0.013  0.00  0.00    +0.061 A 
ATOM      8  N   UNL     1       3.639   1.925  -0.023  0.00  0.00    -0.356 N 
ATOM      9  C   UNL     1       4.536   0.763  -0.038  0.00  0.00    +0.263 C 
ATOM     10  N   UNL     1       3.673  -0.425  -0.036  0.00  0.00    -0.356 N 
ATOM     11  C   UNL     1       2.438  -0.011  -0.021  0.00  0.00    +0.063 A 
ATOM     12  C   UNL     1       1.151  -0.715  -0.012  0.00  0.00    +0.065 A 
ATOM     13  C   UNL     1       0.002  -0.004   0.002  0.00  0.00    +0.125 A 
ATOM     14  F   UNL     1      -1.174  -0.669   0.010  0.00  0.00    -0.205 F 
ATOM     15  H   UNL     1       3.908   2.857  -0.020  0.00  0.00    +0.162 HD
ATOM     16  H   UNL     1       3.969  -1.349  -0.043  0.00  0.00    +0.162 HD
ENDBRANCH   1   9
BRANCH   3  17
ATOM     17  C   UNL     1       7.307   0.016  -2.571  0.00  0.00    +0.161 C 
BRANCH  17  18
ATOM     18  C   UNL     1       8.456  -0.946  -2.408  0.00  0.00    +0.077 A 
ATOM     19  C   UNL     1       8.484  -2.214  -2.840  0.00  0.00    +0.113 A 
ATOM     20  N   UNL     1       9.725  -2.748  -2.497  0.00  0.00    -0.324 N 
ATOM     21  C   UNL     1      10.374  -1.747  -1.839  0.00  0.00    +0.169 A 
ATOM     22  N   UNL     1       9.628  -0.677  -1.810  0.00  0.00    -0.225 NA
ATOM     23  S   UNL     1      11.944  -2.419  -1.333  0.00  0.00    -0.086 S 
ATOM     24  C   UNL     1      11.584  -4.195  -1.665  0.00  0.00    +0.099 C 
ATOM     25  C   UNL     1      10.429  -4.021  -2.679  0.00  0.00    +0.135 C 
ENDBRANCH  17  18
ENDBRANCH   3  17
TORSDOF 3
