REMARK  Name = ZINC38743000
REMARK  4 active torsions:
REMARK  status: ('A' for Active; 'I' for Inactive)
REMARK    1  A    between atoms: C_4  and  C_7
REMARK    2  A    between atoms: C_10  and  C_13
REMARK    3  A    between atoms: C_16  and  C_23
REMARK    4  A    between atoms: C_26  and  C_29
REMARK                            x       y       z     vdW  Elec       q    Type
REMARK                         _______ _______ _______ _____ _____    ______ ____
ROOT
ATOM      1  C   UNL     1       7.412  -2.754  -0.088  0.00  0.00    +0.125 C 
ATOM      2  N   UNL     1       8.611  -2.248  -0.088  0.00  0.00    -0.173 NA
ATOM      3  N   UNL     1       9.749  -3.019  -0.188  0.00  0.00    -0.206 N 
ATOM      4  C   UNL     1      11.182  -3.007  -0.562  0.00  0.00    +0.206 C 
ATOM      5  N   UNL     1      11.425  -4.302  -1.242  0.00  0.00    -0.231 NA
ATOM      6  N   UNL     1      10.170  -5.067  -1.148  0.00  0.00    -0.224 NA
ATOM      7  C   UNL     1       9.513  -4.481   0.038  0.00  0.00    +0.240 C 
ATOM      8  S   UNL     1       7.689  -4.520  -0.107  0.00  0.00    -0.063 S 
ATOM      9  H   UNL     1      12.187  -4.801  -0.807  0.00  0.00    +0.143 HD
ATOM     10  H   UNL     1      10.355  -6.049  -1.010  0.00  0.00    +0.144 HD
ENDROOT
BRANCH   1  14
ATOM     11  C   UNL     1       3.698  -0.688  -0.038  0.00  0.00    -0.018 A 
ATOM     12  C   UNL     1       4.895   0.029  -0.041  0.00  0.00    +0.009 A 
ATOM     13  C   UNL     1       6.098  -0.639  -0.057  0.00  0.00    +0.011 A 
ATOM     14  C   UNL     1       6.121  -2.036  -0.070  0.00  0.00    +0.008 A 
ATOM     15  C   UNL     1       4.922  -2.753  -0.067  0.00  0.00    +0.011 A 
ATOM     16  C   UNL     1       3.720  -2.083  -0.046  0.00  0.00    +0.009 A 
BRANCH  11  20
ATOM     17  C   UNL     1      -0.017   1.379   0.010  0.00  0.00    +0.000 A 
ATOM     18  C   UNL     1       1.169   2.092   0.002  0.00  0.00    +0.001 A 
ATOM     19  C   UNL     1       2.377   1.427  -0.013  0.00  0.00    +0.008 A 
ATOM     20  C   UNL     1       2.402   0.033  -0.021  0.00  0.00    -0.018 A 
ATOM     21  C   UNL     1       1.205  -0.680  -0.013  0.00  0.00    +0.008 A 
ATOM     22  C   UNL     1       0.002  -0.004   0.002  0.00  0.00    +0.001 A 
ENDBRANCH  11  20
ENDBRANCH   1  14
BRANCH   4  23
ATOM     23  C   UNL     1      12.056  -2.892   0.689  0.00  0.00    +0.190 C 
ATOM     24  C   UNL     1      13.524  -2.812   0.313  0.00  0.00    +0.034 C 
ATOM     25  C   UNL     1      14.064  -3.904   0.888  0.00  0.00    +0.091 C 
ATOM     26  N   UNL     1      13.112  -4.612   1.549  0.00  0.00    -0.154 NA
ATOM     27  N   UNL     1      11.977  -4.123   1.492  0.00  0.00    -0.176 NA
BRANCH  25  28
ATOM     28  C   UNL     1      15.497  -4.281   0.809  0.00  0.00    +0.002 A 
ATOM     29  C   UNL     1      16.394  -3.479   0.105  0.00  0.00    +0.010 A 
ATOM     30  C   UNL     1      17.726  -3.834   0.036  0.00  0.00    +0.001 A 
ATOM     31  C   UNL     1      18.171  -4.984   0.662  0.00  0.00    +0.000 A 
ATOM     32  C   UNL     1      17.285  -5.784   1.362  0.00  0.00    +0.001 A 
ATOM     33  C   UNL     1      15.952  -5.436   1.442  0.00  0.00    +0.010 A 
ENDBRANCH  25  28
ENDBRANCH   4  23
TORSDOF 4
