REMARK  Name = ZINC19483769
REMARK  4 active torsions:
REMARK  status: ('A' for Active; 'I' for Inactive)
REMARK    1  A    between atoms: N_8  and  C_12
REMARK    2  A    between atoms: C_12  and  C_13
REMARK    3  A    between atoms: C_13  and  C_14
REMARK    4  A    between atoms: C_14  and  N_16
REMARK                            x       y       z     vdW  Elec       q    Type
REMARK                         _______ _______ _______ _____ _____    ______ ____
ROOT
ATOM      1  C   UNL     1       2.878  -2.208  -0.767  0.00  0.00    +0.003 C 
ATOM      2  C   UNL     1       2.390  -2.558   0.661  0.00  0.00    +0.003 C 
ATOM      3  C   UNL     1       1.831  -1.226   1.208  0.00  0.00    +0.035 C 
ATOM      4  C   UNL     1       1.461  -0.382  -0.014  0.00  0.00    +0.113 C 
ATOM      5  C   UNL     1       1.804  -1.205  -1.263  0.00  0.00    +0.035 C 
ATOM      6  C   UNL     1       0.002  -0.004   0.002  0.00  0.00    +0.247 C 
ATOM      7  O   UNL     1      -0.952  -0.753   0.007  0.00  0.00    -0.273 OA
ATOM      8  N   UNL     1      -0.016   1.346   0.009  0.00  0.00    -0.224 N 
ATOM      9  C   UNL     1       1.222   1.856   0.000  0.00  0.00    +0.309 C 
ATOM     10  O   UNL     1       1.463   3.047   0.004  0.00  0.00    -0.252 OA
ATOM     11  N   UNL     1       2.171   0.899  -0.014  0.00  0.00    -0.285 N 
ATOM     12  H   UNL     1       3.271   0.918  -0.024  0.00  0.00    +0.151 HD
ENDROOT
BRANCH   8  13
ATOM     13  C   UNL     1      -1.239   2.153   0.020  0.00  0.00    +0.124 C 
BRANCH  13  14
ATOM     14  C   UNL     1      -1.657   2.426   1.466  0.00  0.00    +0.078 C 
BRANCH  14  15
ATOM     15  C   UNL     1      -2.915   3.257   1.477  0.00  0.00    +0.048 C 
ATOM     16  S   UNL     1      -3.589   3.705   0.098  0.00  0.00    -0.041 S 
BRANCH  15  17
ATOM     17  N   UNL     1      -3.472   3.622   2.648  0.00  0.00    -0.355 N 
ATOM     18  H   UNL     1      -4.390   4.228   2.656  0.00  0.00    +0.143 HD
ATOM     19  H   UNL     1      -3.008   3.313   3.597  0.00  0.00    +0.143 HD
ENDBRANCH  15  17
ENDBRANCH  14  15
ENDBRANCH  13  14
ENDBRANCH   8  13
TORSDOF 4
