REMARK  Name = ZINC41850602
REMARK  4 active torsions:
REMARK  status: ('A' for Active; 'I' for Inactive)
REMARK    1  A    between atoms: C_1  and  C_2
REMARK    2  A    between atoms: C_7  and  C_23
REMARK    3  A    between atoms: N_9  and  C_10
REMARK    4  A    between atoms: C_10  and  C_20
REMARK                            x       y       z     vdW  Elec       q    Type
REMARK                         _______ _______ _______ _____ _____    ______ ____
ROOT
ATOM      1  C   UNL     1       2.861  -0.834   0.646  0.00  0.00    +0.071 C 
ATOM      2  C   UNL     1       1.748  -0.334  -0.277  0.00  0.00    +0.045 C 
ATOM      3  C   UNL     1       2.390   0.186  -1.569  0.00  0.00    +0.228 C 
ATOM      4  O   UNL     1       3.010  -0.913  -2.237  0.00  0.00    -0.492 OA
ATOM      5  C   UNL     1       3.826  -1.720  -1.510  0.00  0.00    +0.123 A 
ATOM      6  C   UNL     1       3.798  -1.728  -0.126  0.00  0.00    -0.005 A 
ATOM      7  C   UNL     1       4.644  -2.571   0.575  0.00  0.00    +0.006 A 
ATOM      8  C   UNL     1       5.518  -3.401  -0.100  0.00  0.00    +0.000 A 
ATOM      9  C   UNL     1       5.550  -3.393  -1.482  0.00  0.00    +0.004 A 
ATOM     10  C   UNL     1       4.708  -2.556  -2.186  0.00  0.00    +0.046 A 
ENDROOT
BRANCH   1  17
ATOM     11  C   UNL     1       2.161  -3.527   0.269  0.00  0.00    -0.013 C 
ATOM     12  C   UNL     1       1.380  -2.627   1.227  0.00  0.00    -0.069 C 
ATOM     13  C   UNL     1       0.826  -3.468   2.379  0.00  0.00    -0.016 C 
ATOM     14  C   UNL     1       0.044  -2.563   3.336  0.00  0.00    -0.003 C 
ATOM     15  C   UNL     1       0.964  -1.441   3.827  0.00  0.00    -0.016 C 
ATOM     16  C   UNL     1       1.512  -0.674   2.621  0.00  0.00    -0.069 C 
ATOM     17  N   UNL     1       2.271  -1.589   1.760  0.00  0.00    +0.397 N 
ATOM     18  C   UNL     1       0.350  -0.074   1.827  0.00  0.00    -0.013 C 
ATOM     19  H   UNL     1       3.007  -2.023   2.297  0.00  0.00    -0.079 HD
ENDBRANCH   1  17
BRANCH   1  20
ATOM     20  C   UNL     1       3.628   0.344   1.190  0.00  0.00    +0.350 C 
ATOM     21  O   UNL     1       4.460   0.179   2.066  0.00  0.00    -0.248 OA
ATOM     22  O   UNL     1       3.415   1.463   0.755  0.00  0.00    -0.248 OA
ENDBRANCH   1  20
TORSDOF 2
