REMARK  Name = ZINC03594712
REMARK  5 active torsions:
REMARK  status: ('A' for Active; 'I' for Inactive)
REMARK    1  A    between atoms: C_1  and  C_2
REMARK    2  A    between atoms: C_2  and  C_4
REMARK    3  A    between atoms: C_9  and  N_10
REMARK    4  A    between atoms: C_11  and  C_13
REMARK    5  A    between atoms: C_13  and  N_14
REMARK                            x       y       z     vdW  Elec       q    Type
REMARK                         _______ _______ _______ _____ _____    ______ ____
ROOT
ATOM      1  N   UNL     1       0.233   5.122   1.165  0.00  0.00    -0.215 N 
ATOM      2  C   UNL     1       1.180   4.180   1.372  0.00  0.00    +0.251 C 
ATOM      3  O   UNL     1       1.707   3.885   2.423  0.00  0.00    -0.272 OA
ATOM      4  C   UNL     1       1.440   3.575   0.017  0.00  0.00    +0.138 C 
ATOM      5  C   UNL     1       2.906   3.749  -0.398  0.00  0.00    +0.045 C 
ATOM      6  C   UNL     1       3.525   2.396   0.019  0.00  0.00    +0.038 C 
ATOM      7  C   UNL     1       2.376   1.410   0.001  0.00  0.00    -0.042 A 
ATOM      8  C   UNL     1       1.171   2.095   0.009  0.00  0.00    -0.012 A 
ATOM      9  C   UNL     1      -0.019   1.387   0.003  0.00  0.00    +0.006 A 
ATOM     10  C   UNL     1      -0.010   0.007  -0.014  0.00  0.00    +0.000 A 
ATOM     11  C   UNL     1       1.192  -0.675  -0.025  0.00  0.00    +0.000 A 
ATOM     12  C   UNL     1       2.381   0.026  -0.018  0.00  0.00    +0.004 A 
ATOM     13  N   UNL     1       0.541   4.295  -0.886  0.00  0.00    -0.281 N 
ATOM     14  C   UNL     1      -0.127   5.183  -0.123  0.00  0.00    +0.310 C 
ATOM     15  O   UNL     1      -0.963   5.952  -0.556  0.00  0.00    -0.252 OA
ATOM     16  H   UNL     1       0.446   4.160  -1.842  0.00  0.00    +0.152 HD
ENDROOT
BRANCH   1  17
ATOM     17  C   UNL     1      -0.329   5.969   2.219  0.00  0.00    +0.214 C 
BRANCH  17  19
ATOM     18  N   UNL     1      -2.219   5.891   3.813  0.00  0.00    -0.284 N 
ATOM     19  C   UNL     1      -1.535   5.292   2.819  0.00  0.00    +0.235 C 
ATOM     20  O   UNL     1      -1.889   4.208   2.406  0.00  0.00    -0.274 OA
ATOM     21  H   UNL     1      -1.898   6.726   4.188  0.00  0.00    +0.155 HD
BRANCH  18  27
ATOM     22  C   UNL     1      -4.453   6.122   4.728  0.00  0.00    +0.038 A 
ATOM     23  C   UNL     1      -5.623   5.525   5.212  0.00  0.00    +0.013 A 
ATOM     24  C   UNL     1      -5.716   4.153   5.279  0.00  0.00    +0.001 A 
ATOM     25  C   UNL     1      -4.659   3.358   4.863  0.00  0.00    +0.002 A 
ATOM     26  C   UNL     1      -3.501   3.930   4.377  0.00  0.00    +0.024 A 
ATOM     27  C   UNL     1      -3.386   5.312   4.302  0.00  0.00    +0.044 A 
BRANCH  22  29
ATOM     28  C   UNL     1      -5.439   8.450   5.226  0.00  0.00    +0.091 C 
ATOM     29  C   UNL     1      -4.343   7.584   4.660  0.00  0.00    +0.162 C 
ATOM     30  O   UNL     1      -3.370   8.096   4.147  0.00  0.00    -0.292 OA
ENDBRANCH  22  29
ENDBRANCH  18  27
ENDBRANCH  17  19
ENDBRANCH   1  17
TORSDOF 4
