REMARK  Name = ZINC06147912
REMARK  7 active torsions:
REMARK  status: ('A' for Active; 'I' for Inactive)
REMARK    1  A    between atoms: C_1  and  C_2
REMARK    2  A    between atoms: C_2  and  C_3
REMARK    3  A    between atoms: C_9  and  C_10
REMARK    4  A    between atoms: C_9  and  N_55
REMARK    5  A    between atoms: C_11  and  O_32
REMARK    6  A    between atoms: C_17  and  C_28
REMARK    7  A    between atoms: C_18  and  C_21
REMARK                            x       y       z     vdW  Elec       q    Type
REMARK                         _______ _______ _______ _____ _____    ______ ____
ROOT
ATOM      1  C   UNL     1      -1.342   5.005   0.175  0.00  0.00    +0.020 A 
ATOM      2  C   UNL     1      -2.412   5.770  -0.258  0.00  0.00    +0.122 A 
ATOM      3  C   UNL     1      -2.386   7.158  -0.140  0.00  0.00    +0.046 A 
ATOM      4  C   UNL     1      -1.301   7.783   0.407  0.00  0.00    +0.019 A 
ATOM      5  C   UNL     1      -0.215   7.026   0.848  0.00  0.00    +0.065 A 
ATOM      6  C   UNL     1      -0.234   5.625   0.738  0.00  0.00    +0.144 A 
ATOM      7  O   UNL     1       0.813   4.895   1.171  0.00  0.00    -0.450 OA
ATOM      8  C   UNL     1       1.905   5.433   1.720  0.00  0.00    +0.219 A 
ATOM      9  C   UNL     1       2.053   6.772   1.892  0.00  0.00    +0.076 A 
ATOM     10  C   UNL     1       0.971   7.666   1.444  0.00  0.00    +0.201 A 
ATOM     11  O   UNL     1       1.048   8.876   1.572  0.00  0.00    -0.286 OA
ENDROOT
BRANCH   9  12
ATOM     12  C   UNL     1       3.284   7.324   2.507  0.00  0.00    -0.011 A 
ATOM     13  C   UNL     1       3.588   7.042   3.837  0.00  0.00    +0.010 A 
ATOM     14  C   UNL     1       4.738   7.554   4.404  0.00  0.00    +0.020 A 
ATOM     15  C   UNL     1       5.583   8.355   3.655  0.00  0.00    +0.041 A 
ATOM     16  C   UNL     1       5.283   8.643   2.335  0.00  0.00    +0.020 A 
ATOM     17  C   UNL     1       4.138   8.132   1.758  0.00  0.00    +0.010 A 
ATOM     18 CL   UNL     1       7.024   9.001   4.376  0.00  0.00    -0.084 Cl
ENDBRANCH   9  12
BRANCH   8  19
ATOM     19  C   UNL     1       3.016   4.519   2.168  0.00  0.00    +0.451 C 
ATOM     20  F   UNL     1       2.804   4.144   3.499  0.00  0.00    -0.163 F 
ATOM     21  F   UNL     1       3.035   3.377   1.360  0.00  0.00    -0.163 F 
ATOM     22  F   UNL     1       4.241   5.186   2.061  0.00  0.00    -0.163 F 
ENDBRANCH   8  19
BRANCH   2  23
ATOM     23  O   UNL     1      -3.496   5.162  -0.803  0.00  0.00    -0.506 OA
ATOM     24  H   UNL     1      -4.178   4.924  -0.161  0.00  0.00    +0.292 HD
ENDBRANCH   2  23
BRANCH   1  25
ATOM     25  C   UNL     1      -1.382   3.505   0.041  0.00  0.00    -0.035 C 
BRANCH  25  31
ATOM     26  C   UNL     1      -0.707   1.654  -1.365  0.00  0.00    -0.068 C 
ATOM     27  C   UNL     1       0.015   1.290  -2.664  0.00  0.00    -0.015 C 
ATOM     28  C   UNL     1      -0.770   1.849  -3.853  0.00  0.00    -0.003 C 
ATOM     29  C   UNL     1      -0.913   3.365  -3.693  0.00  0.00    -0.019 C 
ATOM     30  C   UNL     1      -1.609   3.669  -2.364  0.00  0.00    -0.078 C 
ATOM     31  N   UNL     1      -0.790   3.126  -1.259  0.00  0.00    +0.384 N 
ATOM     32  H   UNL     1       0.156   3.519  -1.321  0.00  0.00    -0.081 HD
BRANCH  26  34
ATOM     33  C   UNL     1       0.143  -0.413  -0.249  0.00  0.00    +0.002 C 
ATOM     34  C   UNL     1       0.085   1.114  -0.173  0.00  0.00    -0.019 C 
ENDBRANCH  26  34
ENDBRANCH  25  31
ENDBRANCH   1  25
TORSDOF 6
