REMARK  Name = ZINC10808915
REMARK  7 active torsions:
REMARK  status: ('A' for Active; 'I' for Inactive)
REMARK    1  A    between atoms: C_1  and  C_2
REMARK    2  A    between atoms: C_4  and  C_14
REMARK    3  A    between atoms: N_8  and  C_11
REMARK    4  A    between atoms: C_11  and  C_12
REMARK    5  A    between atoms: C_11  and  C_13
REMARK    6  A    between atoms: N_16  and  N_17
REMARK    7  A    between atoms: N_17  and  C_18
REMARK                            x       y       z     vdW  Elec       q    Type
REMARK                         _______ _______ _______ _____ _____    ______ ____
ROOT
ATOM      1  C   UNL     1       2.368   1.041  -0.028  0.00  0.00    +0.261 C 
ATOM      2  O   UNL     1       2.395  -0.159   0.162  0.00  0.00    -0.269 OA
ATOM      3  N   UNL     1       1.186   1.683  -0.117  0.00  0.00    -0.232 N 
ATOM      4  H   UNL     1       1.165   2.640  -0.269  0.00  0.00    +0.173 HD
ENDROOT
BRANCH   1   8
ATOM      5  C   UNL     1       4.823   5.336  -0.730  0.00  0.00    +0.065 C 
ATOM      6  C   UNL     1       4.834   3.847  -0.495  0.00  0.00    +0.041 A 
ATOM      7  C   UNL     1       3.627   3.173  -0.382  0.00  0.00    +0.037 A 
ATOM      8  C   UNL     1       3.632   1.798  -0.159  0.00  0.00    +0.052 A 
ATOM      9  C   UNL     1       4.883   1.149  -0.069  0.00  0.00    +0.051 A 
ATOM     10  C   UNL     1       5.279  -0.190   0.139  0.00  0.00    +0.145 A 
ATOM     11  N   UNL     1       6.580  -0.243   0.136  0.00  0.00    -0.177 NA
ATOM     12  N   UNL     1       7.106   1.037  -0.072  0.00  0.00    -0.244 N 
ATOM     13  C   UNL     1       6.060   1.913  -0.201  0.00  0.00    +0.159 A 
ATOM     14  N   UNL     1       5.986   3.221  -0.407  0.00  0.00    -0.233 NA
BRANCH  12  15
ATOM     15  C   UNL     1       8.528   1.382  -0.139  0.00  0.00    +0.103 C 
ATOM     16  C   UNL     1       9.207   1.005   1.179  0.00  0.00    +0.032 C 
ATOM     17  C   UNL     1       9.185   0.615  -1.289  0.00  0.00    +0.032 C 
ENDBRANCH  12  15
ENDBRANCH   1   8
BRANCH   3  18
ATOM     18  N   UNL     1      -0.011   0.966   0.007  0.00  0.00    -0.261 N 
ATOM     19  H   UNL     1       0.007  -0.002   0.072  0.00  0.00    +0.170 HD
BRANCH  18  20
ATOM     20  C   UNL     1      -1.234   1.645   0.033  0.00  0.00    +0.081 A 
ATOM     21  C   UNL     1      -1.330   2.882   0.658  0.00  0.00    +0.066 A 
ATOM     22  C   UNL     1      -2.538   3.553   0.677  0.00  0.00    +0.042 A 
ATOM     23  C   UNL     1      -3.654   2.990   0.083  0.00  0.00    +0.044 A 
ATOM     24  C   UNL     1      -3.562   1.756  -0.536  0.00  0.00    +0.042 A 
ATOM     25  C   UNL     1      -2.356   1.082  -0.563  0.00  0.00    +0.066 A 
ATOM     26 CL   UNL     1      -2.242  -0.466  -1.340  0.00  0.00    -0.081 Cl
ATOM     27 CL   UNL     1      -5.171   3.832   0.116  0.00  0.00    -0.083 Cl
ATOM     28 CL   UNL     1       0.067   3.587   1.409  0.00  0.00    -0.081 Cl
ENDBRANCH  18  20
ENDBRANCH   3  18
TORSDOF 4
