REMARK  Name = ZINC16037772
REMARK  4 active torsions:
REMARK  status: ('A' for Active; 'I' for Inactive)
REMARK    1  A    between atoms: C_4  and  N_11
REMARK    2  A    between atoms: C_5  and  C_7
REMARK    3  A    between atoms: C_22  and  C_23
REMARK    4  A    between atoms: C_26  and  N_29
REMARK                            x       y       z     vdW  Elec       q    Type
REMARK                         _______ _______ _______ _____ _____    ______ ____
ROOT
ATOM      1  N   UNL     1       3.623  -0.652  -0.037  0.00  0.00    -0.203 N 
ATOM      2  C   UNL     1       4.265  -1.004  -1.165  0.00  0.00    +0.258 C 
ATOM      3  O   UNL     1       3.804  -0.900  -2.288  0.00  0.00    -0.269 OA
ATOM      4  C   UNL     1       5.533  -1.504  -0.867  0.00  0.00    +0.081 C 
ATOM      5  H   UNL     1       8.390  -2.462   0.073  0.00  0.00    +0.194 HD
ATOM      6  C   UNL     1       5.422  -1.889   0.615  0.00  0.00    +0.272 C 
ATOM      7  C   UNL     1       4.289  -1.023   1.080  0.00  0.00    +0.263 C 
ATOM      8  O   UNL     1       4.022  -0.719   2.223  0.00  0.00    -0.271 OA
ATOM      9  O   UNL     1       6.726  -1.502   1.074  0.00  0.00    -0.256 OA
ATOM     10  N   UNL     1       7.529  -2.022  -0.005  0.00  0.00    -0.264 N 
ATOM     11  C   UNL     1       6.830  -1.769  -1.177  0.00  0.00    +0.080 C 
ENDROOT
BRANCH   1  15
ATOM     12  C   UNL     1      -0.017   1.378   0.010  0.00  0.00    +0.001 A 
ATOM     13  C   UNL     1       1.170   2.089   0.002  0.00  0.00    +0.002 A 
ATOM     14  C   UNL     1       2.377   1.419  -0.013  0.00  0.00    +0.024 A 
ATOM     15  C   UNL     1       2.400   0.031  -0.021  0.00  0.00    +0.056 A 
ATOM     16  C   UNL     1       1.207  -0.680  -0.013  0.00  0.00    +0.077 A 
ATOM     17  C   UNL     1       0.002  -0.004   0.002  0.00  0.00    +0.014 A 
BRANCH  16  18
ATOM     18  C   UNL     1       1.226  -2.187  -0.022  0.00  0.00    +0.419 C 
ATOM     19  F   UNL     1      -0.086  -2.670  -0.011  0.00  0.00    -0.166 F 
ATOM     20  F   UNL     1       1.880  -2.638  -1.173  0.00  0.00    -0.166 F 
ATOM     21  F   UNL     1       1.903  -2.651   1.111  0.00  0.00    -0.166 F 
ENDBRANCH  16  18
ENDBRANCH   1  15
BRANCH  11  22
ATOM     22  C   UNL     1       7.402  -1.785  -2.538  0.00  0.00    +0.001 A 
ATOM     23  C   UNL     1       6.593  -1.508  -3.642  0.00  0.00    +0.012 A 
ATOM     24  C   UNL     1       7.134  -1.524  -4.911  0.00  0.00    +0.033 A 
ATOM     25  C   UNL     1       8.475  -1.815  -5.092  0.00  0.00    +0.126 A 
ATOM     26  C   UNL     1       9.282  -2.091  -4.002  0.00  0.00    +0.033 A 
ATOM     27  C   UNL     1       8.756  -2.071  -2.727  0.00  0.00    +0.012 A 
BRANCH  25  28
ATOM     28  N   UNL     1       9.047  -1.833  -6.456  0.00  0.00    +0.056 N 
ATOM     29  O   UNL     1       8.344  -1.593  -7.410  0.00  0.00    -0.126 OA
ATOM     30  O   UNL     1      10.219  -2.087  -6.617  0.00  0.00    -0.126 OA
ENDBRANCH  25  28
ENDBRANCH  11  22
TORSDOF 4
