REMARK  Name = ZINC00925617
REMARK  11 active torsions:
REMARK  status: ('A' for Active; 'I' for Inactive)
REMARK    1  A    between atoms: C_1  and  C_2
REMARK    2  A    between atoms: C_9  and  C_14
REMARK    3  A    between atoms: C_14  and  N_59
REMARK    4  A    between atoms: C_15  and  C_16
REMARK    5  A    between atoms: C_15  and  N_59
REMARK    6  A    between atoms: C_22  and  C_23
REMARK    7  A    between atoms: C_22  and  N_59
REMARK    8  A    between atoms: N_27  and  C_28
REMARK    9  A    between atoms: C_28  and  C_29
REMARK   10  A    between atoms: C_28  and  C_30
REMARK   11  A    between atoms: C_28  and  C_31
REMARK                            x       y       z     vdW  Elec       q    Type
REMARK                         _______ _______ _______ _____ _____    ______ ____
ROOT
ATOM      1  N   UNL     1      -0.813   1.458   1.460  0.00  0.00    +0.390 N 
ATOM      2  H   UNL     1      -1.274   2.365   1.594  0.00  0.00    -0.080 HD
ENDROOT
BRANCH   1   3
ATOM      3  C   UNL     1       0.453   1.445   2.223  0.00  0.00    -0.036 C 
BRANCH   3  12
ATOM      4  C   UNL     1       1.898   8.440   4.369  0.00  0.00    +0.044 C 
ATOM      5  C   UNL     1       2.087   7.294   3.408  0.00  0.00    -0.050 A 
ATOM      6  C   UNL     1       2.920   7.449   2.308  0.00  0.00    +0.005 A 
ATOM      7  C   UNL     1       3.107   6.415   1.416  0.00  0.00    +0.026 A 
ATOM      8  C   UNL     1       2.455   5.203   1.618  0.00  0.00    +0.049 A 
ATOM      9  C   UNL     1       1.612   5.050   2.735  0.00  0.00    -0.001 A 
ATOM     10  C   UNL     1       1.437   6.113   3.627  0.00  0.00    +0.013 A 
ATOM     11  C   UNL     1       0.931   3.770   2.939  0.00  0.00    +0.017 A 
ATOM     12  C   UNL     1       1.139   2.775   2.042  0.00  0.00    +0.001 A 
ATOM     13  C   UNL     1       1.999   2.978   0.942  0.00  0.00    +0.251 A 
ATOM     14  O   UNL     1       2.176   2.069   0.149  0.00  0.00    -0.268 OA
ATOM     15  N   UNL     1       2.625   4.152   0.743  0.00  0.00    -0.322 N 
ATOM     16  H   UNL     1       3.221   4.264  -0.052  0.00  0.00    +0.169 HD
ENDBRANCH   3  12
ENDBRANCH   1   3
BRANCH   1  17
ATOM     17  C   UNL     1      -1.708   0.388   1.950  0.00  0.00    -0.042 C 
BRANCH  17  18
ATOM     18  C   UNL     1      -2.265   0.798   3.289  0.00  0.00    -0.064 A 
ATOM     19  C   UNL     1      -1.668   0.351   4.452  0.00  0.00    +0.002 A 
ATOM     20  C   UNL     1      -2.176   0.731   5.680  0.00  0.00    +0.000 A 
ATOM     21  C   UNL     1      -3.288   1.550   5.745  0.00  0.00    +0.000 A 
ATOM     22  C   UNL     1      -3.889   1.993   4.581  0.00  0.00    +0.000 A 
ATOM     23  C   UNL     1      -3.377   1.617   3.353  0.00  0.00    +0.002 A 
ENDBRANCH  17  18
ENDBRANCH   1  17
BRANCH   1  24
ATOM     24  C   UNL     1      -0.538   1.267   0.021  0.00  0.00    +0.001 C 
BRANCH  24  25
ATOM     25  C   UNL     1      -1.810   1.502  -0.752  0.00  0.00    +0.136 A 
ATOM     26  N   UNL     1      -2.757   0.627  -0.987  0.00  0.00    -0.115 NA
ATOM     27  N   UNL     1      -3.676   1.210  -1.677  0.00  0.00    -0.023 NA
ATOM     28  N   UNL     1      -3.336   2.432  -1.896  0.00  0.00    -0.043 NA
ATOM     29  N   UNL     1      -2.191   2.651  -1.342  0.00  0.00    -0.226 N 
BRANCH  29  30
ATOM     30  C   UNL     1      -1.446   3.912  -1.352  0.00  0.00    +0.059 C 
ATOM     31  C   UNL     1      -0.140   3.727  -2.127  0.00  0.00    +0.036 C 
ATOM     32  C   UNL     1      -2.289   4.997  -2.026  0.00  0.00    +0.036 C 
ATOM     33  C   UNL     1      -1.131   4.331   0.085  0.00  0.00    +0.036 C 
ENDBRANCH  29  30
ENDBRANCH  24  25
ENDBRANCH   1  24
TORSDOF 7
