REMARK  Name = ZINC11824477
REMARK  9 active torsions:
REMARK  status: ('A' for Active; 'I' for Inactive)
REMARK    1  A    between atoms: C_1  and  C_2
REMARK    2  A    between atoms: C_2  and  C_3
REMARK    3  A    between atoms: C_3  and  C_5
REMARK    4  A    between atoms: C_3  and  N_6
REMARK    5  A    between atoms: C_7  and  C_9
REMARK    6  A    between atoms: C_14  and  O_20
REMARK    7  A    between atoms: O_20  and  C_21
REMARK    8  A    between atoms: C_21  and  C_22
REMARK    9  A    between atoms: C_25  and  C_27
REMARK                            x       y       z     vdW  Elec       q    Type
REMARK                         _______ _______ _______ _____ _____    ______ ____
ROOT
ATOM      1  C   UNL     1       1.280  -0.723  -0.014  0.00  0.00    +0.122 A 
ATOM      2  C   UNL     1       2.458   0.008  -0.021  0.00  0.00    +0.031 A 
ATOM      3  C   UNL     1       2.382   1.421  -0.013  0.00  0.00    +0.019 A 
ATOM      4  C   UNL     1       3.557   2.190  -0.021  0.00  0.00    +0.015 A 
ATOM      5  C   UNL     1       3.480   3.550  -0.013  0.00  0.00    +0.046 A 
ATOM      6  C   UNL     1       2.239   4.187   0.002  0.00  0.00    +0.125 A 
ATOM      7  C   UNL     1       1.069   3.446   0.009  0.00  0.00    +0.092 A 
ATOM      8  C   UNL     1       1.127   2.059   0.002  0.00  0.00    +0.143 A 
ATOM      9  O   UNL     1      -0.016   1.339   0.009  0.00  0.00    -0.422 OA
ATOM     10  C   UNL     1       0.002  -0.004   0.002  0.00  0.00    +0.350 A 
ATOM     11  O   UNL     1      -1.044  -0.625   0.008  0.00  0.00    -0.244 OA
ENDROOT
BRANCH   1  13
ATOM     12  N   UNL     1       2.493  -2.843  -0.037  0.00  0.00    -0.309 N 
ATOM     13  C   UNL     1       1.312  -2.194  -0.023  0.00  0.00    +0.251 C 
ATOM     14  O   UNL     1       0.272  -2.825  -0.017  0.00  0.00    -0.270 OA
ATOM     15  H   UNL     1       3.322  -2.340  -0.042  0.00  0.00    +0.149 HD
BRANCH  12  16
ATOM     16  C   UNL     1       2.524  -4.308  -0.046  0.00  0.00    +0.070 C 
ATOM     17  C   UNL     1       2.396  -4.812  -1.485  0.00  0.00    +0.028 C 
BRANCH  16  19
ATOM     18  C   UNL     1       3.921  -4.395   2.024  0.00  0.00    +0.005 C 
ATOM     19  C   UNL     1       3.848  -4.793   0.548  0.00  0.00    +0.018 C 
ENDBRANCH  16  19
ENDBRANCH  12  16
ENDBRANCH   1  13
BRANCH   6  20
ATOM     20  O   UNL     1       2.177   5.542   0.009  0.00  0.00    -0.484 OA
BRANCH  20  21
ATOM     21  C   UNL     1       3.420   6.248   0.001  0.00  0.00    +0.303 C 
BRANCH  21  22
ATOM     22  C   UNL     1       3.155   7.732   0.011  0.00  0.00    +0.143 A 
ATOM     23  C   UNL     1       3.026   8.501   1.115  0.00  0.00    +0.049 A 
ATOM     24  C   UNL     1       2.789   9.813   0.679  0.00  0.00    +0.057 A 
ATOM     25  C   UNL     1       2.784   9.778  -0.687  0.00  0.00    +0.216 A 
ATOM     26  O   UNL     1       3.013   8.506  -1.072  0.00  0.00    -0.450 OA
BRANCH  25  27
ATOM     27  C   UNL     1       2.572  10.922  -1.576  0.00  0.00    +0.421 C 
ATOM     28  O   UNL     1       2.378  12.028  -1.109  0.00  0.00    -0.237 OA
ATOM     29  O   UNL     1       2.592  10.750  -2.914  0.00  0.00    -0.237 OA
ENDBRANCH  25  27
ENDBRANCH  21  22
ENDBRANCH  20  21
ENDBRANCH   6  20
TORSDOF 7
