REMARK  Name = ZINC38971885
REMARK  8 active torsions:
REMARK  status: ('A' for Active; 'I' for Inactive)
REMARK    1  A    between atoms: C_1  and  C_2
REMARK    2  A    between atoms: C_2  and  C_4
REMARK    3  A    between atoms: C_7  and  N_10
REMARK    4  A    between atoms: N_10  and  C_11
REMARK    5  A    between atoms: N_14  and  S_15
REMARK    6  A    between atoms: S_15  and  C_18
REMARK    7  A    between atoms: C_21  and  O_24
REMARK    8  A    between atoms: O_24  and  C_25
REMARK                            x       y       z     vdW  Elec       q    Type
REMARK                         _______ _______ _______ _____ _____    ______ ____
ROOT
ATOM      1  C   UNL     1       0.119  -4.247  -4.891  0.00  0.00    +0.237 C 
ATOM      2  C   UNL     1       1.276  -4.604  -5.797  0.00  0.00    +0.192 C 
ATOM      3  N   UNL     1       2.466  -4.137  -5.563  0.00  0.00    -0.110 NA
ATOM      4  N   UNL     1       1.055  -5.411  -6.847  0.00  0.00    -0.226 NA
ATOM      5  C   UNL     1      -0.141  -5.897  -7.105  0.00  0.00    +0.089 A 
ATOM      6  C   UNL     1      -0.338  -6.746  -8.223  0.00  0.00    +0.030 A 
ATOM      7  C   UNL     1      -1.564  -7.247  -8.493  0.00  0.00    +0.002 A 
ATOM      8  C   UNL     1      -2.690  -6.965  -7.703  0.00  0.00    +0.002 A 
ATOM      9  C   UNL     1      -2.614  -6.167  -6.615  0.00  0.00    +0.027 A 
ATOM     10  C   UNL     1      -1.315  -5.582  -6.253  0.00  0.00    +0.063 A 
ATOM     11  N   UNL     1      -1.202  -4.808  -5.211  0.00  0.00    -0.359 N 
ATOM     12  H   UNL     1      -1.974  -4.607  -4.658  0.00  0.00    +0.162 HD
ENDROOT
BRANCH   3  13
ATOM     13  S   UNL     1       3.724  -4.536  -6.563  0.00  0.00    +0.100 S 
ATOM     14  O   UNL     1       3.941  -5.932  -6.406  0.00  0.00    -0.146 OA
ATOM     15  O   UNL     1       3.442  -3.947  -7.825  0.00  0.00    -0.146 OA
BRANCH  13  16
ATOM     16  C   UNL     1       5.162  -3.730  -5.941  0.00  0.00    +0.113 A 
ATOM     17  C   UNL     1       5.481  -2.457  -6.375  0.00  0.00    +0.032 A 
ATOM     18  C   UNL     1       6.608  -1.822  -5.889  0.00  0.00    +0.047 A 
ATOM     19  C   UNL     1       7.419  -2.463  -4.964  0.00  0.00    +0.120 A 
ATOM     20  C   UNL     1       7.095  -3.741  -4.529  0.00  0.00    +0.047 A 
ATOM     21  C   UNL     1       5.965  -4.369  -5.014  0.00  0.00    +0.032 A 
BRANCH  19  22
ATOM     22  O   UNL     1       8.528  -1.842  -4.484  0.00  0.00    -0.495 OA
ATOM     23  C   UNL     1       9.316  -2.562  -3.534  0.00  0.00    +0.277 C 
ENDBRANCH  19  22
ENDBRANCH  13  16
ENDBRANCH   3  13
BRANCH   1  24
ATOM     24  N   UNL     1      -0.005  -2.787  -4.879  0.00  0.00    -0.318 N 
ATOM     25  H   UNL     1      -0.052  -2.298  -5.716  0.00  0.00    +0.148 HD
BRANCH  24  29
ATOM     26  C   UNL     1      -0.157  -0.745  -1.268  0.00  0.00    +0.017 A 
ATOM     27  C   UNL     1      -0.214  -2.144  -1.287  0.00  0.00    +0.013 A 
ATOM     28  C   UNL     1      -0.164  -2.812  -2.477  0.00  0.00    +0.023 A 
ATOM     29  C   UNL     1      -0.057  -2.104  -3.671  0.00  0.00    +0.029 A 
ATOM     30  C   UNL     1       0.000  -0.712  -3.658  0.00  0.00    +0.023 A 
ATOM     31  C   UNL     1      -0.054  -0.036  -2.473  0.00  0.00    +0.013 A 
BRANCH  26  33
ATOM     32  C   UNL     1      -0.322  -0.787   1.302  0.00  0.00    +0.091 C 
ATOM     33  C   UNL     1      -0.211  -0.023   0.008  0.00  0.00    +0.160 C 
ATOM     34  O   UNL     1      -0.167   1.190   0.022  0.00  0.00    -0.292 OA
ENDBRANCH  26  33
ENDBRANCH  24  29
ENDBRANCH   1  24
TORSDOF 6
