REMARK  Name = ZINC09714802
REMARK  7 active torsions:
REMARK  status: ('A' for Active; 'I' for Inactive)
REMARK    1  A    between atoms: C_1  and  N_2
REMARK    2  A    between atoms: C_3  and  C_5
REMARK    3  A    between atoms: C_9  and  N_10
REMARK    4  A    between atoms: C_11  and  C_13
REMARK    5  A    between atoms: C_17  and  N_19
REMARK    6  A    between atoms: N_19  and  S_20
REMARK    7  A    between atoms: S_20  and  C_23
REMARK                            x       y       z     vdW  Elec       q    Type
REMARK                         _______ _______ _______ _____ _____    ______ ____
ROOT
ATOM      1  C   UNL     1      -5.457   4.822  -0.066  0.00  0.00    +0.039 A 
ATOM      2  C   UNL     1      -4.417   5.753  -0.009  0.00  0.00    +0.013 A 
ATOM      3  C   UNL     1      -4.700   7.101   0.068  0.00  0.00    +0.003 A 
ATOM      4  C   UNL     1      -6.012   7.535   0.100  0.00  0.00    +0.024 A 
ATOM      5  C   UNL     1      -7.055   6.618   0.049  0.00  0.00    +0.049 A 
ATOM      6  C   UNL     1      -6.781   5.261  -0.034  0.00  0.00    +0.037 A 
ENDROOT
BRANCH   1   8
ATOM      7  N   UNL     1      -3.876   2.957  -0.185  0.00  0.00    -0.275 N 
ATOM      8  C   UNL     1      -5.156   3.378  -0.154  0.00  0.00    +0.249 C 
ATOM      9  O   UNL     1      -6.063   2.570  -0.198  0.00  0.00    -0.270 OA
ATOM     10  H   UNL     1      -3.152   3.602  -0.149  0.00  0.00    +0.156 HD
BRANCH   7  15
ATOM     11  C   UNL     1      -2.352   0.981  -0.310  0.00  0.00    +0.065 A 
ATOM     12  C   UNL     1      -2.350  -0.460  -0.401  0.00  0.00    +0.022 A 
ATOM     13  C   UNL     1      -3.546  -1.075  -0.427  0.00  0.00    +0.048 A 
ATOM     14  S   UNL     1      -4.704   0.276  -0.341  0.00  0.00    -0.081 S 
ATOM     15  C   UNL     1      -3.594   1.603  -0.267  0.00  0.00    +0.084 A 
BRANCH  11  18
ATOM     16  C   UNL     1       1.329   1.882  -0.280  0.00  0.00    +0.128 C 
ATOM     17  N   UNL     1       0.082   1.113  -0.313  0.00  0.00    -0.314 N 
ATOM     18  C   UNL     1      -1.104   1.750  -0.270  0.00  0.00    +0.246 C 
ATOM     19  O   UNL     1      -1.141   2.964  -0.198  0.00  0.00    -0.270 OA
ATOM     20  H   UNL     1       0.111   0.145  -0.371  0.00  0.00    +0.149 HD
ENDBRANCH  11  18
ENDBRANCH   7  15
ENDBRANCH   1   8
BRANCH   5  21
ATOM     21  N   UNL     1      -8.379   7.062   0.082  0.00  0.00    -0.216 N 
ATOM     22  H   UNL     1      -9.027   6.703  -0.544  0.00  0.00    +0.174 HD
BRANCH  21  23
ATOM     23  S   UNL     1      -8.842   8.202   1.190  0.00  0.00    +0.072 S 
ATOM     24  O   UNL     1      -7.933   9.287   1.061  0.00  0.00    -0.150 OA
ATOM     25  O   UNL     1     -10.246   8.364   1.044  0.00  0.00    -0.150 OA
BRANCH  23  26
ATOM     26  C   UNL     1      -8.579   7.512   2.790  0.00  0.00    +0.109 A 
ATOM     27  C   UNL     1      -9.550   6.713   3.365  0.00  0.00    +0.031 A 
ATOM     28  C   UNL     1      -9.342   6.167   4.618  0.00  0.00    +0.040 A 
ATOM     29  C   UNL     1      -8.166   6.429   5.301  0.00  0.00    +0.124 A 
ATOM     30  C   UNL     1      -7.197   7.233   4.725  0.00  0.00    +0.040 A 
ATOM     31  C   UNL     1      -7.404   7.774   3.470  0.00  0.00    +0.031 A 
ATOM     32  F   UNL     1      -7.964   5.899   6.527  0.00  0.00    -0.205 F 
ENDBRANCH  23  26
ENDBRANCH  21  23
ENDBRANCH   5  21
TORSDOF 6
