REMARK  Name = ZINC44027523
REMARK  5 active torsions:
REMARK  status: ('A' for Active; 'I' for Inactive)
REMARK    1  A    between atoms: C_1  and  C_2
REMARK    2  A    between atoms: C_4  and  C_10
REMARK    3  A    between atoms: C_6  and  C_9
REMARK    4  A    between atoms: C_7  and  O_8
REMARK    5  A    between atoms: N_18  and  C_19
REMARK                            x       y       z     vdW  Elec       q    Type
REMARK                         _______ _______ _______ _____ _____    ______ ____
ROOT
ATOM      1  C   UNL     1       0.029  -2.816  -2.475  0.00  0.00    +0.015 C 
ATOM      2  C   UNL     1       0.149  -4.162  -2.481  0.00  0.00    +0.001 C 
ATOM      3  C   UNL     1       0.166  -4.970  -1.199  0.00  0.00    +0.045 C 
ATOM      4  C   UNL     1      -0.966  -6.002  -1.216  0.00  0.00    +0.060 C 
ATOM      5  C   UNL     1      -0.982  -6.732  -2.532  0.00  0.00    +0.050 A 
ATOM      6  C   UNL     1      -0.419  -6.244  -3.702  0.00  0.00    +0.062 A 
ATOM      7  C   UNL     1      -0.635  -7.186  -4.711  0.00  0.00    +0.146 A 
ATOM      8  N   UNL     1      -1.287  -8.191  -4.182  0.00  0.00    -0.179 NA
ATOM      9  N   UNL     1      -1.509  -7.925  -2.822  0.00  0.00    -0.271 N 
ATOM     10  C   UNL     1      -2.202  -8.808  -1.880  0.00  0.00    +0.172 C 
ATOM     11  C   UNL     1       0.268  -4.933  -3.744  0.00  0.00    +0.192 C 
ATOM     12  O   UNL     1       0.872  -4.529  -4.721  0.00  0.00    -0.287 OA
ENDROOT
BRANCH   1  16
ATOM     13  C   UNL     1       1.980  -2.258   2.076  0.00  0.00    +0.047 C 
ATOM     14  C   UNL     1       1.040  -1.804   0.989  0.00  0.00    -0.008 A 
ATOM     15  C   UNL     1       0.975  -2.500  -0.197  0.00  0.00    +0.015 A 
ATOM     16  C   UNL     1       0.102  -2.078  -1.207  0.00  0.00    -0.024 A 
ATOM     17  C   UNL     1      -0.701  -0.949  -1.004  0.00  0.00    +0.015 A 
ATOM     18  C   UNL     1      -0.628  -0.260   0.186  0.00  0.00    -0.008 A 
ATOM     19  C   UNL     1       0.237  -0.687   1.187  0.00  0.00    +0.123 A 
ATOM     20  C   UNL     1      -1.492   0.955   0.406  0.00  0.00    +0.047 C 
BRANCH  19  21
ATOM     21  O   UNL     1       0.301  -0.008   2.360  0.00  0.00    -0.506 OA
ATOM     22  H   UNL     1       0.955   0.705   2.367  0.00  0.00    +0.292 HD
ENDBRANCH  19  21
ENDBRANCH   1  16
TORSDOF 2
