REMARK  Name = ZINC66399365
REMARK  8 active torsions:
REMARK  status: ('A' for Active; 'I' for Inactive)
REMARK    1  A    between atoms: C_1  and  C_2
REMARK    2  A    between atoms: C_7  and  C_8
REMARK    3  A    between atoms: C_8  and  C_10
REMARK    4  A    between atoms: C_8  and  N_12
REMARK    5  A    between atoms: C_13  and  C_15
REMARK    6  A    between atoms: C_15  and  N_16
REMARK    7  A    between atoms: C_19  and  C_23
REMARK    8  A    between atoms: C_19  and  C_24
REMARK                            x       y       z     vdW  Elec       q    Type
REMARK                         _______ _______ _______ _____ _____    ______ ____
ROOT
ATOM      1  N   UNL     1       2.368  -0.230   6.750  0.00  0.00    -0.215 N 
ATOM      2  C   UNL     1       3.625   0.256   6.758  0.00  0.00    +0.251 C 
ATOM      3  O   UNL     1       4.485   0.076   5.922  0.00  0.00    -0.272 OA
ATOM      4  C   UNL     1       3.740   1.074   8.029  0.00  0.00    +0.135 C 
ATOM      5  N   UNL     1       2.409   0.942   8.647  0.00  0.00    -0.281 N 
ATOM      6  C   UNL     1       1.678   0.168   7.825  0.00  0.00    +0.310 C 
ATOM      7  O   UNL     1       0.521  -0.139   8.037  0.00  0.00    -0.252 OA
ATOM      8  C   UNL     1       4.819   0.496   8.946  0.00  0.00    +0.047 C 
ATOM      9  H   UNL     1       2.116   1.339   9.482  0.00  0.00    +0.152 HD
ENDROOT
BRANCH   4  10
ATOM     10  C   UNL     1       4.034   2.517   7.706  0.00  0.00    -0.015 A 
ATOM     11  C   UNL     1       4.742   2.838   6.563  0.00  0.00    +0.009 A 
ATOM     12  C   UNL     1       5.012   4.160   6.266  0.00  0.00    +0.039 A 
ATOM     13  C   UNL     1       4.572   5.163   7.113  0.00  0.00    +0.123 A 
ATOM     14  C   UNL     1       3.862   4.840   8.257  0.00  0.00    +0.039 A 
ATOM     15  C   UNL     1       3.589   3.518   8.549  0.00  0.00    +0.009 A 
ATOM     16  F   UNL     1       4.835   6.456   6.823  0.00  0.00    -0.205 F 
ENDBRANCH   4  10
BRANCH   1  17
ATOM     17  C   UNL     1       1.822  -1.083   5.691  0.00  0.00    +0.213 C 
BRANCH  17  19
ATOM     18  N   UNL     1       0.630  -0.793   3.543  0.00  0.00    -0.295 N 
ATOM     19  C   UNL     1       1.199  -0.221   4.623  0.00  0.00    +0.232 C 
ATOM     20  O   UNL     1       1.211   0.986   4.735  0.00  0.00    -0.274 OA
ATOM     21  H   UNL     1       0.621  -1.758   3.453  0.00  0.00    +0.150 HD
BRANCH  18  22
ATOM     22  C   UNL     1       0.025   0.045   2.504  0.00  0.00    +0.207 C 
BRANCH  22  29
ATOM     23  C   UNL     1      -0.018   1.503   0.010  0.00  0.00    +0.044 C 
ATOM     24  C   UNL     1       0.002  -0.004   0.002  0.00  0.00    -0.045 A 
ATOM     25  C   UNL     1       0.006  -0.689  -1.199  0.00  0.00    +0.004 A 
ATOM     26  C   UNL     1       0.025  -2.071  -1.207  0.00  0.00    +0.000 A 
ATOM     27  C   UNL     1       0.040  -2.768  -0.013  0.00  0.00    +0.000 A 
ATOM     28  C   UNL     1       0.037  -2.084   1.188  0.00  0.00    +0.007 A 
ATOM     29  C   UNL     1       0.023  -0.702   1.195  0.00  0.00    -0.010 A 
ENDBRANCH  22  29
BRANCH  22  30
ATOM     30  C   UNL     1      -1.358   0.374   2.884  0.00  0.00    +0.090 C 
ATOM     31  N   UNL     1      -2.426   0.628   3.177  0.00  0.00    -0.194 NA
ENDBRANCH  22  30
ENDBRANCH  18  22
ENDBRANCH  17  19
ENDBRANCH   1  17
TORSDOF 6
