REMARK  Name = ZINC62528864
REMARK  2 active torsions:
REMARK  status: ('A' for Active; 'I' for Inactive)
REMARK    1  A    between atoms: C_1  and  C_2
REMARK    2  A    between atoms: C_5  and  C_8
REMARK                            x       y       z     vdW  Elec       q    Type
REMARK                         _______ _______ _______ _____ _____    ______ ____
ROOT
ATOM      1  C   UNL     1       0.059  -4.275  -0.021  0.00  0.00    +0.221 C 
ATOM      2  C   UNL     1      -1.373  -4.809   0.117  0.00  0.00    +0.151 C 
ATOM      3  N   UNL     1      -1.299  -6.280   0.153  0.00  0.00    -0.337 N 
ATOM      4  C   UNL     1      -0.276  -6.863   0.918  0.00  0.00    +0.070 A 
ATOM      5  C   UNL     1      -0.321  -8.213   1.224  0.00  0.00    +0.026 A 
ATOM      6  C   UNL     1       0.690  -8.784   1.975  0.00  0.00    +0.002 A 
ATOM      7  C   UNL     1       1.745  -8.008   2.418  0.00  0.00    +0.004 A 
ATOM      8  C   UNL     1       1.795  -6.660   2.116  0.00  0.00    +0.047 A 
ATOM      9  C   UNL     1       0.784  -6.079   1.366  0.00  0.00    +0.142 A 
ATOM     10  O   UNL     1       0.839  -4.750   1.079  0.00  0.00    -0.481 OA
ATOM     11  H   UNL     1      -1.935  -6.827  -0.334  0.00  0.00    +0.146 HD
ENDROOT
BRANCH   1  16
ATOM     12  C   UNL     1      -0.018   1.503   0.010  0.00  0.00    +0.044 C 
ATOM     13  C   UNL     1       0.002  -0.004   0.002  0.00  0.00    -0.050 A 
ATOM     14  C   UNL     1       0.006  -0.689  -1.199  0.00  0.00    +0.004 A 
ATOM     15  C   UNL     1       0.025  -2.071  -1.206  0.00  0.00    +0.007 A 
ATOM     16  C   UNL     1       0.040  -2.768  -0.013  0.00  0.00    -0.006 A 
ATOM     17  C   UNL     1       0.037  -2.084   1.188  0.00  0.00    +0.007 A 
ATOM     18  C   UNL     1       0.023  -0.702   1.195  0.00  0.00    +0.004 A 
ENDBRANCH   1  16
TORSDOF 1
