REMARK  Name = ZINC28296252
REMARK  6 active torsions:
REMARK  status: ('A' for Active; 'I' for Inactive)
REMARK    1  A    between atoms: C_1  and  C_2
REMARK    2  A    between atoms: C_7  and  C_17
REMARK    3  A    between atoms: C_9  and  C_13
REMARK    4  A    between atoms: C_10  and  C_12
REMARK    5  A    between atoms: C_13  and  O_15
REMARK    6  A    between atoms: O_15  and  C_16
REMARK                            x       y       z     vdW  Elec       q    Type
REMARK                         _______ _______ _______ _____ _____    ______ ____
ROOT
ATOM      1  C   UNL     1       3.995   2.266  -4.750  0.00  0.00    +0.090 C 
ATOM      2  C   UNL     1       3.878   2.131  -3.253  0.00  0.00    +0.150 A 
ATOM      3  N   UNL     1       4.671   2.727  -2.357  0.00  0.00    -0.198 NA
ATOM      4  C   UNL     1       4.296   2.396  -1.153  0.00  0.00    +0.219 A 
ATOM      5  N   UNL     1       3.228   1.567  -1.260  0.00  0.00    -0.220 N 
ATOM      6  N   UNL     1       2.983   1.411  -2.623  0.00  0.00    -0.153 NA
ATOM      7  C   UNL     1       2.529   0.996  -0.112  0.00  0.00    +0.179 C 
ATOM      8  C   UNL     1       3.342   1.225   1.134  0.00  0.00    +0.082 C 
ATOM      9  C   UNL     1       4.394   2.057   1.180  0.00  0.00    +0.020 C 
ATOM     10  N   UNL     1       4.818   2.761   0.081  0.00  0.00    -0.287 N 
ATOM     11  C   UNL     1       5.134   2.224   2.482  0.00  0.00    +0.061 C 
ATOM     12  H   UNL     1       5.543   3.586   0.149  0.00  0.00    +0.155 HD
ENDROOT
BRANCH   7  13
ATOM     13  C   UNL     1       1.183   1.659   0.037  0.00  0.00    -0.018 A 
ATOM     14  C   UNL     1       0.029   0.902  -0.031  0.00  0.00    +0.007 A 
ATOM     15  C   UNL     1      -1.205   1.510   0.101  0.00  0.00    +0.020 A 
ATOM     16  C   UNL     1      -1.285   2.875   0.311  0.00  0.00    +0.041 A 
ATOM     17  C   UNL     1      -0.129   3.632   0.379  0.00  0.00    +0.020 A 
ATOM     18  C   UNL     1       1.105   3.024   0.242  0.00  0.00    +0.007 A 
ATOM     19 CL   UNL     1      -2.834   3.639   0.482  0.00  0.00    -0.084 Cl
ENDBRANCH   7  13
BRANCH   8  20
ATOM     20  C   UNL     1       2.981   0.530   2.310  0.00  0.00    +0.339 C 
ATOM     21  O   UNL     1       3.331  -0.625   2.466  0.00  0.00    -0.245 OA
BRANCH  20  22
ATOM     22  O   UNL     1       2.248   1.148   3.260  0.00  0.00    -0.465 OA
ATOM     23  C   UNL     1       1.920   0.386   4.424  0.00  0.00    +0.280 C 
ENDBRANCH  20  22
ENDBRANCH   8  20
TORSDOF 3
