REMARK  Name = ZINC45799810
REMARK  4 active torsions:
REMARK  status: ('A' for Active; 'I' for Inactive)
REMARK    1  A    between atoms: C_1  and  N_2
REMARK    2  A    between atoms: N_5  and  C_6
REMARK    3  A    between atoms: C_9  and  N_12
REMARK    4  A    between atoms: C_13  and  C_15
REMARK                            x       y       z     vdW  Elec       q    Type
REMARK                         _______ _______ _______ _____ _____    ______ ____
ROOT
ATOM      1  N   UNL     1       2.743  -5.057  -5.170  0.00  0.00    -0.282 N 
ATOM      2  C   UNL     1       2.560  -6.392  -5.189  0.00  0.00    +0.248 C 
ATOM      3  O   UNL     1       2.007  -6.944  -4.255  0.00  0.00    -0.270 OA
ATOM      4  H   UNL     1       3.242  -4.626  -5.881  0.00  0.00    +0.155 HD
ENDROOT
BRANCH   2   5
ATOM      5  C   UNL     1       3.026  -7.178  -6.331  0.00  0.00    +0.052 C 
ATOM      6  C   UNL     1       2.839  -8.521  -6.356  0.00  0.00    +0.023 C 
ATOM      7  C   UNL     1       3.345  -9.264  -7.520  0.00  0.00    +0.019 A 
ATOM      8  C   UNL     1       2.919 -10.563  -7.795  0.00  0.00    +0.031 A 
ATOM      9  C   UNL     1       3.421 -11.223  -8.899  0.00  0.00    +0.042 A 
ATOM     10  C   UNL     1       4.341 -10.601  -9.729  0.00  0.00    +0.023 A 
ATOM     11  C   UNL     1       4.770  -9.313  -9.464  0.00  0.00    +0.048 A 
ATOM     12  C   UNL     1       4.278  -8.636  -8.363  0.00  0.00    +0.128 A 
ATOM     13  O   UNL     1       4.679  -7.372  -8.076  0.00  0.00    -0.487 OA
ATOM     14  C   UNL     1       3.711  -6.498  -7.488  0.00  0.00    +0.269 C 
ATOM     15 CL   UNL     1       2.897 -12.841  -9.250  0.00  0.00    -0.084 Cl
ENDBRANCH   2   5
BRANCH   1  19
ATOM     16  C   UNL     1       1.164  -2.781  -2.054  0.00  0.00    +0.035 A 
ATOM     17  C   UNL     1       1.643  -4.061  -1.806  0.00  0.00    +0.025 A 
ATOM     18  C   UNL     1       2.165  -4.814  -2.837  0.00  0.00    +0.025 A 
ATOM     19  C   UNL     1       2.213  -4.293  -4.124  0.00  0.00    +0.034 A 
ATOM     20  C   UNL     1       1.734  -3.013  -4.372  0.00  0.00    +0.025 A 
ATOM     21  C   UNL     1       1.207  -2.261  -3.341  0.00  0.00    +0.025 A 
BRANCH  16  26
ATOM     22  C   UNL     1      -2.105   0.376  -0.461  0.00  0.00    +0.129 C 
ATOM     23  N   UNL     1      -0.975  -0.523  -0.212  0.00  0.00    -0.302 N 
ATOM     24  C   UNL     1      -0.405  -1.188  -1.236  0.00  0.00    +0.304 C 
ATOM     25  O   UNL     1      -0.828  -1.042  -2.366  0.00  0.00    -0.253 OA
ATOM     26  N   UNL     1       0.634  -2.016  -1.007  0.00  0.00    -0.269 N 
ATOM     27  H   UNL     1      -0.638  -0.639   0.690  0.00  0.00    +0.150 HD
ATOM     28  H   UNL     1       1.015  -2.081  -0.117  0.00  0.00    +0.156 HD
ENDBRANCH  16  26
ENDBRANCH   1  19
TORSDOF 3
