REMARK  Name = ZINC07674339
REMARK  6 active torsions:
REMARK  status: ('A' for Active; 'I' for Inactive)
REMARK    1  A    between atoms: C_1  and  C_2
REMARK    2  A    between atoms: C_5  and  C_7
REMARK    3  A    between atoms: C_16  and  C_18
REMARK    4  A    between atoms: C_18  and  N_52
REMARK    5  A    between atoms: C_19  and  N_52
REMARK    6  A    between atoms: C_20  and  N_52
REMARK                            x       y       z     vdW  Elec       q    Type
REMARK                         _______ _______ _______ _____ _____    ______ ____
ROOT
ATOM      1  C   UNL     1      -2.486   1.371   0.157  0.00  0.00    +0.010 A 
ATOM      2  C   UNL     1      -2.765   0.303  -0.632  0.00  0.00    +0.057 A 
ATOM      3  S   UNL     1      -4.444  -0.104  -0.196  0.00  0.00    -0.076 S 
ATOM      4  C   UNL     1      -4.734   1.160   1.015  0.00  0.00    +0.116 A 
ATOM      5  C   UNL     1      -3.521   1.867   1.057  0.00  0.00    +0.080 A 
ATOM      6  C   UNL     1      -3.475   2.966   1.971  0.00  0.00    +0.260 A 
ATOM      7  O   UNL     1      -2.465   3.640   2.078  0.00  0.00    -0.267 OA
ATOM      8  N   UNL     1      -4.565   3.245   2.711  0.00  0.00    -0.312 N 
ATOM      9  H   UNL     1      -4.538   4.012   3.352  0.00  0.00    +0.170 HD
ATOM     10  C   UNL     1      -5.698   2.506   2.604  0.00  0.00    +0.094 A 
ATOM     11  N   UNL     1      -5.771   1.496   1.779  0.00  0.00    -0.229 NA
ENDROOT
BRANCH   1  16
ATOM     12  C   UNL     1       2.052   4.698  -0.169  0.00  0.00    +0.051 C 
ATOM     13  C   UNL     1       1.014   3.612  -0.055  0.00  0.00    -0.013 A 
ATOM     14  C   UNL     1       1.190   2.276   0.095  0.00  0.00    +0.011 A 
ATOM     15  C   UNL     1       0.084   1.457   0.178  0.00  0.00    +0.016 A 
ATOM     16  C   UNL     1      -1.161   2.023   0.101  0.00  0.00    +0.021 A 
ATOM     17  S   UNL     1      -0.766   3.754  -0.084  0.00  0.00    -0.093 S 
ENDBRANCH   1  16
BRANCH  10  18
ATOM     18  C   UNL     1      -6.894   2.856   3.453  0.00  0.00    -0.003 C 
BRANCH  18  20
ATOM     19  C   UNL     1      -8.579   2.194   1.845  0.00  0.00    -0.095 C 
ATOM     20  N   UNL     1      -7.979   1.895   3.163  0.00  0.00    +0.387 N 
ATOM     21  H   UNL     1      -7.588   0.946   3.144  0.00  0.00    -0.081 HD
BRANCH  20  22
ATOM     22  C   UNL     1      -9.013   1.968   4.217  0.00  0.00    -0.037 C 
ATOM     23  C   UNL     1      -9.461   3.413   4.420  0.00  0.00    -0.010 C 
ATOM     24  C   UNL     1     -10.360   3.471   5.661  0.00  0.00    +0.003 C 
ATOM     25  C   UNL     1      -9.493   3.227   6.895  0.00  0.00    +0.035 C 
ATOM     26  C   UNL     1      -8.665   1.981   6.722  0.00  0.00    -0.046 A 
ATOM     27  C   UNL     1      -8.438   1.407   5.491  0.00  0.00    -0.058 A 
ATOM     28  C   UNL     1      -7.653   0.265   5.399  0.00  0.00    +0.002 A 
ATOM     29  C   UNL     1      -7.102  -0.300   6.531  0.00  0.00    +0.000 A 
ATOM     30  C   UNL     1      -7.334   0.273   7.767  0.00  0.00    +0.000 A 
ATOM     31  C   UNL     1      -8.112   1.409   7.860  0.00  0.00    +0.004 A 
ENDBRANCH  20  22
ENDBRANCH  18  20
ENDBRANCH  10  18
TORSDOF 4
