REMARK  Name = ZINC05274642
REMARK  6 active torsions:
REMARK  status: ('A' for Active; 'I' for Inactive)
REMARK    1  A    between atoms: C_1  and  C_2
REMARK    2  A    between atoms: C_8  and  C_12
REMARK    3  A    between atoms: C_12  and  C_13
REMARK    4  A    between atoms: C_13  and  N_14
REMARK    5  A    between atoms: C_18  and  C_19
REMARK    6  A    between atoms: N_23  and  C_24
REMARK                            x       y       z     vdW  Elec       q    Type
REMARK                         _______ _______ _______ _____ _____    ______ ____
ROOT
ATOM      1  N   UNL     1       3.159  -4.911   2.206  0.00  0.00    -0.246 N 
ATOM      2  C   UNL     1       4.457  -4.663   2.135  0.00  0.00    +0.259 C 
ATOM      3  O   UNL     1       4.956  -3.709   2.699  0.00  0.00    -0.269 OA
ATOM      4  C   UNL     1       5.274  -5.612   1.328  0.00  0.00    +0.084 C 
ATOM      5  C   UNL     1       6.610  -5.606   1.082  0.00  0.00    +0.116 C 
ATOM      6  S   UNL     1       4.022  -6.759   0.770  0.00  0.00    -0.049 S 
ATOM      7  C   UNL     1       2.614  -6.000   1.563  0.00  0.00    +0.168 C 
ATOM      8  N   UNL     1       1.360  -6.386   1.537  0.00  0.00    -0.225 NA
ENDROOT
BRANCH   8   9
ATOM      9  C   UNL     1       0.357  -5.457   1.584  0.00  0.00    +0.067 A 
ATOM     10  C   UNL     1      -0.634  -5.544   2.565  0.00  0.00    +0.028 A 
ATOM     11  C   UNL     1      -1.639  -4.601   2.610  0.00  0.00    +0.002 A 
ATOM     12  C   UNL     1      -1.673  -3.576   1.680  0.00  0.00    +0.000 A 
ATOM     13  C   UNL     1      -0.698  -3.487   0.702  0.00  0.00    +0.002 A 
ATOM     14  C   UNL     1       0.317  -4.421   0.649  0.00  0.00    +0.028 A 
ENDBRANCH   8   9
BRANCH   5  15
ATOM     15  C   UNL     1       7.392  -4.394   1.320  0.00  0.00    +0.381 C 
ATOM     16  O   UNL     1       6.865  -3.418   1.817  0.00  0.00    -0.241 OA
ATOM     17  O   UNL     1       8.700  -4.359   0.989  0.00  0.00    -0.241 OA
ENDBRANCH   5  15
BRANCH   1  18
ATOM     18  C   UNL     1       2.293  -4.020   2.982  0.00  0.00    +0.120 C 
BRANCH  18  19
ATOM     19  C   UNL     1       2.367  -4.399   4.463  0.00  0.00    +0.056 C 
BRANCH  19  27
ATOM     20  C   UNL     1      -2.854  -5.991   6.199  0.00  0.00    +0.044 C 
ATOM     21  C   UNL     1      -1.934  -4.801   6.282  0.00  0.00    -0.050 A 
ATOM     22  C   UNL     1      -2.344  -3.660   6.959  0.00  0.00    +0.005 A 
ATOM     23  C   UNL     1      -1.518  -2.561   7.047  0.00  0.00    +0.026 A 
ATOM     24  C   UNL     1      -0.261  -2.591   6.452  0.00  0.00    +0.047 A 
ATOM     25  C   UNL     1       0.149  -3.749   5.767  0.00  0.00    +0.003 A 
ATOM     26  C   UNL     1      -0.704  -4.852   5.690  0.00  0.00    +0.013 A 
ATOM     27  C   UNL     1       1.496  -3.467   5.264  0.00  0.00    -0.021 A 
ATOM     28  C   UNL     1       1.806  -2.220   5.653  0.00  0.00    +0.087 A 
ATOM     29  N   UNL     1       0.769  -1.681   6.364  0.00  0.00    -0.360 N 
ATOM     30  H   UNL     1       0.760  -0.791   6.749  0.00  0.00    +0.165 HD
ENDBRANCH  19  27
ENDBRANCH  18  19
ENDBRANCH   1  18
TORSDOF 5
