REMARK  Name = ZINC56624864
REMARK  11 active torsions:
REMARK  status: ('A' for Active; 'I' for Inactive)
REMARK    1  A    between atoms: C_1  and  N_2
REMARK    2  A    between atoms: N_2  and  C_3
REMARK    3  A    between atoms: N_2  and  C_4
REMARK    4  A    between atoms: C_4  and  C_6
REMARK    5  A    between atoms: C_4  and  C_23
REMARK    6  A    between atoms: C_6  and  N_7
REMARK    7  A    between atoms: N_10  and  C_11
REMARK    8  A    between atoms: C_14  and  N_17
REMARK    9  A    between atoms: N_17  and  C_18
REMARK   10  A    between atoms: C_19  and  O_21
REMARK   11  A    between atoms: O_21  and  C_22
REMARK                            x       y       z     vdW  Elec       q    Type
REMARK                         _______ _______ _______ _____ _____    ______ ____
ROOT
ATOM      1  N   UNL     1      -0.341  -2.291   0.380  0.00  0.00    -0.300 N 
ATOM      2  C   UNL     1      -0.074  -3.611   0.333  0.00  0.00    +0.304 C 
ATOM      3  O   UNL     1      -0.466  -4.277  -0.606  0.00  0.00    -0.253 OA
ATOM      4  N   UNL     1       0.627  -4.193   1.326  0.00  0.00    -0.269 N 
ATOM      5  H   UNL     1      -0.029  -1.760   1.129  0.00  0.00    +0.150 HD
ATOM      6  H   UNL     1       0.863  -3.683   2.116  0.00  0.00    +0.156 HD
ENDROOT
BRANCH   4   7
ATOM      7  C   UNL     1       1.014  -5.536   1.217  0.00  0.00    +0.035 A 
ATOM      8  C   UNL     1       1.060  -6.339   2.348  0.00  0.00    +0.025 A 
ATOM      9  C   UNL     1       1.441  -7.662   2.240  0.00  0.00    +0.025 A 
ATOM     10  C   UNL     1       1.780  -8.188   1.001  0.00  0.00    +0.039 A 
ATOM     11  C   UNL     1       1.734  -7.385  -0.131  0.00  0.00    +0.025 A 
ATOM     12  C   UNL     1       1.347  -6.064  -0.024  0.00  0.00    +0.025 A 
BRANCH  10  13
ATOM     13  N   UNL     1       2.167  -9.530   0.892  0.00  0.00    -0.240 N 
ATOM     14  C   UNL     1       1.448 -10.429  -0.014  0.00  0.00    +0.142 C 
ATOM     15  C   UNL     1       3.202  -9.994   1.620  0.00  0.00    +0.407 C 
ATOM     16  O   UNL     1       3.742  -9.274   2.436  0.00  0.00    -0.226 OA
BRANCH  15  17
ATOM     17  O   UNL     1       3.638 -11.256   1.443  0.00  0.00    -0.453 OA
ATOM     18  C   UNL     1       4.739 -11.681   2.249  0.00  0.00    +0.282 C 
ENDBRANCH  15  17
ENDBRANCH  10  13
ENDBRANCH   4   7
BRANCH   1  19
ATOM     19  C   UNL     1      -1.103  -1.659  -0.699  0.00  0.00    +0.095 C 
BRANCH  19  20
ATOM     20  C   UNL     1      -1.374  -0.196  -0.342  0.00  0.00    -0.020 C 
BRANCH  20  21
ATOM     21  C   UNL     1      -2.204  -0.130   0.914  0.00  0.00    -0.052 A 
ATOM     22  C   UNL     1      -1.610   0.136   2.134  0.00  0.00    +0.009 A 
ATOM     23  C   UNL     1      -2.384   0.188   3.245  0.00  0.00    +0.045 A 
ATOM     24  S   UNL     1      -4.007  -0.146   2.580  0.00  0.00    -0.105 S 
ATOM     25  C   UNL     1      -3.544  -0.326   0.865  0.00  0.00    +0.047 A 
ENDBRANCH  20  21
BRANCH  20  27
ATOM     26  C   UNL     1      -2.277   1.878  -1.144  0.00  0.00    -0.096 C 
ATOM     27  N   UNL     1      -2.102   0.450  -1.443  0.00  0.00    +0.382 N 
ATOM     28  C   UNL     1      -1.338   0.301  -2.689  0.00  0.00    -0.096 C 
ATOM     29  H   UNL     1      -3.006   0.015  -1.549  0.00  0.00    -0.082 HD
ENDBRANCH  20  27
ENDBRANCH  19  20
ENDBRANCH   1  19
TORSDOF 7
