REMARK  Name = ZINC35804064
REMARK  2 active torsions:
REMARK  status: ('A' for Active; 'I' for Inactive)
REMARK    1  A    between atoms: C_6  and  C_7
REMARK    2  A    between atoms: C_7  and  N_8
REMARK                            x       y       z     vdW  Elec       q    Type
REMARK                         _______ _______ _______ _____ _____    ______ ____
ROOT
ATOM      1  C   UNL     1      -1.294  -0.774   0.010  0.00  0.00    +0.138 C 
ENDROOT
BRANCH   1   7
ATOM      2  C   UNL     1      -0.017   1.378   0.010  0.00  0.00    +0.009 A 
ATOM      3  C   UNL     1       1.170   2.088   0.002  0.00  0.00    +0.050 A 
ATOM      4  C   UNL     1       2.380   1.416  -0.013  0.00  0.00    +0.166 A 
ATOM      5  C   UNL     1       2.399   0.023  -0.021  0.00  0.00    +0.167 A 
ATOM      6  C   UNL     1       1.207  -0.682  -0.014  0.00  0.00    +0.054 A 
ATOM      7  C   UNL     1       0.002  -0.004   0.002  0.00  0.00    -0.027 A 
ATOM      8  O   UNL     1       3.698  -0.395  -0.036  0.00  0.00    -0.453 OA
ATOM      9  C   UNL     1       4.466   0.750  -0.450  0.00  0.00    +0.466 C 
ATOM     10  O   UNL     1       3.668   1.870  -0.024  0.00  0.00    -0.453 OA
ENDBRANCH   1   7
BRANCH   1  11
ATOM     11  N   UNL     1      -1.727  -1.016  -1.368  0.00  0.00    -0.324 N 
ATOM     12  C   UNL     1      -2.904  -1.712  -1.615  0.00  0.00    +0.139 A 
ATOM     13  C   UNL     1      -3.676  -2.176  -0.552  0.00  0.00    +0.154 A 
ATOM     14  N   UNL     1      -4.794  -2.836  -0.790  0.00  0.00    -0.257 NA
ATOM     15  C   UNL     1      -5.181  -3.058  -2.035  0.00  0.00    +0.151 A 
ATOM     16  C   UNL     1      -4.417  -2.600  -3.093  0.00  0.00    +0.149 A 
ATOM     17  N   UNL     1      -3.298  -1.932  -2.862  0.00  0.00    -0.218 NA
ATOM     18 CL   UNL     1      -4.930  -2.895  -4.725  0.00  0.00    -0.060 Cl
ATOM     19  H   UNL     1      -1.192  -0.690  -2.109  0.00  0.00    +0.148 HD
ENDBRANCH   1  11
TORSDOF 2
