REMARK  Name = ZINC17087644
REMARK  6 active torsions:
REMARK  status: ('A' for Active; 'I' for Inactive)
REMARK    1  A    between atoms: C_4  and  N_11
REMARK    2  A    between atoms: C_5  and  C_7
REMARK    3  A    between atoms: N_14  and  N_15
REMARK    4  A    between atoms: C_16  and  C_18
REMARK    5  A    between atoms: C_21  and  O_24
REMARK    6  A    between atoms: O_24  and  C_25
REMARK                            x       y       z     vdW  Elec       q    Type
REMARK                         _______ _______ _______ _____ _____    ______ ____
ROOT
ATOM      1  N   UNL     1       3.607   3.333  -0.082  0.00  0.00    -0.268 N 
ATOM      2  C   UNL     1       3.760   1.996  -0.152  0.00  0.00    +0.320 C 
ATOM      3  O   UNL     1       4.875   1.514  -0.205  0.00  0.00    -0.251 OA
ATOM      4  N   UNL     1       2.678   1.193  -0.162  0.00  0.00    -0.218 N 
ATOM      5  H   UNL     1       2.718   3.721  -0.104  0.00  0.00    +0.156 HD
ATOM      6  H   UNL     1       2.789   0.230  -0.212  0.00  0.00    +0.174 HD
ENDROOT
BRANCH   1  10
ATOM      7  C   UNL     1       6.949   5.801   0.229  0.00  0.00    +0.001 A 
ATOM      8  C   UNL     1       7.015   4.642  -0.523  0.00  0.00    +0.002 A 
ATOM      9  C   UNL     1       5.910   3.819  -0.624  0.00  0.00    +0.024 A 
ATOM     10  C   UNL     1       4.729   4.162   0.022  0.00  0.00    +0.046 A 
ATOM     11  C   UNL     1       4.667   5.326   0.776  0.00  0.00    +0.076 A 
ATOM     12  C   UNL     1       5.777   6.142   0.877  0.00  0.00    +0.014 A 
BRANCH  11  13
ATOM     13  C   UNL     1       3.390   5.698   1.485  0.00  0.00    +0.419 C 
ATOM     14  F   UNL     1       3.573   6.902   2.173  0.00  0.00    -0.166 F 
ATOM     15  F   UNL     1       2.363   5.849   0.547  0.00  0.00    -0.166 F 
ATOM     16  F   UNL     1       3.049   4.689   2.392  0.00  0.00    -0.166 F 
ENDBRANCH  11  13
ENDBRANCH   1  10
BRANCH   4  17
ATOM     17  N   UNL     1       1.393   1.748  -0.100  0.00  0.00    -0.229 N 
ATOM     18  C   UNL     1       0.311   0.945  -0.110  0.00  0.00    +0.260 C 
ATOM     19  O   UNL     1       0.450  -0.262  -0.173  0.00  0.00    -0.269 OA
ATOM     20  H   UNL     1       1.283   2.710  -0.050  0.00  0.00    +0.173 HD
BRANCH  18  21
ATOM     21  C   UNL     1      -1.043   1.530  -0.052  0.00  0.00    +0.038 A 
ATOM     22  C   UNL     1      -1.204   2.916   0.026  0.00  0.00    +0.016 A 
ATOM     23  C   UNL     1      -2.469   3.458   0.074  0.00  0.00    +0.046 A 
ATOM     24  C   UNL     1      -3.584   2.628   0.058  0.00  0.00    +0.121 A 
ATOM     25  C   UNL     1      -3.428   1.249  -0.013  0.00  0.00    +0.046 A 
ATOM     26  C   UNL     1      -2.166   0.699  -0.068  0.00  0.00    +0.016 A 
BRANCH  24  27
ATOM     27  O   UNL     1      -4.829   3.166   0.111  0.00  0.00    -0.489 OA
BRANCH  27  28
ATOM     28  C   UNL     1      -5.925   2.256   0.226  0.00  0.00    +0.173 C 
ATOM     29  C   UNL     1      -6.517   1.964  -1.168  0.00  0.00    +0.044 C 
ATOM     30  C   UNL     1      -8.043   1.862  -0.917  0.00  0.00    +0.004 C 
ATOM     31  C   UNL     1      -8.290   2.963   0.143  0.00  0.00    +0.004 C 
ATOM     32  C   UNL     1      -7.052   2.891   1.060  0.00  0.00    +0.044 C 
ENDBRANCH  27  28
ENDBRANCH  24  27
ENDBRANCH  18  21
ENDBRANCH   4  17
TORSDOF 6
