REMARK  Name = ZINC28198844
REMARK  7 active torsions:
REMARK  status: ('A' for Active; 'I' for Inactive)
REMARK    1  A    between atoms: C_1  and  C_2
REMARK    2  A    between atoms: N_4  and  C_5
REMARK    3  A    between atoms: C_7  and  C_15
REMARK    4  A    between atoms: C_9  and  N_11
REMARK    5  A    between atoms: C_12  and  C_14
REMARK    6  A    between atoms: N_17  and  N_18
REMARK    7  A    between atoms: C_19  and  C_21
REMARK                            x       y       z     vdW  Elec       q    Type
REMARK                         _______ _______ _______ _____ _____    ______ ____
ROOT
ATOM      1  C   UNL     1      -0.186   5.269  -0.441  0.00  0.00    +0.260 C 
ATOM      2  O   UNL     1       0.844   5.892  -0.605  0.00  0.00    -0.269 OA
ATOM      3  N   UNL     1      -1.370   5.913  -0.440  0.00  0.00    -0.230 N 
ATOM      4  H   UNL     1      -2.303   5.348  -0.291  0.00  0.00    +0.173 HD
ENDROOT
BRANCH   1   7
ATOM      5  C   UNL     1      -1.277   1.713   0.124  0.00  0.00    +0.036 A 
ATOM      6  C   UNL     1      -1.323   3.087  -0.055  0.00  0.00    +0.036 A 
ATOM      7  C   UNL     1      -0.141   3.804  -0.243  0.00  0.00    +0.042 A 
ATOM      8  C   UNL     1       1.084   3.136  -0.245  0.00  0.00    +0.036 A 
ATOM      9  C   UNL     1       1.123   1.762  -0.059  0.00  0.00    +0.036 A 
ATOM     10  C   UNL     1      -0.056   1.052   0.127  0.00  0.00    +0.046 A 
BRANCH   5  14
ATOM     11  C   UNL     1      -4.830   0.522  -0.233  0.00  0.00    +0.109 C 
ATOM     12  C   UNL     1      -3.582   1.358  -0.348  0.00  0.00    +0.214 C 
ATOM     13  O   UNL     1      -3.584   2.361  -1.030  0.00  0.00    -0.276 OA
ATOM     14  N   UNL     1      -2.462   0.992   0.306  0.00  0.00    -0.286 N 
ATOM     15  H   UNL     1      -2.480   0.126   0.985  0.00  0.00    +0.155 HD
ENDBRANCH   5  14
BRANCH   9  16
ATOM     16  N   UNL     1       2.351   1.091  -0.061  0.00  0.00    -0.286 N 
ATOM     17  C   UNL     1       3.451   1.699   0.425  0.00  0.00    +0.214 C 
ATOM     18  O   UNL     1       3.361   2.790   0.947  0.00  0.00    -0.276 OA
ATOM     19  C   UNL     1       4.794   1.023   0.319  0.00  0.00    +0.109 C 
ATOM     20  H   UNL     1       2.418   0.068  -0.458  0.00  0.00    +0.155 HD
ENDBRANCH   9  16
ENDBRANCH   1   7
BRANCH   3  21
ATOM     21  N   UNL     1      -1.413   7.300  -0.627  0.00  0.00    -0.234 N 
ATOM     22  C   UNL     1      -2.598   7.944  -0.625  0.00  0.00    +0.235 C 
ATOM     23  O   UNL     1      -3.626   7.322  -0.462  0.00  0.00    -0.274 OA
ATOM     24  H   UNL     1      -0.481   7.865  -0.775  0.00  0.00    +0.173 HD
BRANCH  22  25
ATOM     25  C   UNL     1      -2.644   9.437  -0.827  0.00  0.00    +0.049 C 
ATOM     26  C   UNL     1      -1.847  10.126   0.282  0.00  0.00    +0.019 C 
ATOM     27  C   UNL     1      -1.894  11.642   0.078  0.00  0.00    -0.009 C 
ATOM     28  C   UNL     1      -3.347  12.118   0.123  0.00  0.00    +0.007 C 
ATOM     29  C   UNL     1      -4.144  11.428  -0.986  0.00  0.00    -0.009 C 
ATOM     30  C   UNL     1      -4.097   9.913  -0.781  0.00  0.00    +0.019 C 
ATOM     31  C   UNL     1      -3.535  11.779  -2.345  0.00  0.00    +0.007 C 
ATOM     32  C   UNL     1      -2.082  11.303  -2.390  0.00  0.00    -0.009 C 
ATOM     33  C   UNL     1      -1.284  11.992  -1.281  0.00  0.00    +0.007 C 
ATOM     34  C   UNL     1      -2.035   9.787  -2.186  0.00  0.00    +0.019 C 
ENDBRANCH  22  25
ENDBRANCH   3  21
TORSDOF 5
