REMARK  Name = ZINC11694894
REMARK  8 active torsions:
REMARK  status: ('A' for Active; 'I' for Inactive)
REMARK    1  A    between atoms: C_1  and  C_2
REMARK    2  A    between atoms: C_5  and  N_9
REMARK    3  A    between atoms: C_6  and  C_8
REMARK    4  A    between atoms: C_10  and  C_12
REMARK    5  A    between atoms: C_14  and  C_32
REMARK    6  A    between atoms: C_22  and  C_24
REMARK    7  A    between atoms: C_27  and  S_30
REMARK    8  A    between atoms: S_30  and  C_31
REMARK                            x       y       z     vdW  Elec       q    Type
REMARK                         _______ _______ _______ _____ _____    ______ ____
ROOT
ATOM      1  C   UNL     1       2.455   0.811   0.110  0.00  0.00    +0.124 C 
ATOM      2  C   UNL     1       2.552  -0.155  -1.076  0.00  0.00    +0.084 C 
ATOM      3  N   UNL     1       3.777  -0.964  -0.926  0.00  0.00    -0.310 N 
ATOM      4  C   UNL     1       4.921  -0.277  -0.540  0.00  0.00    +0.214 A 
ATOM      5  N   UNL     1       6.168  -0.664  -0.549  0.00  0.00    -0.202 NA
ATOM      6  C   UNL     1       6.946   0.325  -0.095  0.00  0.00    +0.247 A 
ATOM      7  N   UNL     1       6.197   1.355   0.210  0.00  0.00    -0.156 NA
ATOM      8  N   UNL     1       4.879   0.992  -0.068  0.00  0.00    -0.225 N 
ATOM      9  C   UNL     1       3.652   1.771   0.093  0.00  0.00    +0.154 C 
ATOM     10  C   UNL     1       2.616   0.639  -2.382  0.00  0.00    +0.028 C 
ATOM     11  H   UNL     1       3.784  -1.920  -1.088  0.00  0.00    +0.149 HD
ENDROOT
BRANCH   9  12
ATOM     12  C   UNL     1       3.703   2.537   1.390  0.00  0.00    -0.022 A 
ATOM     13  C   UNL     1       3.832   1.857   2.588  0.00  0.00    +0.007 A 
ATOM     14  C   UNL     1       3.884   2.555   3.778  0.00  0.00    +0.015 A 
ATOM     15  C   UNL     1       3.797   3.942   3.772  0.00  0.00    +0.008 A 
ATOM     16  C   UNL     1       3.663   4.622   2.567  0.00  0.00    +0.015 A 
ATOM     17  C   UNL     1       3.616   3.917   1.380  0.00  0.00    +0.007 A 
BRANCH  15  18
ATOM     18  S   UNL     1       3.856   4.838   5.288  0.00  0.00    -0.129 S 
ATOM     19  C   UNL     1       4.033   3.549   6.552  0.00  0.00    +0.090 C 
ENDBRANCH  15  18
ENDBRANCH   9  12
BRANCH   1  21
ATOM     20  N   UNL     1      -0.011   0.966   0.007  0.00  0.00    -0.285 N 
ATOM     21  C   UNL     1       1.177   1.602   0.009  0.00  0.00    +0.224 C 
ATOM     22  O   UNL     1       1.217   2.812  -0.070  0.00  0.00    -0.275 OA
ATOM     23  H   UNL     1      -0.042  -0.004  -0.012  0.00  0.00    +0.155 HD
BRANCH  20  28
ATOM     24  C   UNL     1      -4.832   3.956   0.090  0.00  0.00    +0.044 C 
ATOM     25  C   UNL     1      -3.551   3.162   0.068  0.00  0.00    -0.050 A 
ATOM     26  C   UNL     1      -2.386   3.716   0.566  0.00  0.00    +0.005 A 
ATOM     27  C   UNL     1      -1.212   2.989   0.553  0.00  0.00    +0.024 A 
ATOM     28  C   UNL     1      -1.200   1.703   0.028  0.00  0.00    +0.036 A 
ATOM     29  C   UNL     1      -2.371   1.149  -0.472  0.00  0.00    -0.029 A 
ATOM     30  C   UNL     1      -3.543   1.880  -0.450  0.00  0.00    +0.008 A 
ATOM     31  C   UNL     1      -2.364  -0.248  -1.036  0.00  0.00    +0.045 C 
ENDBRANCH  20  28
ENDBRANCH   1  21
TORSDOF 4
