REMARK  Name = ZINC06389862
REMARK  6 active torsions:
REMARK  status: ('A' for Active; 'I' for Inactive)
REMARK    1  A    between atoms: C_1  and  C_2
REMARK    2  A    between atoms: C_6  and  C_22
REMARK    3  A    between atoms: N_8  and  C_9
REMARK    4  A    between atoms: C_12  and  C_15
REMARK    5  A    between atoms: C_25  and  C_28
REMARK    6  A    between atoms: C_28  and  O_29
REMARK                            x       y       z     vdW  Elec       q    Type
REMARK                         _______ _______ _______ _____ _____    ______ ____
ROOT
ATOM      1  C   UNL     1       0.565   7.262   0.077  0.00  0.00    +0.069 C 
ATOM      2  C   UNL     1       0.793   5.773   0.063  0.00  0.00    +0.081 A 
ATOM      3  C   UNL     1       2.088   5.274   0.034  0.00  0.00    +0.159 A 
ATOM      4  C   UNL     1       2.276   3.878   0.029  0.00  0.00    +0.027 A 
ATOM      5  C   UNL     1       3.634   3.331   0.013  0.00  0.00    +0.030 A 
ATOM      6  C   UNL     1       4.669   4.202   0.274  0.00  0.00    +0.097 A 
ATOM      7  C   UNL     1       4.316   5.609   0.550  0.00  0.00    +0.212 A 
ATOM      8  N   UNL     1       5.098   6.370   1.285  0.00  0.00    -0.325 N 
ATOM      9  O   UNL     1       3.163   6.096   0.013  0.00  0.00    -0.437 OA
ATOM     10  C   UNL     1       1.147   3.050   0.039  0.00  0.00    +0.007 A 
ATOM     11  C   UNL     1      -0.100   3.638   0.067  0.00  0.00    +0.117 A 
ATOM     12  N   UNL     1      -0.237   4.952   0.078  0.00  0.00    -0.256 NA
ATOM     13  H   UNL     1       5.982   5.938   1.775  0.00  0.00    +0.169 HD
ENDROOT
BRANCH   8  14
ATOM     14  C   UNL     1       4.810   7.696   1.440  0.00  0.00    +0.042 A 
ATOM     15  C   UNL     1       5.254   8.623   0.492  0.00  0.00    +0.026 A 
ATOM     16  C   UNL     1       4.959   9.959   0.646  0.00  0.00    +0.010 A 
ATOM     17  C   UNL     1       4.228  10.389   1.754  0.00  0.00    -0.018 A 
ATOM     18  C   UNL     1       3.788   9.466   2.703  0.00  0.00    +0.010 A 
ATOM     19  C   UNL     1       4.077   8.129   2.549  0.00  0.00    +0.026 A 
BRANCH  17  20
ATOM     20  C   UNL     1       3.916  11.829   1.921  0.00  0.00    -0.018 A 
ATOM     21  C   UNL     1       3.180  12.261   3.024  0.00  0.00    +0.008 A 
ATOM     22  C   UNL     1       2.898  13.604   3.177  0.00  0.00    +0.001 A 
ATOM     23  C   UNL     1       3.335  14.517   2.235  0.00  0.00    +0.000 A 
ATOM     24  C   UNL     1       4.061  14.093   1.137  0.00  0.00    +0.001 A 
ATOM     25  C   UNL     1       4.353  12.754   0.975  0.00  0.00    +0.008 A 
ENDBRANCH  17  20
ENDBRANCH   8  14
BRANCH   6  26
ATOM     26  C   UNL     1       6.072   3.748   0.277  0.00  0.00    +0.247 C 
ATOM     27  O   UNL     1       6.335   2.583   0.046  0.00  0.00    -0.270 OA
ATOM     28  N   UNL     1       7.063   4.624   0.536  0.00  0.00    -0.325 N 
ATOM     29  H   UNL     1       8.110   4.285   0.539  0.00  0.00    +0.145 HD
ATOM     30  H   UNL     1       6.826   5.677   0.745  0.00  0.00    +0.145 HD
ENDBRANCH   6  26
BRANCH  10  31
ATOM     31  C   UNL     1       1.292   1.550   0.025  0.00  0.00    +0.193 C 
BRANCH  31  32
ATOM     32  O   UNL     1      -0.003   0.946   0.046  0.00  0.00    -0.390 OA
ATOM     33  H   UNL     1      -0.099  -0.150   0.040  0.00  0.00    +0.210 HD
ENDBRANCH  31  32
ENDBRANCH  10  31
TORSDOF 5
