REMARK  Name = ZINC40732407
REMARK  7 active torsions:
REMARK  status: ('A' for Active; 'I' for Inactive)
REMARK    1  A    between atoms: C_1  and  C_2
REMARK    2  A    between atoms: C_2  and  C_3
REMARK    3  A    between atoms: C_4  and  C_20
REMARK    4  A    between atoms: N_6  and  C_9
REMARK    5  A    between atoms: C_7  and  C_8
REMARK    6  A    between atoms: C_9  and  C_10
REMARK    7  A    between atoms: C_12  and  N_17
REMARK                            x       y       z     vdW  Elec       q    Type
REMARK                         _______ _______ _______ _____ _____    ______ ____
ROOT
ATOM      1  C   UNL     1      -4.489  -1.655  -1.489  0.00  0.00    +0.180 C 
ENDROOT
BRANCH   1   5
ATOM      2  C   UNL     1      -1.412  -0.526   0.013  0.00  0.00    -0.004 A 
ATOM      3  C   UNL     1      -2.175  -0.811   1.149  0.00  0.00    +0.063 A 
ATOM      4  N   UNL     1      -3.347  -1.241   0.758  0.00  0.00    -0.176 NA
ATOM      5  N   UNL     1      -3.366  -1.244  -0.643  0.00  0.00    -0.264 N 
ATOM      6  C   UNL     1      -2.169  -0.795  -1.076  0.00  0.00    +0.040 A 
ATOM      7  C   UNL     1      -1.750  -0.628  -2.514  0.00  0.00    +0.065 C 
ATOM      8  C   UNL     1      -1.726  -0.650   2.579  0.00  0.00    +0.068 C 
BRANCH   2  10
ATOM      9  C   UNL     1      -0.019   1.526   0.010  0.00  0.00    +0.009 C 
ATOM     10  C   UNL     1       0.002  -0.004   0.002  0.00  0.00    +0.035 C 
ENDBRANCH   2  10
ENDBRANCH   1   5
BRANCH   1  11
ATOM     11  C   UNL     1      -5.366  -0.463  -1.775  0.00  0.00    -0.006 A 
ATOM     12  C   UNL     1      -5.260   0.199  -2.984  0.00  0.00    +0.039 A 
ATOM     13  C   UNL     1      -6.063   1.292  -3.247  0.00  0.00    +0.127 A 
ATOM     14  C   UNL     1      -6.973   1.726  -2.300  0.00  0.00    +0.034 A 
ATOM     15  C   UNL     1      -7.079   1.065  -1.090  0.00  0.00    +0.022 A 
ATOM     16  C   UNL     1      -6.280  -0.033  -0.830  0.00  0.00    +0.046 A 
ATOM     17 CL   UNL     1      -6.418  -0.868   0.686  0.00  0.00    -0.083 Cl
BRANCH  13  18
ATOM     18  N   UNL     1      -5.949   2.000  -4.541  0.00  0.00    +0.056 N 
ATOM     19  O   UNL     1      -5.154   1.621  -5.369  0.00  0.00    -0.126 OA
ATOM     20  O   UNL     1      -6.652   2.957  -4.771  0.00  0.00    -0.126 OA
ENDBRANCH  13  18
ENDBRANCH   1  11
TORSDOF 4
