REMARK  Name = ZINC63044315
REMARK  4 active torsions:
REMARK  status: ('A' for Active; 'I' for Inactive)
REMARK    1  A    between atoms: C_1  and  C_2
REMARK    2  A    between atoms: C_2  and  C_4
REMARK    3  A    between atoms: C_4  and  C_5
REMARK    4  A    between atoms: C_8  and  N_12
REMARK                            x       y       z     vdW  Elec       q    Type
REMARK                         _______ _______ _______ _____ _____    ______ ____
ROOT
ATOM      1  C   UNL     1       0.657  -2.014   1.298  0.00  0.00    -0.028 A 
ATOM      2  C   UNL     1      -0.337  -2.623   2.041  0.00  0.00    +0.007 A 
ATOM      3  C   UNL     1      -0.415  -4.002   2.093  0.00  0.00    +0.033 A 
ATOM      4  C   UNL     1       0.500  -4.774   1.402  0.00  0.00    +0.128 A 
ATOM      5  C   UNL     1       1.494  -4.166   0.658  0.00  0.00    +0.053 A 
ATOM      6  C   UNL     1       1.569  -2.786   0.601  0.00  0.00    +0.046 A 
ATOM      7 CL   UNL     1       2.813  -2.022  -0.340  0.00  0.00    -0.083 Cl
ENDROOT
BRANCH   4   8
ATOM      8  N   UNL     1       0.417  -6.250   1.459  0.00  0.00    +0.056 N 
ATOM      9  O   UNL     1      -0.452  -6.782   2.110  0.00  0.00    -0.126 OA
ATOM     10  O   UNL     1       1.217  -6.925   0.854  0.00  0.00    -0.126 OA
ENDBRANCH   4   8
BRANCH   1  11
ATOM     11  C   UNL     1       0.742  -0.511   1.242  0.00  0.00    +0.051 C 
BRANCH  11  13
ATOM     12  C   UNL     1      -0.019   1.526   0.010  0.00  0.00    +0.020 C 
ATOM     13  C   UNL     1       0.002  -0.004   0.002  0.00  0.00    +0.058 C 
ATOM     14 BR   UNL     1       0.922  -0.638  -1.615  0.00  0.00    -0.088 Br
ENDBRANCH  11  13
ENDBRANCH   1  11
TORSDOF 3
