REMARK  Name = ZINC66699175
REMARK  7 active torsions:
REMARK  status: ('A' for Active; 'I' for Inactive)
REMARK    1  A    between atoms: C_3  and  C_6
REMARK    2  A    between atoms: C_8  and  C_12
REMARK    3  A    between atoms: C_12  and  N_13
REMARK    4  A    between atoms: N_16  and  C_17
REMARK    5  A    between atoms: C_17  and  C_18
REMARK    6  A    between atoms: C_22  and  O_24
REMARK    7  A    between atoms: O_24  and  C_25
REMARK                            x       y       z     vdW  Elec       q    Type
REMARK                         _______ _______ _______ _____ _____    ______ ____
ROOT
ATOM      1  N   UNL     1       7.773   1.057   1.298  0.00  0.00    -0.292 N 
ATOM      2  C   UNL     1       9.024   0.611   1.526  0.00  0.00    +0.300 C 
ATOM      3  O   UNL     1       9.788   0.443   0.595  0.00  0.00    -0.253 OA
ATOM      4  N   UNL     1       9.429   0.350   2.785  0.00  0.00    -0.295 N 
ATOM      5  H   UNL     1       7.164   1.191   2.041  0.00  0.00    +0.151 HD
ATOM      6  H   UNL     1       8.819   0.484   3.527  0.00  0.00    +0.151 HD
ENDROOT
BRANCH   1   7
ATOM      7  C   UNL     1       7.333   1.339  -0.070  0.00  0.00    +0.181 C 
BRANCH   7  10
ATOM      8  C   UNL     1       3.740   1.825  -0.024  0.00  0.00    +0.188 A 
ATOM      9  N   UNL     1       4.842   1.062  -0.044  0.00  0.00    -0.209 NA
ATOM     10  C   UNL     1       5.906   1.821  -0.050  0.00  0.00    +0.143 A 
ATOM     11  N   UNL     1       5.508   3.106  -0.033  0.00  0.00    -0.261 N 
ATOM     12  H   UNL     1       6.080   3.890  -0.033  0.00  0.00    +0.190 HD
ATOM     13  N   UNL     1       4.104   3.091  -0.022  0.00  0.00    -0.152 NA
BRANCH   8  16
ATOM     14  C   UNL     1      -0.016   1.353   0.009  0.00  0.00    +0.008 A 
ATOM     15  C   UNL     1       1.178   2.041   0.002  0.00  0.00    +0.019 A 
ATOM     16  C   UNL     1       2.347   1.329  -0.013  0.00  0.00    +0.058 A 
ATOM     17  S   UNL     1       1.752  -0.354  -0.017  0.00  0.00    -0.093 S 
ATOM     18  C   UNL     1       0.002  -0.004   0.002  0.00  0.00    +0.046 A 
ENDBRANCH   8  16
ENDBRANCH   7  10
ENDBRANCH   1   7
BRANCH   4  19
ATOM     19  C   UNL     1      10.789  -0.135   3.032  0.00  0.00    +0.141 C 
BRANCH  19  20
ATOM     20  C   UNL     1      10.986  -0.346   4.511  0.00  0.00    -0.024 A 
ATOM     21  C   UNL     1      11.455   0.681   5.318  0.00  0.00    +0.025 A 
ATOM     22  C   UNL     1      11.624   0.455   6.670  0.00  0.00    +0.115 A 
ATOM     23  N   UNL     1      11.346  -0.722   7.198  0.00  0.00    -0.221 NA
ATOM     24  C   UNL     1      10.898  -1.725   6.461  0.00  0.00    +0.215 A 
ATOM     25  C   UNL     1      10.699  -1.567   5.096  0.00  0.00    +0.072 A 
BRANCH  24  26
ATOM     26  O   UNL     1      10.625  -2.919   7.046  0.00  0.00    -0.473 OA
BRANCH  26  27
ATOM     27  C   UNL     1      10.846  -3.017   8.454  0.00  0.00    +0.175 C 
ATOM     28  C   UNL     1       9.531  -2.751   9.229  0.00  0.00    +0.044 C 
ATOM     29  C   UNL     1       9.778  -3.467  10.579  0.00  0.00    +0.004 C 
ATOM     30  C   UNL     1      10.549  -4.747  10.193  0.00  0.00    +0.004 C 
ATOM     31  C   UNL     1      11.227  -4.460   8.842  0.00  0.00    +0.044 C 
ENDBRANCH  26  27
ENDBRANCH  24  26
ENDBRANCH  19  20
ENDBRANCH   4  19
TORSDOF 7
