REMARK  Name = ZINC35683275
REMARK  6 active torsions:
REMARK  status: ('A' for Active; 'I' for Inactive)
REMARK    1  A    between atoms: C_1  and  C_2
REMARK    2  A    between atoms: C_11  and  C_13
REMARK    3  A    between atoms: C_16  and  C_19
REMARK    4  A    between atoms: C_19  and  C_20
REMARK    5  A    between atoms: C_19  and  C_21
REMARK    6  A    between atoms: C_19  and  C_22
REMARK                            x       y       z     vdW  Elec       q    Type
REMARK                         _______ _______ _______ _____ _____    ______ ____
ROOT
ATOM      1  C   UNL     1      -0.018   1.503   0.010  0.00  0.00    +0.073 C 
ATOM      2  C   UNL     1       0.002  -0.004   0.002  0.00  0.00    +0.127 A 
ATOM      3  C   UNL     1      -1.208  -0.726   0.004  0.00  0.00    +0.296 A 
ATOM      4  O   UNL     1      -2.282  -0.148   0.010  0.00  0.00    -0.264 OA
ATOM      5  N   UNL     1      -1.147  -2.079  -0.002  0.00  0.00    -0.169 N 
ATOM      6  C   UNL     1       0.095  -2.659  -0.016  0.00  0.00    +0.214 A 
ATOM      7  N   UNL     1       1.191  -1.933  -0.016  0.00  0.00    -0.122 NA
ATOM      8  N   UNL     1       1.147  -0.646  -0.012  0.00  0.00    -0.146 NA
ATOM      9  S   UNL     1       0.166  -4.428  -0.037  0.00  0.00    -0.078 S 
ATOM     10  C   UNL     1      -1.291  -4.838   0.987  0.00  0.00    +0.135 C 
ATOM     11  C   UNL     1      -2.452  -4.045   0.424  0.00  0.00    +0.079 C 
ATOM     12  N   UNL     1      -2.312  -2.836   0.008  0.00  0.00    -0.165 NA
ENDROOT
BRANCH  11  13
ATOM     13  C   UNL     1      -3.782  -4.677   0.351  0.00  0.00    -0.001 A 
ATOM     14  C   UNL     1      -3.962  -5.987   0.802  0.00  0.00    +0.010 A 
ATOM     15  C   UNL     1      -5.209  -6.572   0.731  0.00  0.00    +0.005 A 
ATOM     16  C   UNL     1      -6.280  -5.865   0.214  0.00  0.00    -0.042 A 
ATOM     17  C   UNL     1      -6.109  -4.567  -0.235  0.00  0.00    +0.005 A 
ATOM     18  C   UNL     1      -4.869  -3.967  -0.164  0.00  0.00    +0.010 A 
BRANCH  16  19
ATOM     19  C   UNL     1      -7.639  -6.512   0.139  0.00  0.00    -0.013 C 
ATOM     20  C   UNL     1      -8.096  -6.904   1.545  0.00  0.00    +0.015 C 
ATOM     21  C   UNL     1      -8.640  -5.526  -0.467  0.00  0.00    +0.015 C 
ATOM     22  C   UNL     1      -7.561  -7.763  -0.739  0.00  0.00    +0.015 C 
ENDBRANCH  16  19
ENDBRANCH  11  13
TORSDOF 2
