REMARK  Name = ZINC67410728
REMARK  6 active torsions:
REMARK  status: ('A' for Active; 'I' for Inactive)
REMARK    1  A    between atoms: C_1  and  C_2
REMARK    2  A    between atoms: C_3  and  C_8
REMARK    3  A    between atoms: C_4  and  C_7
REMARK    4  A    between atoms: C_8  and  N_9
REMARK    5  A    between atoms: N_12  and  C_15
REMARK    6  A    between atoms: C_18  and  C_23
REMARK                            x       y       z     vdW  Elec       q    Type
REMARK                         _______ _______ _______ _____ _____    ______ ____
ROOT
ATOM      1  N   UNL     1       1.375  -0.174  -3.042  0.00  0.00    -0.296 NA
ATOM      2  C   UNL     1       2.074  -1.465  -3.113  0.00  0.00    +0.100 C 
ATOM      3  C   UNL     1       3.528  -1.233  -3.530  0.00  0.00    +0.100 C 
ATOM      4  N   UNL     1       3.558  -0.548  -4.830  0.00  0.00    -0.287 NA
ATOM      5  C   UNL     1       2.860   0.743  -4.759  0.00  0.00    +0.100 C 
ATOM      6  C   UNL     1       1.406   0.510  -4.342  0.00  0.00    +0.100 C 
ENDROOT
BRANCH   4   7
ATOM      7  C   UNL     1       4.939  -0.374  -5.301  0.00  0.00    +0.170 C 
ATOM      8  C   UNL     1       4.956   0.304  -6.695  0.00  0.00    +0.074 C 
ATOM      9  C   UNL     1       6.055  -0.529  -7.408  0.00  0.00    +0.175 C 
ATOM     10  O   UNL     1       5.861  -1.849  -6.856  0.00  0.00    -0.460 OA
ATOM     11  C   UNL     1       5.594  -1.722  -5.539  0.00  0.00    +0.325 C 
ATOM     12  O   UNL     1       5.835  -2.545  -4.687  0.00  0.00    -0.249 OA
ATOM     13  C   UNL     1       5.836  -0.533  -8.922  0.00  0.00    +0.052 C 
ENDBRANCH   4   7
BRANCH   1  14
ATOM     14  C   UNL     1      -0.005  -0.348  -2.571  0.00  0.00    +0.125 C 
BRANCH  14  17
ATOM     15  C   UNL     1      -0.018   1.503   0.010  0.00  0.00    +0.069 C 
ATOM     16  C   UNL     1       0.002  -0.004   0.002  0.00  0.00    +0.085 A 
ATOM     17  C   UNL     1       0.008  -0.824  -1.141  0.00  0.00    +0.031 A 
ATOM     18  C   UNL     1       0.027  -2.108  -0.735  0.00  0.00    +0.139 A 
ATOM     19  O   UNL     1       0.034  -2.119   0.606  0.00  0.00    -0.359 OA
ATOM     20  N   UNL     1       0.023  -0.775   1.052  0.00  0.00    -0.083 NA
ATOM     21  C   UNL     1       0.039  -3.320  -1.631  0.00  0.00    +0.089 C 
ENDBRANCH  14  17
ENDBRANCH   1  14
TORSDOF 3
