REMARK  Name = ZINC63393468
REMARK  6 active torsions:
REMARK  status: ('A' for Active; 'I' for Inactive)
REMARK    1  A    between atoms: C_5  and  S_14
REMARK    2  A    between atoms: C_10  and  N_11
REMARK    3  A    between atoms: S_14  and  C_15
REMARK    4  A    between atoms: C_15  and  C_16
REMARK    5  A    between atoms: N_18  and  C_19
REMARK    6  A    between atoms: C_19  and  C_20
REMARK                            x       y       z     vdW  Elec       q    Type
REMARK                         _______ _______ _______ _____ _____    ______ ____
ROOT
ATOM      1  C   UNL     1      -0.017   1.402   0.010  0.00  0.00    +0.035 A 
ATOM      2  C   UNL     1       1.108   2.144   0.003  0.00  0.00    +0.029 A 
ATOM      3  C   UNL     1       2.417   1.476  -0.013  0.00  0.00    +0.061 A 
ATOM      4  N   UNL     1       3.639   1.924  -0.022  0.00  0.00    -0.355 N 
ATOM      5  C   UNL     1       4.535   0.761  -0.037  0.00  0.00    +0.236 C 
ATOM      6  N   UNL     1       3.671  -0.427  -0.035  0.00  0.00    -0.355 N 
ATOM      7  C   UNL     1       2.437  -0.012  -0.021  0.00  0.00    +0.063 A 
ATOM      8  C   UNL     1       1.147  -0.715  -0.013  0.00  0.00    +0.060 A 
ATOM      9  C   UNL     1       0.002  -0.004   0.002  0.00  0.00    +0.128 A 
ATOM     10  H   UNL     1       3.966  -1.351  -0.043  0.00  0.00    +0.162 HD
ATOM     11  H   UNL     1       3.909   2.856  -0.020  0.00  0.00    +0.162 HD
ENDROOT
BRANCH   9  12
ATOM     12  N   UNL     1      -1.286  -0.732   0.010  0.00  0.00    +0.056 N 
ATOM     13  O   UNL     1      -2.328  -0.118   0.024  0.00  0.00    -0.126 OA
ATOM     14  O   UNL     1      -1.298  -1.941   0.004  0.00  0.00    -0.126 OA
ENDBRANCH   9  12
BRANCH   5  15
ATOM     15  S   UNL     1       5.589   0.768   1.439  0.00  0.00    -0.106 S 
BRANCH  15  16
ATOM     16  C   UNL     1       4.412   0.743   2.819  0.00  0.00    +0.168 C 
BRANCH  16  17
ATOM     17  C   UNL     1       5.167   0.747   4.123  0.00  0.00    +0.223 C 
ATOM     18  O   UNL     1       6.380   0.764   4.122  0.00  0.00    -0.275 OA
ATOM     19  N   UNL     1       4.495   0.730   5.291  0.00  0.00    -0.312 N 
ATOM     20  H   UNL     1       3.525   0.716   5.292  0.00  0.00    +0.149 HD
BRANCH  19  21
ATOM     21  C   UNL     1       5.229   0.734   6.559  0.00  0.00    +0.135 C 
BRANCH  21  22
ATOM     22  C   UNL     1       4.236   0.713   7.723  0.00  0.00    +0.135 C 
ATOM     23  C   UNL     1       4.995   0.838   9.062  0.00  0.00    +0.035 C 
ATOM     24  C   UNL     1       4.212  -0.140   9.978  0.00  0.00    +0.031 C 
ATOM     25  C   UNL     1       3.811  -1.238   8.961  0.00  0.00    +0.160 C 
ATOM     26  O   UNL     1       3.531  -0.534   7.739  0.00  0.00    -0.375 OA
ENDBRANCH  21  22
ENDBRANCH  19  21
ENDBRANCH  16  17
ENDBRANCH  15  16
ENDBRANCH   5  15
TORSDOF 6
