REMARK  Name = ZINC01430914
REMARK  5 active torsions:
REMARK  status: ('A' for Active; 'I' for Inactive)
REMARK    1  A    between atoms: C_1  and  S_2
REMARK    2  A    between atoms: S_2  and  C_3
REMARK    3  A    between atoms: C_10  and  N_23
REMARK    4  A    between atoms: C_11  and  C_21
REMARK    5  A    between atoms: C_12  and  C_14
REMARK                            x       y       z     vdW  Elec       q    Type
REMARK                         _______ _______ _______ _____ _____    ______ ____
ROOT
ATOM      1  C   UNL     1      -1.993   7.497   3.509  0.00  0.00    +0.193 A 
ATOM      2  N   UNL     1      -0.754   7.035   3.593  0.00  0.00    -0.207 NA
ATOM      3  C   UNL     1      -0.117   6.600   2.508  0.00  0.00    +0.128 A 
ATOM      4  C   UNL     1      -0.772   6.641   1.280  0.00  0.00    +0.067 A 
ATOM      5  C   UNL     1      -2.067   7.130   1.230  0.00  0.00    +0.232 A 
ATOM      6  N   UNL     1      -2.643   7.547   2.355  0.00  0.00    -0.186 NA
ATOM      7  O   UNL     1      -2.742   7.188   0.062  0.00  0.00    -0.423 OA
ATOM      8  C   UNL     1      -2.073   7.131  -1.103  0.00  0.00    +0.200 C 
ATOM      9  C   UNL     1      -0.809   6.654  -1.184  0.00  0.00    +0.098 C 
ATOM     10  C   UNL     1      -0.082   6.158   0.036  0.00  0.00    +0.103 C 
ATOM     11  N   UNL     1       1.179   6.117   2.600  0.00  0.00    -0.343 N 
ATOM     12  H   UNL     1       1.629   6.093   3.459  0.00  0.00    +0.144 HD
ATOM     13  H   UNL     1       1.637   5.803   1.804  0.00  0.00    +0.144 HD
ENDROOT
BRANCH  10  14
ATOM     14  C   UNL     1      -0.061   4.651   0.027  0.00  0.00    -0.034 A 
ATOM     15  C   UNL     1       1.145   3.977   0.013  0.00  0.00    +0.005 A 
ATOM     16  C   UNL     1       1.165   2.595   0.005  0.00  0.00    +0.015 A 
ATOM     17  C   UNL     1      -0.024   1.887   0.012  0.00  0.00    +0.018 A 
ATOM     18  C   UNL     1      -1.231   2.562   0.022  0.00  0.00    +0.015 A 
ATOM     19  C   UNL     1      -1.249   3.944   0.035  0.00  0.00    +0.005 A 
ATOM     20 BR   UNL     1       0.002  -0.004   0.002  0.00  0.00    -0.050 Br
ENDBRANCH  10  14
BRANCH   8  21
ATOM     21  N   UNL     1      -2.692   7.571  -2.247  0.00  0.00    -0.328 N 
ATOM     22  H   UNL     1      -2.223   7.537  -3.095  0.00  0.00    +0.145 HD
ATOM     23  H   UNL     1      -3.597   7.915  -2.206  0.00  0.00    +0.145 HD
ENDBRANCH   8  21
BRANCH   1  25
ATOM     24  C   UNL     1      -1.489   7.766   6.185  0.00  0.00    +0.093 C 
ATOM     25  S   UNL     1      -2.799   8.060   4.971  0.00  0.00    -0.089 S 
ENDBRANCH   1  25
BRANCH   9  26
ATOM     26  C   UNL     1      -0.151   6.621  -2.455  0.00  0.00    +0.101 C 
ATOM     27  N   UNL     1       0.371   6.595  -3.464  0.00  0.00    -0.191 NA
ENDBRANCH   9  26
TORSDOF 4
