REMARK  Name = ZINC07442640
REMARK  6 active torsions:
REMARK  status: ('A' for Active; 'I' for Inactive)
REMARK    1  A    between atoms: C_1  and  N_49
REMARK    2  A    between atoms: C_2  and  C_3
REMARK    3  A    between atoms: C_2  and  N_49
REMARK    4  A    between atoms: C_11  and  C_12
REMARK    5  A    between atoms: C_11  and  N_49
REMARK    6  A    between atoms: N_14  and  N_15
REMARK                            x       y       z     vdW  Elec       q    Type
REMARK                         _______ _______ _______ _____ _____    ______ ____
ROOT
ATOM      1  C   UNL     1      -1.962  -0.191  -1.417  0.00  0.00    +0.213 C 
ATOM      2  O   UNL     1      -1.320   0.454  -2.219  0.00  0.00    -0.276 OA
ATOM      3  N   UNL     1      -3.214  -0.588  -1.719  0.00  0.00    -0.225 N 
ATOM      4  H   UNL     1      -3.727  -1.104  -1.078  0.00  0.00    +0.173 HD
ENDROOT
BRANCH   3   5
ATOM      5  N   UNL     1      -3.774  -0.255  -2.960  0.00  0.00    -0.137 N 
ATOM      6  C   UNL     1      -3.929  -1.125  -3.979  0.00  0.00    +0.263 C 
ATOM      7  O   UNL     1      -3.623  -2.298  -3.996  0.00  0.00    -0.271 OA
ATOM      8  C   UNL     1      -4.565  -0.329  -5.096  0.00  0.00    +0.114 C 
ATOM      9  C   UNL     1      -5.929  -0.910  -5.452  0.00  0.00    +0.035 C 
ATOM     10  C   UNL     1      -6.568  -0.075  -6.564  0.00  0.00    +0.003 C 
ATOM     11  C   UNL     1      -5.656  -0.079  -7.793  0.00  0.00    +0.000 C 
ATOM     12  C   UNL     1      -4.301   0.529  -7.425  0.00  0.00    +0.003 C 
ATOM     13  C   UNL     1      -3.652  -0.304  -6.317  0.00  0.00    +0.035 C 
ATOM     14  N   UNL     1      -4.711   1.020  -4.534  0.00  0.00    -0.284 N 
ATOM     15  C   UNL     1      -4.226   0.964  -3.279  0.00  0.00    +0.326 C 
ATOM     16  O   UNL     1      -4.199   1.914  -2.522  0.00  0.00    -0.251 OA
ATOM     17  H   UNL     1      -5.087   1.796  -4.977  0.00  0.00    +0.151 HD
ENDBRANCH   3   5
BRANCH   1  18
ATOM     18  C   UNL     1      -1.360  -0.549  -0.083  0.00  0.00    +0.020 C 
BRANCH  18  20
ATOM     19  C   UNL     1      -0.018   1.465   0.010  0.00  0.00    -0.095 C 
ATOM     20  N   UNL     1       0.017  -0.013  -0.021  0.00  0.00    +0.386 N 
ATOM     21  H   UNL     1       0.530  -0.317  -0.857  0.00  0.00    -0.081 HD
BRANCH  20  22
ATOM     22  C   UNL     1       0.706  -0.527   1.180  0.00  0.00    -0.038 C 
BRANCH  22  23
ATOM     23  C   UNL     1       2.163  -0.149   1.104  0.00  0.00    -0.010 A 
ATOM     24  C   UNL     1       2.599   1.042   1.661  0.00  0.00    +0.126 A 
ATOM     25  C   UNL     1       3.937   1.389   1.590  0.00  0.00    +0.038 A 
ATOM     26  C   UNL     1       4.838   0.546   0.965  0.00  0.00    +0.004 A 
ATOM     27  C   UNL     1       4.402  -0.642   0.410  0.00  0.00    +0.020 A 
ATOM     28  C   UNL     1       3.066  -0.993   0.484  0.00  0.00    +0.045 A 
ATOM     29 CL   UNL     1       2.521  -2.489  -0.207  0.00  0.00    -0.083 Cl
ATOM     30  F   UNL     1       1.719   1.865   2.271  0.00  0.00    -0.205 F 
ENDBRANCH  22  23
ENDBRANCH  20  22
ENDBRANCH  18  20
ENDBRANCH   1  18
TORSDOF 5
