REMARK  Name = ZINC08800501
REMARK  9 active torsions:
REMARK  status: ('A' for Active; 'I' for Inactive)
REMARK    1  A    between atoms: C_1  and  N_2
REMARK    2  A    between atoms: C_9  and  C_11
REMARK    3  A    between atoms: C_11  and  C_13
REMARK    4  A    between atoms: C_11  and  N_50
REMARK    5  A    between atoms: C_13  and  N_14
REMARK    6  A    between atoms: N_14  and  S_15
REMARK    7  A    between atoms: S_15  and  C_18
REMARK    8  A    between atoms: C_25  and  N_50
REMARK    9  A    between atoms: C_26  and  N_50
REMARK                            x       y       z     vdW  Elec       q    Type
REMARK                         _______ _______ _______ _____ _____    ______ ____
ROOT
ATOM      1  C   UNL     1      -0.090   1.449   0.008  0.00  0.00    -0.023 C 
ENDROOT
BRANCH   1  10
ATOM      2  C   UNL     1      -2.202   6.024  -4.040  0.00  0.00    +0.129 C 
ATOM      3  N   UNL     1      -2.644   4.627  -3.932  0.00  0.00    -0.332 N 
ATOM      4  C   UNL     1      -2.321   3.872  -5.162  0.00  0.00    +0.109 C 
ATOM      5  C   UNL     1      -2.085   2.441  -4.627  0.00  0.00    +0.056 C 
ATOM      6  C   UNL     1      -1.669   2.682  -3.190  0.00  0.00    -0.025 A 
ATOM      7  C   UNL     1      -2.019   3.985  -2.856  0.00  0.00    +0.033 A 
ATOM      8  C   UNL     1      -1.729   4.457  -1.577  0.00  0.00    +0.023 A 
ATOM      9  C   UNL     1      -1.111   3.636  -0.657  0.00  0.00    +0.004 A 
ATOM     10  C   UNL     1      -0.766   2.342  -1.000  0.00  0.00    -0.059 A 
ATOM     11  C   UNL     1      -1.048   1.866  -2.268  0.00  0.00    +0.007 A 
ENDBRANCH   1  10
BRANCH   1  14
ATOM     12  C   UNL     1      -0.893   2.289   2.132  0.00  0.00    -0.096 C 
ATOM     13  C   UNL     1      -2.382   1.053   0.678  0.00  0.00    -0.096 C 
ATOM     14  N   UNL     1      -0.989   1.187   1.152  0.00  0.00    +0.381 N 
ATOM     15  H   UNL     1      -0.705   0.311   1.606  0.00  0.00    -0.082 HD
ENDBRANCH   1  14
BRANCH   1  16
ATOM     16  C   UNL     1       1.188   2.124   0.512  0.00  0.00    +0.095 C 
BRANCH  16  17
ATOM     17  N   UNL     1       1.782   1.312   1.577  0.00  0.00    -0.191 NA
ATOM     18  H   UNL     1       1.260   0.614   2.003  0.00  0.00    +0.148 HD
BRANCH  17  19
ATOM     19  S   UNL     1       3.344   1.587   2.054  0.00  0.00    +0.060 S 
ATOM     20  O   UNL     1       3.614   0.671   3.106  0.00  0.00    -0.153 OA
ATOM     21  O   UNL     1       4.127   1.639   0.869  0.00  0.00    -0.153 OA
BRANCH  19  22
ATOM     22  C   UNL     1       3.396   3.199   2.764  0.00  0.00    +0.123 A 
ATOM     23  C   UNL     1       3.682   3.354   4.107  0.00  0.00    +0.030 A 
ATOM     24  C   UNL     1       3.727   4.618   4.663  0.00  0.00    +0.002 A 
ATOM     25  C   UNL     1       3.477   5.729   3.878  0.00  0.00    +0.002 A 
ATOM     26  C   UNL     1       3.185   5.575   2.536  0.00  0.00    +0.022 A 
ATOM     27  C   UNL     1       3.144   4.309   1.978  0.00  0.00    +0.067 A 
ATOM     28 CL   UNL     1       2.778   4.115   0.292  0.00  0.00    -0.082 Cl
ENDBRANCH  19  22
ENDBRANCH  17  19
ENDBRANCH  16  17
ENDBRANCH   1  16
TORSDOF 6
