REMARK  Name = ZINC19640173
REMARK  8 active torsions:
REMARK  status: ('A' for Active; 'I' for Inactive)
REMARK    1  A    between atoms: C_1  and  C_2
REMARK    2  A    between atoms: C_5  and  N_8
REMARK    3  A    between atoms: C_9  and  C_11
REMARK    4  A    between atoms: N_13  and  N_14
REMARK    5  A    between atoms: C_15  and  C_16
REMARK    6  A    between atoms: C_18  and  C_29
REMARK    7  A    between atoms: N_19  and  C_22
REMARK    8  A    between atoms: C_20  and  C_21
REMARK                            x       y       z     vdW  Elec       q    Type
REMARK                         _______ _______ _______ _____ _____    ______ ____
ROOT
ATOM      1  N   UNL     1       0.547  -8.405   2.265  0.00  0.00    -0.187 NA
ATOM      2  C   UNL     1       0.659  -9.060   3.382  0.00  0.00    +0.140 C 
ENDROOT
BRANCH   2   3
ATOM      3  C   UNL     1       0.789 -10.527   3.366  0.00  0.00    +0.016 A 
ATOM      4  C   UNL     1       0.918 -11.412   4.529  0.00  0.00    +0.032 A 
ATOM      5  C   UNL     1       1.009 -12.665   4.049  0.00  0.00    +0.022 A 
ATOM      6  N   UNL     1       0.946 -12.623   2.685  0.00  0.00    -0.317 N 
ATOM      7  C   UNL     1       0.809 -11.337   2.265  0.00  0.00    +0.030 A 
ATOM      8  C   UNL     1       0.700 -10.882   0.833  0.00  0.00    +0.064 C 
ATOM      9  C   UNL     1       1.155 -13.913   4.881  0.00  0.00    +0.064 C 
BRANCH   6  10
ATOM     10  C   UNL     1       1.009 -13.741   1.843  0.00  0.00    +0.048 A 
ATOM     11  C   UNL     1       2.083 -13.900   0.977  0.00  0.00    +0.026 A 
ATOM     12  C   UNL     1       2.144 -15.003   0.148  0.00  0.00    +0.003 A 
ATOM     13  C   UNL     1       1.136 -15.949   0.178  0.00  0.00    +0.020 A 
ATOM     14  C   UNL     1       0.064 -15.794   1.040  0.00  0.00    +0.043 A 
ATOM     15  C   UNL     1       0.001 -14.694   1.876  0.00  0.00    +0.046 A 
ATOM     16 CL   UNL     1      -1.200 -16.983   1.075  0.00  0.00    -0.083 Cl
ENDBRANCH   6  10
ENDBRANCH   2   3
BRANCH   1  19
ATOM     17  C   UNL     1       0.306  -6.331   1.121  0.00  0.00    +0.318 C 
ATOM     18  O   UNL     1       0.309  -6.929   0.064  0.00  0.00    -0.263 OA
ATOM     19  N   UNL     1       0.423  -7.010   2.280  0.00  0.00    -0.199 N 
ATOM     20  H   UNL     1       0.421  -6.532   3.124  0.00  0.00    +0.178 HD
BRANCH  17  22
ATOM     21  N   UNL     1       0.058  -4.168  -0.021  0.00  0.00    -0.278 N 
ATOM     22  C   UNL     1       0.174  -4.847   1.138  0.00  0.00    +0.305 C 
ATOM     23  O   UNL     1       0.172  -4.249   2.194  0.00  0.00    -0.265 OA
ATOM     24  H   UNL     1      -0.017  -4.649  -0.860  0.00  0.00    +0.155 HD
BRANCH  21  29
ATOM     25  C   UNL     1       0.006   1.503   0.009  0.00  0.00    +0.044 C 
ATOM     26  C   UNL     1       0.020  -0.004   0.001  0.00  0.00    -0.050 A 
ATOM     27  C   UNL     1      -0.724  -0.696  -0.937  0.00  0.00    +0.005 A 
ATOM     28  C   UNL     1      -0.714  -2.077  -0.948  0.00  0.00    +0.023 A 
ATOM     29  C   UNL     1       0.045  -2.771  -0.014  0.00  0.00    +0.034 A 
ATOM     30  C   UNL     1       0.791  -2.072   0.927  0.00  0.00    +0.023 A 
ATOM     31  C   UNL     1       0.781  -0.692   0.928  0.00  0.00    +0.005 A 
ENDBRANCH  21  29
ENDBRANCH  17  22
ENDBRANCH   1  19
TORSDOF 5
