REMARK  Name = ZINC08723877
REMARK  7 active torsions:
REMARK  status: ('A' for Active; 'I' for Inactive)
REMARK    1  A    between atoms: C_1  and  C_2
REMARK    2  A    between atoms: C_2  and  C_4
REMARK    3  A    between atoms: C_2  and  S_20
REMARK    4  A    between atoms: C_10  and  C_15
REMARK    5  A    between atoms: S_20  and  C_21
REMARK    6  A    between atoms: N_25  and  C_26
REMARK    7  A    between atoms: C_26  and  C_27
REMARK                            x       y       z     vdW  Elec       q    Type
REMARK                         _______ _______ _______ _____ _____    ______ ____
ROOT
ATOM      1  C   UNL     1      -5.685  -1.974   4.476  0.00  0.00    +0.027 C 
ATOM      2  C   UNL     1      -5.318  -0.675   3.755  0.00  0.00    +0.117 C 
ENDROOT
BRANCH   2   3
ATOM      3  C   UNL     1      -3.921  -0.786   3.201  0.00  0.00    +0.124 A 
ATOM      4  N   UNL     1      -2.877  -0.303   3.922  0.00  0.00    -0.309 N 
ATOM      5  H   UNL     1      -3.045   0.106   4.785  0.00  0.00    +0.170 HD
ATOM      6  C   UNL     1      -1.614  -0.383   3.463  0.00  0.00    +0.260 A 
ATOM      7  O   UNL     1      -0.688   0.054   4.124  0.00  0.00    -0.267 OA
ATOM      8  C   UNL     1      -1.375  -0.994   2.192  0.00  0.00    +0.083 A 
ATOM      9  C   UNL     1      -0.115  -1.190   1.484  0.00  0.00    +0.039 A 
ATOM     10  C   UNL     1      -0.137  -1.797   0.270  0.00  0.00    +0.059 A 
ATOM     11  S   UNL     1      -1.867  -2.131   0.008  0.00  0.00    -0.076 S 
ATOM     12  C   UNL     1      -2.516  -1.458   1.516  0.00  0.00    +0.116 A 
ATOM     13  N   UNL     1      -3.736  -1.344   2.035  0.00  0.00    -0.225 NA
BRANCH   9  14
ATOM     14  C   UNL     1       1.161  -0.744   2.080  0.00  0.00    +0.136 A 
ATOM     15  C   UNL     1       2.288  -1.494   2.209  0.00  0.00    +0.050 A 
ATOM     16  C   UNL     1       3.253  -0.674   2.829  0.00  0.00    +0.042 A 
ATOM     17  C   UNL     1       2.675   0.522   3.045  0.00  0.00    +0.196 A 
ATOM     18  O   UNL     1       1.410   0.477   2.592  0.00  0.00    -0.463 OA
ENDBRANCH   9  14
ENDBRANCH   2   3
BRANCH   2  19
ATOM     19  S   UNL     1      -5.397   0.709   4.925  0.00  0.00    -0.075 S 
BRANCH  19  20
ATOM     20  C   UNL     1      -7.101   0.799   5.364  0.00  0.00    +0.194 A 
ATOM     21  N   UNL     1      -8.055   0.022   4.913  0.00  0.00    -0.121 NA
ATOM     22  N   UNL     1      -9.258   0.423   5.510  0.00  0.00    -0.112 NA
ATOM     23  C   UNL     1      -9.000   1.436   6.300  0.00  0.00    +0.221 A 
ATOM     24  N   UNL     1      -7.661   1.696   6.231  0.00  0.00    -0.283 N 
ATOM     25  N   UNL     1      -9.927   2.126   7.071  0.00  0.00    -0.300 N 
ATOM     26  C   UNL     1     -10.652   3.134   6.257  0.00  0.00    +0.108 C 
ATOM     27  C   UNL     1     -11.935   3.402   7.085  0.00  0.00    +0.020 C 
ATOM     28  C   UNL     1     -12.283   2.004   7.645  0.00  0.00    +0.020 C 
ATOM     29  C   UNL     1     -10.963   1.212   7.599  0.00  0.00    +0.108 C 
BRANCH  24  30
ATOM     30  C   UNL     1      -6.950   2.751   6.957  0.00  0.00    +0.201 C 
BRANCH  30  31
ATOM     31  C   UNL     1      -6.588   2.256   8.334  0.00  0.00    +0.125 A 
ATOM     32  C   UNL     1      -5.442   1.638   8.672  0.00  0.00    +0.046 A 
ATOM     33  C   UNL     1      -5.523   1.353  10.055  0.00  0.00    +0.041 A 
ATOM     34  C   UNL     1      -6.717   1.806  10.477  0.00  0.00    +0.195 A 
ATOM     35  O   UNL     1      -7.357   2.352   9.431  0.00  0.00    -0.466 OA
ENDBRANCH  30  31
ENDBRANCH  24  30
ENDBRANCH  19  20
ENDBRANCH   2  19
TORSDOF 6
