REMARK  Name = ZINC28196438
REMARK  7 active torsions:
REMARK  status: ('A' for Active; 'I' for Inactive)
REMARK    1  A    between atoms: C_1  and  C_2
REMARK    2  A    between atoms: C_2  and  N_3
REMARK    3  A    between atoms: C_14  and  N_16
REMARK    4  A    between atoms: N_16  and  S_17
REMARK    5  A    between atoms: S_17  and  C_20
REMARK    6  A    between atoms: C_22  and  C_26
REMARK    7  A    between atoms: N_23  and  C_25
REMARK                            x       y       z     vdW  Elec       q    Type
REMARK                         _______ _______ _______ _____ _____    ______ ____
ROOT
ATOM      1  N   UNL     1       0.446  -1.375   0.933  0.00  0.00    -0.340 N 
ATOM      2  C   UNL     1       1.815  -1.562   0.990  0.00  0.00    +0.050 A 
ATOM      3  C   UNL     1       2.810  -1.509   0.018  0.00  0.00    +0.026 A 
ATOM      4  C   UNL     1       4.124  -1.742   0.362  0.00  0.00    +0.002 A 
ATOM      5  C   UNL     1       4.469  -2.033   1.673  0.00  0.00    +0.001 A 
ATOM      6  C   UNL     1       3.499  -2.091   2.650  0.00  0.00    +0.010 A 
ATOM      7  C   UNL     1       2.167  -1.856   2.316  0.00  0.00    +0.008 A 
ATOM      8  C   UNL     1       0.915  -1.840   3.095  0.00  0.00    +0.009 A 
ATOM      9  C   UNL     1      -0.113  -1.531   2.192  0.00  0.00    +0.050 A 
ATOM     10  C   UNL     1      -1.423  -1.440   2.651  0.00  0.00    +0.028 A 
ATOM     11  C   UNL     1      -1.704  -1.647   3.984  0.00  0.00    +0.029 A 
ATOM     12  C   UNL     1      -0.685  -1.948   4.883  0.00  0.00    +0.075 A 
ATOM     13  C   UNL     1       0.622  -2.054   4.440  0.00  0.00    +0.037 A 
ENDROOT
BRANCH   1  15
ATOM     14  C   UNL     1      -0.377   0.469  -0.447  0.00  0.00    +0.027 C 
ATOM     15  C   UNL     1      -0.304  -1.050  -0.283  0.00  0.00    +0.119 C 
ENDBRANCH   1  15
BRANCH  12  16
ATOM     16  N   UNL     1      -0.984  -2.156   6.235  0.00  0.00    -0.098 NA
BRANCH  16  17
ATOM     17  S   UNL     1      -2.549  -2.042   6.763  0.00  0.00    +0.093 S 
ATOM     18  O   UNL     1      -2.935  -0.684   6.603  0.00  0.00    -0.148 OA
ATOM     19  O   UNL     1      -3.261  -3.113   6.158  0.00  0.00    -0.148 OA
BRANCH  17  20
ATOM     20  C   UNL     1      -2.538  -2.361   8.496  0.00  0.00    +0.128 A 
ATOM     21  C   UNL     1      -2.675  -3.613   9.104  0.00  0.00    +0.061 A 
ATOM     22  C   UNL     1      -2.611  -3.412  10.466  0.00  0.00    +0.106 A 
ATOM     23  N   UNL     1      -2.438  -2.063  10.678  0.00  0.00    -0.344 N 
ATOM     24  C   UNL     1      -2.390  -1.438   9.476  0.00  0.00    +0.115 A 
ATOM     25  C   UNL     1      -2.319  -1.411  11.985  0.00  0.00    +0.149 C 
BRANCH  22  26
ATOM     26  C   UNL     1      -2.709  -4.446  11.501  0.00  0.00    +0.258 C 
ATOM     27  O   UNL     1      -2.533  -4.156  12.670  0.00  0.00    -0.269 OA
ATOM     28  N   UNL     1      -2.995  -5.718  11.158  0.00  0.00    -0.324 N 
ATOM     29  H   UNL     1      -3.063  -5.964  10.222  0.00  0.00    +0.145 HD
ATOM     30  H   UNL     1      -3.132  -6.387  11.847  0.00  0.00    +0.145 HD
ENDBRANCH  22  26
ENDBRANCH  17  20
ENDBRANCH  16  17
ENDBRANCH  12  16
TORSDOF 5
