REMARK  Name = ZINC14551130
REMARK  5 active torsions:
REMARK  status: ('A' for Active; 'I' for Inactive)
REMARK    1  A    between atoms: C_1  and  N_2
REMARK    2  A    between atoms: N_2  and  C_3
REMARK    3  A    between atoms: C_9  and  C_11
REMARK    4  A    between atoms: C_24  and  C_27
REMARK    5  A    between atoms: C_30  and  N_33
REMARK                            x       y       z     vdW  Elec       q    Type
REMARK                         _______ _______ _______ _____ _____    ______ ____
ROOT
ATOM      1  C   UNL     1       1.757   2.066   2.297  0.00  0.00    +0.038 A 
ATOM      2  C   UNL     1       2.635   2.540   1.317  0.00  0.00    +0.015 A 
ATOM      3  C   UNL     1       2.381   2.293  -0.011  0.00  0.00    +0.024 A 
ATOM      4  C   UNL     1       1.252   1.573  -0.394  0.00  0.00    +0.031 A 
ATOM      5  C   UNL     1       0.378   1.087   0.591  0.00  0.00    -0.019 A 
ATOM      6  C   UNL     1       0.626   1.336   1.918  0.00  0.00    +0.019 A 
ATOM      7  C   UNL     1      -0.794   0.308   0.137  0.00  0.00    +0.049 C 
ATOM      8  C   UNL     1      -2.050   0.244   0.927  0.00  0.00    -0.023 C 
ATOM      9  C   UNL     1      -3.073   0.122   0.122  0.00  0.00    -0.030 C 
ATOM     10  C   UNL     1      -2.590   0.129  -1.329  0.00  0.00    +0.033 C 
ATOM     11  C   UNL     1      -1.278   0.915  -1.214  0.00  0.00    +0.029 C 
ATOM     12  C   UNL     1      -0.175   0.607  -2.212  0.00  0.00    +0.105 C 
ATOM     13  N   UNL     1       1.005   1.370  -1.751  0.00  0.00    -0.336 N 
ATOM     14  H   UNL     1       1.619   1.737  -2.406  0.00  0.00    +0.147 HD
ENDROOT
BRANCH  12  15
ATOM     15  C   UNL     1       0.129  -0.869  -2.218  0.00  0.00    -0.027 A 
ATOM     16  C   UNL     1       1.153  -1.366  -1.434  0.00  0.00    +0.008 A 
ATOM     17  C   UNL     1       1.428  -2.721  -1.435  0.00  0.00    +0.033 A 
ATOM     18  C   UNL     1       0.686  -3.576  -2.228  0.00  0.00    +0.126 A 
ATOM     19  C   UNL     1      -0.334  -3.078  -3.016  0.00  0.00    +0.033 A 
ATOM     20  C   UNL     1      -0.613  -1.724  -3.011  0.00  0.00    +0.008 A 
BRANCH  18  21
ATOM     21  N   UNL     1       0.984  -5.026  -2.233  0.00  0.00    +0.056 N 
ATOM     22  O   UNL     1       0.331  -5.780  -2.932  0.00  0.00    -0.126 OA
ATOM     23  O   UNL     1       1.883  -5.466  -1.538  0.00  0.00    -0.126 OA
ENDBRANCH  18  21
ENDBRANCH  12  15
BRANCH   1  26
ATOM     24  C   UNL     1       4.409   2.268   3.235  0.00  0.00    +0.138 C 
ATOM     25  N   UNL     1       3.291   2.372   4.176  0.00  0.00    -0.271 N 
ATOM     26  C   UNL     1       2.022   2.333   3.723  0.00  0.00    +0.251 C 
ATOM     27  O   UNL     1       1.097   2.519   4.489  0.00  0.00    -0.270 OA
BRANCH  25  28
ATOM     28  C   UNL     1       3.540   2.510   5.546  0.00  0.00    +0.036 A 
ATOM     29  C   UNL     1       2.492   2.441   6.454  0.00  0.00    +0.023 A 
ATOM     30  C   UNL     1       2.742   2.572   7.806  0.00  0.00    +0.002 A 
ATOM     31  C   UNL     1       4.033   2.785   8.255  0.00  0.00    +0.000 A 
ATOM     32  C   UNL     1       5.078   2.859   7.352  0.00  0.00    +0.002 A 
ATOM     33  C   UNL     1       4.835   2.723   5.999  0.00  0.00    +0.023 A 
ENDBRANCH  25  28
ENDBRANCH   1  26
TORSDOF 4
