REMARK  Name = ZINC41652219
REMARK  9 active torsions:
REMARK  status: ('A' for Active; 'I' for Inactive)
REMARK    1  A    between atoms: C_1  and  C_2
REMARK    2  A    between atoms: N_7  and  C_9
REMARK    3  A    between atoms: C_9  and  C_11
REMARK    4  A    between atoms: C_9  and  C_12
REMARK    5  A    between atoms: C_12  and  N_13
REMARK    6  A    between atoms: C_14  and  C_16
REMARK    7  A    between atoms: N_18  and  C_19
REMARK    8  A    between atoms: C_26  and  C_28
REMARK    9  A    between atoms: C_26  and  C_29
REMARK                            x       y       z     vdW  Elec       q    Type
REMARK                         _______ _______ _______ _____ _____    ______ ____
ROOT
ATOM      1  N   UNL     1       1.979  -4.564   1.346  0.00  0.00    -0.309 N 
ATOM      2  C   UNL     1       1.946  -5.895   1.136  0.00  0.00    +0.299 C 
ATOM      3  O   UNL     1       1.359  -6.617   1.915  0.00  0.00    -0.265 OA
ATOM      4  H   UNL     1       2.448  -3.986   0.724  0.00  0.00    +0.149 HD
ENDROOT
BRANCH   2   5
ATOM      5  C   UNL     1       2.632  -6.481  -0.054  0.00  0.00    +0.303 C 
ATOM      6  O   UNL     1       3.220  -5.758  -0.832  0.00  0.00    -0.265 OA
ATOM      7  N   UNL     1       2.600  -7.812  -0.263  0.00  0.00    -0.278 N 
ATOM      8  H   UNL     1       2.192  -8.396   0.395  0.00  0.00    +0.155 HD
BRANCH   7   9
ATOM      9  C   UNL     1       3.154  -8.350  -1.429  0.00  0.00    +0.038 A 
ATOM     10  C   UNL     1       2.558  -9.447  -2.039  0.00  0.00    +0.027 A 
ATOM     11  C   UNL     1       3.105  -9.980  -3.190  0.00  0.00    +0.051 A 
ATOM     12  C   UNL     1       4.248  -9.422  -3.740  0.00  0.00    +0.167 A 
ATOM     13  C   UNL     1       4.847  -8.321  -3.132  0.00  0.00    +0.169 A 
ATOM     14  C   UNL     1       4.296  -7.784  -1.981  0.00  0.00    +0.073 A 
ATOM     15  O   UNL     1       5.946  -7.965  -3.859  0.00  0.00    -0.448 OA
ATOM     16  C   UNL     1       6.247  -9.105  -4.686  0.00  0.00    +0.248 C 
ATOM     17  O   UNL     1       4.972  -9.754  -4.850  0.00  0.00    -0.448 OA
ATOM     18  C   UNL     1       7.236 -10.034  -3.980  0.00  0.00    +0.104 C 
ATOM     19  C   UNL     1       6.800  -8.656  -6.040  0.00  0.00    +0.104 C 
ENDBRANCH   7   9
ENDBRANCH   2   5
BRANCH   1  20
ATOM     20  C   UNL     1       1.306  -3.989   2.513  0.00  0.00    +0.089 C 
BRANCH  20  21
ATOM     21  C   UNL     1       1.385  -2.463   2.447  0.00  0.00    -0.054 C 
ATOM     22  C   UNL     1       0.582  -1.860   3.602  0.00  0.00    -0.012 C 
BRANCH  21  28
ATOM     23  C   UNL     1      -2.635  -2.334  -0.344  0.00  0.00    +0.005 C 
ATOM     24  C   UNL     1      -1.155  -1.954  -0.269  0.00  0.00    -0.031 C 
ATOM     25  C   UNL     1      -1.006  -0.440  -0.442  0.00  0.00    -0.001 C 
ATOM     26  C   UNL     1       0.469  -0.061  -0.287  0.00  0.00    -0.018 C 
ATOM     27  C   UNL     1       0.973  -0.541   1.076  0.00  0.00    -0.078 C 
ATOM     28  N   UNL     1       0.829  -1.998   1.169  0.00  0.00    +0.383 N 
ATOM     29  C   UNL     1      -0.591  -2.365   1.093  0.00  0.00    -0.075 C 
ATOM     30  H   UNL     1       1.328  -2.435   0.409  0.00  0.00    -0.081 HD
ENDBRANCH  21  28
ENDBRANCH  20  21
ENDBRANCH   1  20
TORSDOF 5
