REMARK  Name = ZINC20744831
REMARK  4 active torsions:
REMARK  status: ('A' for Active; 'I' for Inactive)
REMARK    1  A    between atoms: C_1  and  C_2
REMARK    2  A    between atoms: C_4  and  C_22
REMARK    3  A    between atoms: C_6  and  S_8
REMARK    4  A    between atoms: S_8  and  C_9
REMARK                            x       y       z     vdW  Elec       q    Type
REMARK                         _______ _______ _______ _____ _____    ______ ____
ROOT
ATOM      1  C   UNL     1       0.041  -1.542   3.919  0.00  0.00    +0.141 C 
ATOM      2  C   UNL     1      -0.097  -2.158   5.291  0.00  0.00    +0.028 C 
ATOM      3  C   UNL     1      -0.451  -1.167   6.356  0.00  0.00    +0.038 C 
ATOM      4  C   UNL     1       0.672  -0.310   6.845  0.00  0.00    -0.026 A 
ATOM      5  C   UNL     1       0.639   0.005   8.204  0.00  0.00    +0.005 A 
ATOM      6  C   UNL     1       1.618   0.777   8.787  0.00  0.00    +0.000 A 
ATOM      7  C   UNL     1       2.660   1.253   8.011  0.00  0.00    +0.002 A 
ATOM      8  C   UNL     1       2.700   0.952   6.672  0.00  0.00    +0.023 A 
ATOM      9  C   UNL     1       1.702   0.170   6.066  0.00  0.00    +0.037 A 
ATOM     10  N   UNL     1       1.860  -0.022   4.712  0.00  0.00    -0.284 N 
ATOM     11  C   UNL     1       1.292  -0.748   3.793  0.00  0.00    +0.231 C 
ATOM     12  O   UNL     1       1.843  -0.778   2.713  0.00  0.00    -0.274 OA
ATOM     13  H   UNL     1       2.578   0.521   4.352  0.00  0.00    +0.155 HD
ENDROOT
BRANCH   1  14
ATOM     14  S   UNL     1       0.053  -2.864   2.678  0.00  0.00    -0.073 S 
BRANCH  14  20
ATOM     15  C   UNL     1      -0.018   1.503   0.010  0.00  0.00    +0.066 C 
ATOM     16  C   UNL     1       0.002  -0.004   0.002  0.00  0.00    +0.043 A 
ATOM     17  C   UNL     1       0.006  -0.699  -1.198  0.00  0.00    +0.046 A 
ATOM     18  C   UNL     1       0.025  -2.084  -1.161  0.00  0.00    +0.043 A 
ATOM     19  N   UNL     1       0.039  -2.699   0.010  0.00  0.00    -0.227 NA
ATOM     20  C   UNL     1       0.035  -2.005   1.140  0.00  0.00    +0.189 A 
ATOM     21  N   UNL     1       0.022  -0.679   1.139  0.00  0.00    -0.227 NA
ATOM     22  C   UNL     1       0.029  -2.881  -2.440  0.00  0.00    +0.066 C 
ENDBRANCH  14  20
ENDBRANCH   1  14
TORSDOF 2
