REMARK  Name = ZINC43560455
REMARK  3 active torsions:
REMARK  status: ('A' for Active; 'I' for Inactive)
REMARK    1  A    between atoms: C_1  and  C_2
REMARK    2  A    between atoms: C_2  and  C_4
REMARK    3  A    between atoms: C_6  and  C_9
REMARK                            x       y       z     vdW  Elec       q    Type
REMARK                         _______ _______ _______ _____ _____    ______ ____
ROOT
ATOM      1  C   UNL     1       0.731  -0.503   1.223  0.00  0.00    +0.245 A 
ATOM      2  N   UNL     1       0.177  -1.033   2.276  0.00  0.00    -0.190 NA
ATOM      3  C   UNL     1       1.122  -1.367   3.174  0.00  0.00    +0.203 A 
ATOM      4  N   UNL     1       2.295  -1.046   2.687  0.00  0.00    -0.056 NA
ATOM      5  O   UNL     1       2.058  -0.482   1.405  0.00  0.00    -0.336 OA
ENDROOT
BRANCH   3   6
ATOM      6  C   UNL     1       0.876  -1.994   4.496  0.00  0.00    +0.036 A 
ATOM      7  C   UNL     1      -0.425  -2.293   4.897  0.00  0.00    +0.013 A 
ATOM      8  C   UNL     1      -0.648  -2.877   6.128  0.00  0.00    +0.001 A 
ATOM      9  C   UNL     1       0.417  -3.166   6.963  0.00  0.00    +0.001 A 
ATOM     10  C   UNL     1       1.710  -2.872   6.571  0.00  0.00    +0.016 A 
ATOM     11  C   UNL     1       1.945  -2.293   5.339  0.00  0.00    +0.029 A 
ATOM     12 BR   UNL     1       3.715  -1.897   4.801  0.00  0.00    -0.050 Br
ENDBRANCH   3   6
BRANCH   1  14
ATOM     13  C   UNL     1      -0.019   1.526   0.010  0.00  0.00    +0.034 C 
ATOM     14  C   UNL     1       0.002  -0.004   0.002  0.00  0.00    +0.166 C 
ATOM     15 CL   UNL     1       0.846  -0.586  -1.481  0.00  0.00    -0.112 Cl
ENDBRANCH   1  14
TORSDOF 2
