REMARK  Name = ZINC39690653
REMARK  9 active torsions:
REMARK  status: ('A' for Active; 'I' for Inactive)
REMARK    1  A    between atoms: C_1  and  C_2
REMARK    2  A    between atoms: C_2  and  C_3
REMARK    3  A    between atoms: C_3  and  C_4
REMARK    4  A    between atoms: C_4  and  N_5
REMARK    5  A    between atoms: C_6  and  S_20
REMARK    6  A    between atoms: S_20  and  C_21
REMARK    7  A    between atoms: C_21  and  C_22
REMARK    8  A    between atoms: C_28  and  C_34
REMARK    9  A    between atoms: C_29  and  C_33
REMARK                            x       y       z     vdW  Elec       q    Type
REMARK                         _______ _______ _______ _____ _____    ______ ____
ROOT
ATOM      1  N   UNL     1       1.425  -2.500  -2.470  0.00  0.00    -0.267 N 
ATOM      2  C   UNL     1       0.620  -2.722  -3.657  0.00  0.00    +0.255 C 
ATOM      3  N   UNL     1       1.168  -3.719  -4.580  0.00  0.00    -0.243 NA
ATOM      4  C   UNL     1       2.428  -3.960  -4.574  0.00  0.00    +0.107 C 
ATOM      5  C   UNL     1       3.382  -3.381  -3.574  0.00  0.00    +0.069 C 
ATOM      6  C   UNL     1       2.760  -2.690  -2.396  0.00  0.00    +0.251 C 
ATOM      7  O   UNL     1       3.413  -2.329  -1.436  0.00  0.00    -0.270 OA
ATOM      8  C   UNL     1       4.682  -3.530  -3.793  0.00  0.00    -0.042 C 
ATOM      9  C   UNL     1       5.053  -4.131  -5.161  0.00  0.00    +0.079 C 
ATOM     10  S   UNL     1       3.470  -4.939  -5.622  0.00  0.00    -0.098 S 
ATOM     11  C   UNL     1       6.126  -5.165  -4.773  0.00  0.00    +0.019 C 
ATOM     12  C   UNL     1       6.975  -4.394  -3.731  0.00  0.00    +0.006 C 
ATOM     13  C   UNL     1       6.050  -3.320  -3.151  0.00  0.00    +0.033 C 
ENDROOT
BRANCH   1  14
ATOM     14  C   UNL     1       0.739  -2.027  -1.265  0.00  0.00    +0.111 C 
BRANCH  14  15
ATOM     15  C   UNL     1       0.718  -0.497  -1.257  0.00  0.00    +0.019 C 
BRANCH  15  17
ATOM     16  C   UNL     1      -0.019   1.526   0.010  0.00  0.00    +0.004 C 
ATOM     17  C   UNL     1       0.002  -0.004   0.002  0.00  0.00    -0.002 C 
ENDBRANCH  15  17
ENDBRANCH  14  15
ENDBRANCH   1  14
BRANCH   2  18
ATOM     18  S   UNL     1       0.455  -1.149  -4.545  0.00  0.00    -0.107 S 
BRANCH  18  19
ATOM     19  C   UNL     1       2.164  -0.688  -4.941  0.00  0.00    +0.147 C 
BRANCH  19  20
ATOM     20  C   UNL     1       2.170   0.620  -5.690  0.00  0.00    +0.124 A 
ATOM     21  N   UNL     1       3.358   1.140  -6.086  0.00  0.00    -0.309 N 
ATOM     22  H   UNL     1       4.183   0.671  -5.886  0.00  0.00    +0.170 HD
ATOM     23  C   UNL     1       3.394   2.313  -6.760  0.00  0.00    +0.263 A 
ATOM     24  O   UNL     1       4.452   2.796  -7.124  0.00  0.00    -0.267 OA
ATOM     25  C   UNL     1       2.169   2.960  -7.030  0.00  0.00    +0.118 A 
ATOM     26  C   UNL     1       1.778   4.206  -7.711  0.00  0.00    +0.118 A 
ATOM     27  C   UNL     1       0.417   4.255  -7.627  0.00  0.00    +0.119 A 
ATOM     28  O   UNL     1      -0.031   3.177  -6.973  0.00  0.00    -0.441 OA
ATOM     29  C   UNL     1       0.979   2.375  -6.597  0.00  0.00    +0.235 A 
ATOM     30  N   UNL     1       1.033   1.207  -5.938  0.00  0.00    -0.198 NA
ATOM     31  C   UNL     1      -0.449   5.355  -8.185  0.00  0.00    +0.087 C 
BRANCH  26  32
ATOM     32  C   UNL     1       2.665   5.188  -8.346  0.00  0.00    +0.391 C 
ATOM     33  O   UNL     1       3.876   5.010  -8.344  0.00  0.00    -0.240 OA
ATOM     34  O   UNL     1       2.193   6.184  -8.878  0.00  0.00    -0.240 OA
ENDBRANCH  26  32
ENDBRANCH  19  20
ENDBRANCH  18  19
ENDBRANCH   2  18
TORSDOF 7
