REMARK  Name = ZINC24775876
REMARK  9 active torsions:
REMARK  status: ('A' for Active; 'I' for Inactive)
REMARK    1  A    between atoms: C_1  and  C_2
REMARK    2  A    between atoms: C_5  and  N_8
REMARK    3  A    between atoms: C_12  and  C_13
REMARK    4  A    between atoms: C_23  and  S_24
REMARK    5  A    between atoms: S_24  and  C_25
REMARK    6  A    between atoms: C_25  and  C_26
REMARK    7  A    between atoms: N_28  and  C_29
REMARK    8  A    between atoms: C_31  and  C_35
REMARK    9  A    between atoms: N_33  and  C_34
REMARK                            x       y       z     vdW  Elec       q    Type
REMARK                         _______ _______ _______ _____ _____    ______ ____
ROOT
ATOM      1  N   UNL     1       5.525   2.266   7.082  0.00  0.00    -0.214 N 
ATOM      2  C   UNL     1       6.848   2.063   6.894  0.00  0.00    +0.275 C 
ATOM      3  O   UNL     1       7.740   2.219   7.707  0.00  0.00    -0.268 OA
ATOM      4  C   UNL     1       6.982   1.616   5.495  0.00  0.00    +0.129 C 
ATOM      5  C   UNL     1       8.146   1.291   4.838  0.00  0.00    +0.041 C 
ATOM      6  N   UNL     1       5.714   1.593   4.985  0.00  0.00    -0.220 NA
ATOM      7  C   UNL     1       4.871   1.968   5.911  0.00  0.00    +0.169 C 
ENDROOT
BRANCH   5   8
ATOM      8  C   UNL     1       8.092   0.752   3.476  0.00  0.00    -0.019 A 
ATOM      9  C   UNL     1       9.261   0.295   2.853  0.00  0.00    +0.012 A 
ATOM     10  C   UNL     1       9.207  -0.211   1.574  0.00  0.00    +0.050 A 
ATOM     11  C   UNL     1       7.995  -0.272   0.896  0.00  0.00    +0.166 A 
ATOM     12  C   UNL     1       6.826   0.181   1.509  0.00  0.00    +0.167 A 
ATOM     13  C   UNL     1       6.870   0.686   2.793  0.00  0.00    +0.057 A 
ATOM     14  O   UNL     1       5.786   0.013   0.640  0.00  0.00    -0.453 OA
ATOM     15  C   UNL     1       6.392  -0.164  -0.654  0.00  0.00    +0.466 C 
ATOM     16  O   UNL     1       7.684  -0.722  -0.354  0.00  0.00    -0.453 OA
ENDBRANCH   5   8
BRANCH   1  21
ATOM     17  C   UNL     1       3.087   4.038  11.891  0.00  0.00    +0.044 C 
ATOM     18  C   UNL     1       3.734   3.567  10.614  0.00  0.00    -0.050 A 
ATOM     19  C   UNL     1       4.520   2.430  10.617  0.00  0.00    +0.005 A 
ATOM     20  C   UNL     1       5.115   1.996   9.449  0.00  0.00    +0.024 A 
ATOM     21  C   UNL     1       4.923   2.704   8.270  0.00  0.00    +0.044 A 
ATOM     22  C   UNL     1       4.138   3.849   8.271  0.00  0.00    +0.024 A 
ATOM     23  C   UNL     1       3.541   4.274   9.442  0.00  0.00    +0.005 A 
ENDBRANCH   1  21
BRANCH   7  24
ATOM     24  S   UNL     1       3.127   2.083   5.685  0.00  0.00    -0.080 S 
BRANCH  24  25
ATOM     25  C   UNL     1       2.999   1.562   3.957  0.00  0.00    +0.173 C 
BRANCH  25  26
ATOM     26  C   UNL     1       1.554   1.584   3.531  0.00  0.00    +0.229 C 
ATOM     27  O   UNL     1       0.694   1.918   4.319  0.00  0.00    -0.275 OA
ATOM     28  N   UNL     1       1.215   1.231   2.275  0.00  0.00    -0.270 N 
ATOM     29  H   UNL     1       1.994   0.928   1.560  0.00  0.00    +0.156 HD
BRANCH  28  30
ATOM     30  C   UNL     1      -0.123   1.251   1.881  0.00  0.00    +0.123 A 
ATOM     31  C   UNL     1      -1.184   1.603   2.657  0.00  0.00    +0.068 A 
ATOM     32  C   UNL     1      -2.340   1.486   1.880  0.00  0.00    +0.062 A 
ATOM     33  N   UNL     1      -1.992   1.085   0.684  0.00  0.00    -0.175 NA
ATOM     34  N   UNL     1      -0.601   0.924   0.659  0.00  0.00    -0.253 N 
ATOM     35  C   UNL     1       0.196   0.485  -0.489  0.00  0.00    +0.174 C 
ATOM     36  C   UNL     1      -3.745   1.777   2.340  0.00  0.00    +0.067 C 
ENDBRANCH  28  30
ENDBRANCH  25  26
ENDBRANCH  24  25
ENDBRANCH   7  24
TORSDOF 6
