REMARK  Name = ZINC09462616
REMARK  4 active torsions:
REMARK  status: ('A' for Active; 'I' for Inactive)
REMARK    1  A    between atoms: N_13  and  C_17
REMARK    2  A    between atoms: C_17  and  C_18
REMARK    3  A    between atoms: N_20  and  C_21
REMARK    4  A    between atoms: C_24  and  C_27
REMARK                            x       y       z     vdW  Elec       q    Type
REMARK                         _______ _______ _______ _____ _____    ______ ____
ROOT
ATOM      1  C   UNL     1      -3.168  -4.675   0.725  0.00  0.00    +0.000 A 
ATOM      2  C   UNL     1      -2.400  -3.931  -0.152  0.00  0.00    +0.000 A 
ATOM      3  C   UNL     1      -2.710  -2.606  -0.380  0.00  0.00    +0.006 A 
ATOM      4  C   UNL     1      -3.787  -2.012   0.264  0.00  0.00    -0.012 A 
ATOM      5  C   UNL     1      -4.554  -2.754   1.136  0.00  0.00    -0.042 A 
ATOM      6  C   UNL     1      -4.239  -4.087   1.365  0.00  0.00    +0.004 A 
ATOM      7  C   UNL     1      -5.740  -2.175   1.862  0.00  0.00    +0.035 C 
ATOM      8  C   UNL     1      -5.679  -0.649   1.863  0.00  0.00    +0.008 C 
ATOM      9  C   UNL     1      -5.474  -0.171   0.420  0.00  0.00    +0.040 C 
ATOM     10  C   UNL     1      -4.071  -0.564  -0.023  0.00  0.00    +0.138 C 
ATOM     11  C   UNL     1      -3.041   0.314   0.652  0.00  0.00    +0.251 C 
ATOM     12  O   UNL     1      -2.826   0.411   1.841  0.00  0.00    -0.272 OA
ATOM     13  N   UNL     1      -2.410   0.965  -0.347  0.00  0.00    -0.215 N 
ATOM     14  C   UNL     1      -2.901   0.624  -1.544  0.00  0.00    +0.310 C 
ATOM     15  O   UNL     1      -2.498   1.083  -2.595  0.00  0.00    -0.252 OA
ATOM     16  N   UNL     1      -3.890  -0.285  -1.455  0.00  0.00    -0.281 N 
ATOM     17  H   UNL     1      -4.387  -0.676  -2.190  0.00  0.00    +0.152 HD
ENDROOT
BRANCH  13  18
ATOM     18  C   UNL     1      -1.325   1.929  -0.145  0.00  0.00    +0.214 C 
BRANCH  18  19
ATOM     19  C   UNL     1      -0.002   1.208  -0.161  0.00  0.00    +0.235 C 
ATOM     20  O   UNL     1       0.032   0.006  -0.324  0.00  0.00    -0.274 OA
ATOM     21  N   UNL     1       1.143   1.898   0.001  0.00  0.00    -0.284 N 
ATOM     22  H   UNL     1       1.123   2.867   0.055  0.00  0.00    +0.155 HD
BRANCH  21  23
ATOM     23  C   UNL     1       2.362   1.219   0.092  0.00  0.00    +0.033 A 
ATOM     24  C   UNL     1       2.416  -0.031   0.697  0.00  0.00    +0.024 A 
ATOM     25  C   UNL     1       3.615  -0.705   0.783  0.00  0.00    +0.012 A 
ATOM     26  C   UNL     1       4.778  -0.126   0.272  0.00  0.00    +0.007 A 
ATOM     27  C   UNL     1       4.721   1.132  -0.331  0.00  0.00    +0.012 A 
ATOM     28  C   UNL     1       3.518   1.799  -0.419  0.00  0.00    +0.024 A 
BRANCH  26  29
ATOM     29  C   UNL     1       6.066  -0.844   0.367  0.00  0.00    +0.108 A 
ATOM     30  N   UNL     1       6.331  -2.031   0.894  0.00  0.00    -0.247 NA
ATOM     31  C   UNL     1       7.549  -2.521   0.893  0.00  0.00    +0.119 A 
ATOM     32  C   UNL     1       8.566  -1.806   0.343  0.00  0.00    +0.067 A 
ATOM     33  S   UNL     1       7.687  -0.348  -0.203  0.00  0.00    -0.076 S 
ENDBRANCH  26  29
ENDBRANCH  21  23
ENDBRANCH  18  19
ENDBRANCH  13  18
TORSDOF 4
