REMARK  Name = ZINC57869146
REMARK  6 active torsions:
REMARK  status: ('A' for Active; 'I' for Inactive)
REMARK    1  A    between atoms: C_1  and  C_2
REMARK    2  A    between atoms: C_5  and  C_8
REMARK    3  A    between atoms: N_16  and  C_17
REMARK    4  A    between atoms: C_17  and  C_18
REMARK    5  A    between atoms: C_18  and  C_19
REMARK    6  A    between atoms: C_19  and  C_20
REMARK                            x       y       z     vdW  Elec       q    Type
REMARK                         _______ _______ _______ _____ _____    ______ ____
ROOT
ATOM      1  C   UNL     1       0.051  -4.252  -0.018  0.00  0.00    +0.142 A 
ATOM      2  N   UNL     1      -0.302  -5.005  -1.030  0.00  0.00    -0.227 NA
ATOM      3  C   UNL     1      -0.149  -6.311  -0.702  0.00  0.00    +0.093 A 
ATOM      4  C   UNL     1      -0.374  -7.506  -1.395  0.00  0.00    +0.079 A 
ATOM      5  C   UNL     1      -0.119  -8.715  -0.781  0.00  0.00    +0.168 A 
ATOM      6  C   UNL     1       0.363  -8.752   0.531  0.00  0.00    +0.168 A 
ATOM      7  C   UNL     1       0.589  -7.577   1.223  0.00  0.00    +0.077 A 
ATOM      8  C   UNL     1       0.336  -6.355   0.616  0.00  0.00    +0.073 A 
ATOM      9  N   UNL     1       0.460  -5.040   1.025  0.00  0.00    -0.323 N 
ATOM     10  O   UNL     1       0.529 -10.058   0.895  0.00  0.00    -0.453 OA
ATOM     11  C   UNL     1      -0.240 -10.822  -0.051  0.00  0.00    +0.466 C 
ATOM     12  O   UNL     1      -0.252  -9.998  -1.231  0.00  0.00    -0.453 OA
ENDROOT
BRANCH   1  17
ATOM     13  C   UNL     1      -0.074   1.502   0.031  0.00  0.00    +0.044 C 
ATOM     14  C   UNL     1      -0.042  -0.005   0.018  0.00  0.00    -0.050 A 
ATOM     15  C   UNL     1      -0.008  -0.683  -1.187  0.00  0.00    +0.004 A 
ATOM     16  C   UNL     1       0.022  -2.062  -1.206  0.00  0.00    +0.012 A 
ATOM     17  C   UNL     1       0.019  -2.773  -0.005  0.00  0.00    +0.017 A 
ATOM     18  C   UNL     1      -0.014  -2.083   1.207  0.00  0.00    +0.012 A 
ATOM     19  C   UNL     1      -0.039  -0.704   1.212  0.00  0.00    +0.004 A 
ENDBRANCH   1  17
BRANCH   9  20
ATOM     20  C   UNL     1       0.936  -4.576   2.330  0.00  0.00    +0.125 C 
BRANCH  20  21
ATOM     21  C   UNL     1      -0.230  -4.555   3.321  0.00  0.00    +0.036 C 
BRANCH  21  22
ATOM     22  C   UNL     1       0.268  -4.071   4.684  0.00  0.00    +0.120 C 
BRANCH  22  23
ATOM     23  C   UNL     1      -0.854  -4.050   5.637  0.00  0.00    +0.063 C 
ATOM     24  N   UNL     1      -1.720  -4.034   6.372  0.00  0.00    -0.197 NA
ENDBRANCH  22  23
ENDBRANCH  21  22
ENDBRANCH  20  21
ENDBRANCH   9  20
TORSDOF 5
