REMARK  Name = ZINC11094159
REMARK  10 active torsions:
REMARK  status: ('A' for Active; 'I' for Inactive)
REMARK    1  A    between atoms: C_1  and  C_2
REMARK    2  A    between atoms: C_7  and  N_8
REMARK    3  A    between atoms: C_9  and  C_11
REMARK    4  A    between atoms: C_11  and  C_13
REMARK    5  A    between atoms: C_11  and  N_54
REMARK    6  A    between atoms: C_14  and  C_16
REMARK    7  A    between atoms: C_14  and  C_26
REMARK    8  A    between atoms: C_14  and  N_54
REMARK    9  A    between atoms: C_26  and  C_27
REMARK   10  A    between atoms: C_26  and  C_28
REMARK                            x       y       z     vdW  Elec       q    Type
REMARK                         _______ _______ _______ _____ _____    ______ ____
ROOT
ATOM      1  N   UNL     1      -4.724  -0.104  -0.849  0.00  0.00    +0.391 N 
ATOM      2  H   UNL     1      -5.666  -0.245  -0.465  0.00  0.00    -0.084 HD
ATOM      3  H   UNL     1      -4.504   0.898  -0.859  0.00  0.00    -0.084 HD
ENDROOT
BRANCH   1   4
ATOM      4  C   UNL     1      -4.677  -0.626  -2.228  0.00  0.00    +0.014 C 
ATOM      5  C   UNL     1      -5.657  -1.793  -2.365  0.00  0.00    -0.004 C 
BRANCH   4   7
ATOM      6  N   UNL     1      -5.098   0.227  -4.511  0.00  0.00    -0.287 N 
ATOM      7  C   UNL     1      -5.065   0.470  -3.186  0.00  0.00    +0.203 C 
ATOM      8  O   UNL     1      -5.347   1.572  -2.764  0.00  0.00    -0.277 OA
ATOM      9  H   UNL     1      -4.928  -0.668  -4.844  0.00  0.00    +0.155 HD
BRANCH   6  16
ATOM     10  C   UNL     1      -4.125   0.004  -7.175  0.00  0.00    +0.045 C 
ATOM     11  C   UNL     1      -4.923   1.197  -6.716  0.00  0.00    -0.029 A 
ATOM     12  C   UNL     1      -5.201   2.224  -7.597  0.00  0.00    +0.006 A 
ATOM     13  C   UNL     1      -5.933   3.318  -7.178  0.00  0.00    +0.020 A 
ATOM     14  C   UNL     1      -6.390   3.390  -5.873  0.00  0.00    +0.043 A 
ATOM     15  C   UNL     1      -6.120   2.364  -4.988  0.00  0.00    +0.043 A 
ATOM     16  C   UNL     1      -5.379   1.266  -5.406  0.00  0.00    +0.038 A 
ATOM     17 CL   UNL     1      -7.309   4.767  -5.349  0.00  0.00    -0.083 Cl
ENDBRANCH   6  16
ENDBRANCH   4   7
ENDBRANCH   1   4
BRANCH   1  18
ATOM     18  C   UNL     1      -3.743  -0.809  -0.001  0.00  0.00    -0.037 C 
BRANCH  18  19
ATOM     19  C   UNL     1      -2.424  -0.082  -0.050  0.00  0.00    -0.057 A 
ATOM     20  C   UNL     1      -2.397   1.300  -0.047  0.00  0.00    +0.006 A 
ATOM     21  C   UNL     1      -1.189   1.970  -0.095  0.00  0.00    +0.049 A 
ATOM     22  C   UNL     1      -0.000   1.257  -0.141  0.00  0.00    +0.162 A 
ATOM     23  C   UNL     1      -0.027  -0.133  -0.143  0.00  0.00    +0.162 A 
ATOM     24  C   UNL     1      -1.243  -0.799  -0.098  0.00  0.00    +0.051 A 
ATOM     25  O   UNL     1       1.127  -0.852  -0.187  0.00  0.00    -0.485 OA
ATOM     26  C   UNL     1       2.304  -0.154  -0.610  0.00  0.00    +0.270 C 
ATOM     27  C   UNL     1       2.361   1.187   0.135  0.00  0.00    +0.270 C 
ATOM     28  O   UNL     1       1.181   1.931  -0.191  0.00  0.00    -0.485 OA
ENDBRANCH  18  19
BRANCH  18  29
ATOM     29  C   UNL     1      -4.256  -0.840   1.440  0.00  0.00    -0.027 C 
ATOM     30  C   UNL     1      -3.301  -1.668   2.303  0.00  0.00    +0.006 C 
ATOM     31  C   UNL     1      -4.329   0.587   1.986  0.00  0.00    +0.006 C 
ENDBRANCH  18  29
ENDBRANCH   1  18
TORSDOF 6
