REMARK  Name = ZINC39702089
REMARK  6 active torsions:
REMARK  status: ('A' for Active; 'I' for Inactive)
REMARK    1  A    between atoms: C_4  and  C_10
REMARK    2  A    between atoms: N_11  and  C_12
REMARK    3  A    between atoms: C_15  and  C_18
REMARK    4  A    between atoms: C_18  and  C_19
REMARK    5  A    between atoms: C_22  and  N_25
REMARK    6  A    between atoms: C_26  and  C_27
REMARK                            x       y       z     vdW  Elec       q    Type
REMARK                         _______ _______ _______ _____ _____    ______ ____
ROOT
ATOM      1  C   UNL     1       6.957   9.051  -0.019  0.00  0.00    +0.070 C 
ENDROOT
BRANCH   1   5
ATOM      2  C   UNL     1       5.741   4.950  -0.029  0.00  0.00    +0.064 A 
ATOM      3  C   UNL     1       5.108   5.875  -0.870  0.00  0.00    +0.028 A 
ATOM      4  C   UNL     1       5.506   7.194  -0.861  0.00  0.00    +0.006 A 
ATOM      5  C   UNL     1       6.529   7.606  -0.022  0.00  0.00    -0.043 A 
ATOM      6  C   UNL     1       7.160   6.699   0.812  0.00  0.00    +0.006 A 
ATOM      7  C   UNL     1       6.770   5.378   0.820  0.00  0.00    +0.028 A 
BRANCH   2   9
ATOM      8  C   UNL     1       4.079   3.341  -0.021  0.00  0.00    +0.117 C 
ATOM      9  N   UNL     1       5.354   3.646  -0.031  0.00  0.00    -0.255 NA
BRANCH   8  13
ATOM     10  C   UNL     1      -0.017   1.396   0.010  0.00  0.00    +0.001 A 
ATOM     11  C   UNL     1       1.116   2.136   0.003  0.00  0.00    +0.010 A 
ATOM     12  C   UNL     1       2.380   1.503  -0.013  0.00  0.00    +0.004 A 
ATOM     13  C   UNL     1       3.679   1.992  -0.023  0.00  0.00    -0.001 C 
ATOM     14  C   UNL     1       4.574   0.773  -0.039  0.00  0.00    +0.150 C 
ATOM     15  N   UNL     1       3.678  -0.388  -0.036  0.00  0.00    -0.380 N 
ATOM     16  C   UNL     1       2.435   0.026  -0.021  0.00  0.00    +0.043 A 
ATOM     17  C   UNL     1       1.161  -0.703  -0.013  0.00  0.00    +0.026 A 
ATOM     18  C   UNL     1       0.002  -0.004   0.002  0.00  0.00    +0.002 A 
ATOM     19  H   UNL     1       3.961  -1.316  -0.044  0.00  0.00    +0.160 HD
ENDBRANCH   8  13
ENDBRANCH   2   9
ENDBRANCH   1   5
BRANCH   1  20
ATOM     20  C   UNL     1       6.151   9.812   1.002  0.00  0.00    -0.043 A 
ATOM     21  C   UNL     1       4.954  10.402   0.633  0.00  0.00    +0.006 A 
ATOM     22  C   UNL     1       4.210  11.100   1.560  0.00  0.00    +0.028 A 
ATOM     23  C   UNL     1       4.669  11.211   2.879  0.00  0.00    +0.064 A 
ATOM     24  C   UNL     1       5.881  10.611   3.244  0.00  0.00    +0.028 A 
ATOM     25  C   UNL     1       6.609   9.912   2.305  0.00  0.00    +0.006 A 
BRANCH  23  26
ATOM     26  N   UNL     1       3.942  11.898   3.801  0.00  0.00    -0.255 NA
ATOM     27  C   UNL     1       3.754  11.394   4.996  0.00  0.00    +0.117 C 
BRANCH  27  28
ATOM     28  C   UNL     1       3.002  12.105   5.949  0.00  0.00    -0.001 C 
ATOM     29  C   UNL     1       2.716  11.717   7.250  0.00  0.00    +0.004 A 
ATOM     30  C   UNL     1       1.898  12.772   7.886  0.00  0.00    +0.043 A 
ATOM     31  N   UNL     1       1.683  13.754   7.046  0.00  0.00    -0.380 N 
ATOM     32  C   UNL     1       2.342  13.454   5.771  0.00  0.00    +0.150 C 
ATOM     33  C   UNL     1       1.480  12.565   9.277  0.00  0.00    +0.026 A 
ATOM     34  C   UNL     1       1.855  11.431   9.916  0.00  0.00    +0.002 A 
ATOM     35  C   UNL     1       2.631  10.450   9.286  0.00  0.00    +0.001 A 
ATOM     36  C   UNL     1       3.053  10.571   8.007  0.00  0.00    +0.010 A 
ATOM     37  H   UNL     1       1.171  14.556   7.239  0.00  0.00    +0.160 HD
ENDBRANCH  27  28
ENDBRANCH  23  26
ENDBRANCH   1  20
TORSDOF 6
