REMARK  Name = ZINC36227021
REMARK  6 active torsions:
REMARK  status: ('A' for Active; 'I' for Inactive)
REMARK    1  A    between atoms: C_1  and  C_2
REMARK    2  A    between atoms: C_3  and  N_17
REMARK    3  A    between atoms: C_4  and  N_8
REMARK    4  A    between atoms: N_5  and  C_7
REMARK    5  A    between atoms: C_12  and  C_15
REMARK    6  A    between atoms: C_15  and  O_16
REMARK                            x       y       z     vdW  Elec       q    Type
REMARK                         _______ _______ _______ _____ _____    ______ ____
ROOT
ATOM      1  C   UNL     1      -1.541   0.632   1.177  0.00  0.00    +0.069 C 
ATOM      2  C   UNL     1      -0.648  -0.376   0.501  0.00  0.00    +0.082 A 
ATOM      3  C   UNL     1      -1.075  -1.429  -0.317  0.00  0.00    +0.088 A 
ATOM      4  C   UNL     1       0.032  -2.109  -0.733  0.00  0.00    +0.140 A 
ATOM      5  N   UNL     1       1.117  -1.495  -0.188  0.00  0.00    -0.252 N 
ATOM      6  N   UNL     1       0.659  -0.412   0.574  0.00  0.00    -0.173 NA
ATOM      7  C   UNL     1       2.515  -1.892  -0.370  0.00  0.00    +0.174 C 
ENDROOT
BRANCH   4   8
ATOM      8  N   UNL     1       0.049  -3.231  -1.566  0.00  0.00    -0.314 N 
ATOM      9  C   UNL     1       0.174  -3.080  -3.022  0.00  0.00    +0.106 C 
ATOM     10  C   UNL     1      -0.978  -3.832  -3.696  0.00  0.00    +0.019 C 
ATOM     11  C   UNL     1      -0.986  -5.284  -3.213  0.00  0.00    +0.009 C 
ATOM     12  C   UNL     1      -1.207  -5.319  -1.699  0.00  0.00    +0.032 C 
ATOM     13  C   UNL     1      -0.052  -4.584  -1.002  0.00  0.00    +0.112 C 
BRANCH  12  14
ATOM     14  C   UNL     1      -1.249  -6.772  -1.222  0.00  0.00    +0.160 C 
BRANCH  14  15
ATOM     15  O   UNL     1      -2.388  -7.426  -1.785  0.00  0.00    -0.395 OA
ATOM     16  H   UNL     1      -2.477  -8.353  -1.525  0.00  0.00    +0.209 HD
ENDBRANCH  14  15
ENDBRANCH  12  14
ENDBRANCH   4   8
BRANCH   3  17
ATOM     17  N   UNL     1      -2.414  -1.734  -0.651  0.00  0.00    -0.354 N 
ATOM     18  H   UNL     1      -3.141  -1.243  -0.237  0.00  0.00    +0.142 HD
ATOM     19  H   UNL     1      -2.606  -2.434  -1.294  0.00  0.00    +0.142 HD
ENDBRANCH   3  17
TORSDOF 4
