REMARK  Name = ZINC30823379
REMARK  3 active torsions:
REMARK  status: ('A' for Active; 'I' for Inactive)
REMARK    1  A    between atoms: C_1  and  C_2
REMARK    2  A    between atoms: C_5  and  C_8
REMARK    3  A    between atoms: C_11  and  C_13
REMARK                            x       y       z     vdW  Elec       q    Type
REMARK                         _______ _______ _______ _____ _____    ______ ____
ROOT
ATOM      1  C   UNL     1      -0.016   1.308   0.009  0.00  0.00    +0.249 A 
ATOM      2  N   UNL     1       0.002  -0.004   0.002  0.00  0.00    -0.107 NA
ATOM      3  N   UNL     1       1.222  -0.412  -0.012  0.00  0.00    -0.108 NA
ATOM      4  C   UNL     1       2.025   0.616  -0.014  0.00  0.00    +0.268 A 
ATOM      5  O   UNL     1       1.266   1.725  -0.001  0.00  0.00    -0.416 OA
ENDROOT
BRANCH   1  10
ATOM      6  C   UNL     1      -4.695   4.658   0.053  0.00  0.00    +0.044 C 
ATOM      7  C   UNL     1      -3.469   3.781   0.041  0.00  0.00    -0.050 A 
ATOM      8  C   UNL     1      -3.608   2.404   0.034  0.00  0.00    +0.004 A 
ATOM      9  C   UNL     1      -2.490   1.595   0.024  0.00  0.00    +0.013 A 
ATOM     10  C   UNL     1      -1.218   2.169   0.020  0.00  0.00    +0.038 A 
ATOM     11  C   UNL     1      -1.085   3.558   0.032  0.00  0.00    +0.013 A 
ATOM     12  C   UNL     1      -2.211   4.356   0.037  0.00  0.00    +0.004 A 
ENDBRANCH   1  10
BRANCH   4  13
ATOM     13  C   UNL     1       3.531   0.568  -0.029  0.00  0.00    +0.268 C 
ATOM     14 CL   UNL     1       4.077  -1.143  -0.191  0.00  0.00    -0.073 Cl
ATOM     15 CL   UNL     1       4.149   1.531  -1.423  0.00  0.00    -0.073 Cl
ATOM     16 CL   UNL     1       4.170   1.259   1.509  0.00  0.00    -0.073 Cl
ENDBRANCH   4  13
TORSDOF 2
