REMARK  Name = ZINC63579813
REMARK  6 active torsions:
REMARK  status: ('A' for Active; 'I' for Inactive)
REMARK    1  A    between atoms: C_1  and  C_2
REMARK    2  A    between atoms: C_2  and  C_3
REMARK    3  A    between atoms: C_2  and  O_6
REMARK    4  A    between atoms: O_6  and  C_7
REMARK    5  A    between atoms: C_11  and  C_13
REMARK    6  A    between atoms: C_19  and  C_24
REMARK                            x       y       z     vdW  Elec       q    Type
REMARK                         _______ _______ _______ _____ _____    ______ ____
ROOT
ATOM      1  C   UNL     1      -5.362  -1.477  -2.544  0.00  0.00    +0.142 A 
ATOM      2  N   UNL     1      -5.976  -1.586  -3.761  0.00  0.00    -0.306 N 
ATOM      3  H   UNL     1      -5.470  -1.405  -4.568  0.00  0.00    +0.170 HD
ATOM      4  C   UNL     1      -7.270  -1.941  -3.858  0.00  0.00    +0.261 A 
ATOM      5  O   UNL     1      -7.805  -2.035  -4.949  0.00  0.00    -0.267 OA
ATOM      6  C   UNL     1      -8.011  -2.207  -2.663  0.00  0.00    +0.083 A 
ATOM      7  C   UNL     1      -9.408  -2.602  -2.515  0.00  0.00    +0.039 A 
ATOM      8  C   UNL     1      -9.899  -2.802  -1.265  0.00  0.00    +0.059 A 
ATOM      9  S   UNL     1      -8.501  -2.465  -0.212  0.00  0.00    -0.076 S 
ATOM     10  C   UNL     1      -7.301  -2.069  -1.458  0.00  0.00    +0.116 A 
ATOM     11  N   UNL     1      -6.020  -1.721  -1.431  0.00  0.00    -0.222 NA
ENDROOT
BRANCH   1  16
ATOM     12  C   UNL     1      -1.966  -0.607  -1.189  0.00  0.00    +0.122 A 
ATOM     13  C   UNL     1      -1.268  -0.348  -2.361  0.00  0.00    +0.046 A 
ATOM     14  C   UNL     1      -1.900  -0.457  -3.586  0.00  0.00    +0.004 A 
ATOM     15  C   UNL     1      -3.229  -0.823  -3.652  0.00  0.00    +0.012 A 
ATOM     16  C   UNL     1      -3.939  -1.085  -2.478  0.00  0.00    +0.021 A 
ATOM     17  C   UNL     1      -3.297  -0.980  -1.243  0.00  0.00    +0.057 A 
BRANCH  12  18
ATOM     18  O   UNL     1      -1.339  -0.499   0.012  0.00  0.00    -0.478 OA
BRANCH  18  20
ATOM     19  C   UNL     1       0.290   1.280  -0.135  0.00  0.00    +0.064 C 
ATOM     20  C   UNL     1       0.064  -0.228  -0.010  0.00  0.00    +0.282 C 
BRANCH  20  21
ATOM     21  C   UNL     1       0.693  -0.727   1.265  0.00  0.00    +0.395 C 
ATOM     22  O   UNL     1      -0.008  -1.181   2.153  0.00  0.00    -0.242 OA
ATOM     23  O   UNL     1       1.903  -0.675   1.409  0.00  0.00    -0.242 OA
ENDBRANCH  20  21
ENDBRANCH  18  20
ENDBRANCH  12  18
ENDBRANCH   1  16
BRANCH   7  24
ATOM     24  C   UNL     1     -10.269  -2.782  -3.701  0.00  0.00    +0.136 A 
ATOM     25  C   UNL     1     -11.056  -3.861  -3.959  0.00  0.00    +0.050 A 
ATOM     26  C   UNL     1     -11.698  -3.610  -5.189  0.00  0.00    +0.042 A 
ATOM     27  C   UNL     1     -11.277  -2.404  -5.615  0.00  0.00    +0.196 A 
ATOM     28  O   UNL     1     -10.417  -1.904  -4.711  0.00  0.00    -0.463 OA
ENDBRANCH   7  24
TORSDOF 5
