REMARK  Name = ZINC20530577
REMARK  6 active torsions:
REMARK  status: ('A' for Active; 'I' for Inactive)
REMARK    1  A    between atoms: C_1  and  C_2
REMARK    2  A    between atoms: C_7  and  C_8
REMARK    3  A    between atoms: C_10  and  C_13
REMARK    4  A    between atoms: C_14  and  N_28
REMARK    5  A    between atoms: N_15  and  C_18
REMARK    6  A    between atoms: C_23  and  C_24
REMARK                            x       y       z     vdW  Elec       q    Type
REMARK                         _______ _______ _______ _____ _____    ______ ____
ROOT
ATOM      1  C   UNL     1       0.527   5.595  -0.009  0.00  0.00    +0.191 A 
ATOM      2  C   UNL     1       0.062   4.290  -0.072  0.00  0.00    +0.153 A 
ATOM      3  N   UNL     1       1.163   3.488  -0.009  0.00  0.00    -0.198 N 
ATOM      4  N   UNL     1       2.273   4.337   0.097  0.00  0.00    -0.058 NA
ATOM      5  N   UNL     1       1.868   5.558   0.088  0.00  0.00    -0.122 NA
ENDROOT
BRANCH   3   6
ATOM      6  C   UNL     1       1.180   2.087  -0.038  0.00  0.00    +0.081 A 
ATOM      7  C   UNL     1       0.515   1.403  -1.048  0.00  0.00    +0.028 A 
ATOM      8  C   UNL     1       0.534   0.023  -1.074  0.00  0.00    +0.002 A 
ATOM      9  C   UNL     1       1.216  -0.679  -0.097  0.00  0.00    +0.001 A 
ATOM     10  C   UNL     1       1.879  -0.002   0.910  0.00  0.00    +0.014 A 
ATOM     11  C   UNL     1       1.862   1.379   0.942  0.00  0.00    +0.080 A 
BRANCH  11  12
ATOM     12  C   UNL     1       2.584   2.116   2.040  0.00  0.00    +0.419 C 
ATOM     13  F   UNL     1       3.192   1.195   2.900  0.00  0.00    -0.166 F 
ATOM     14  F   UNL     1       3.562   2.946   1.480  0.00  0.00    -0.166 F 
ATOM     15  F   UNL     1       1.670   2.893   2.760  0.00  0.00    -0.166 F 
ENDBRANCH  11  12
ENDBRANCH   3   6
BRANCH   1  18
ATOM     16  C   UNL     1      -0.982   8.825  -0.049  0.00  0.00    +0.203 A 
ATOM     17  N   UNL     1       0.127   8.060   0.015  0.00  0.00    -0.186 NA
ATOM     18  C   UNL     1      -0.302   6.810  -0.043  0.00  0.00    +0.282 A 
ATOM     19  O   UNL     1      -1.641   6.864  -0.146  0.00  0.00    -0.331 OA
ATOM     20  N   UNL     1      -2.009   8.019  -0.142  0.00  0.00    -0.056 NA
BRANCH  16  27
ATOM     21  C   UNL     1      -3.533  10.181  -0.207  0.00  0.00    +0.044 C 
ATOM     22  C   UNL     1      -2.253  10.970  -0.095  0.00  0.00    -0.040 A 
ATOM     23  C   UNL     1      -2.292  12.350  -0.068  0.00  0.00    +0.004 A 
ATOM     24  C   UNL     1      -1.118  13.075   0.034  0.00  0.00    +0.000 A 
ATOM     25  C   UNL     1       0.099  12.423   0.109  0.00  0.00    +0.001 A 
ATOM     26  C   UNL     1       0.149  11.044   0.088  0.00  0.00    +0.012 A 
ATOM     27  C   UNL     1      -1.030  10.308  -0.020  0.00  0.00    +0.025 A 
ENDBRANCH  16  27
ENDBRANCH   1  18
BRANCH   2  28
ATOM     28  N   UNL     1      -1.255   3.883  -0.176  0.00  0.00    -0.341 N 
ATOM     29  H   UNL     1      -1.498   2.811  -0.218  0.00  0.00    +0.144 HD
ATOM     30  H   UNL     1      -2.061   4.631  -0.218  0.00  0.00    +0.144 HD
ENDBRANCH   2  28
TORSDOF 5
