REMARK  Name = ZINC22539027
REMARK  7 active torsions:
REMARK  status: ('A' for Active; 'I' for Inactive)
REMARK    1  A    between atoms: C_1  and  C_2
REMARK    2  A    between atoms: C_2  and  C_3
REMARK    3  A    between atoms: C_3  and  C_5
REMARK    4  A    between atoms: C_3  and  N_9
REMARK    5  A    between atoms: N_7  and  N_8
REMARK    6  A    between atoms: C_11  and  C_18
REMARK    7  A    between atoms: C_14  and  C_17
REMARK                            x       y       z     vdW  Elec       q    Type
REMARK                         _______ _______ _______ _____ _____    ______ ____
ROOT
ATOM      1  C   UNL     1       0.024   1.139   2.450  0.00  0.00    +0.144 C 
ENDROOT
BRANCH   1   2
ATOM      2  N   UNL     1      -1.024   1.640   1.551  0.00  0.00    -0.287 NA
ATOM      3  C   UNL     1      -2.297   0.939   1.781  0.00  0.00    +0.116 C 
ATOM      4  C   UNL     1      -3.373   1.531   0.867  0.00  0.00    +0.130 C 
ATOM      5  O   UNL     1      -2.941   1.436  -0.493  0.00  0.00    -0.371 OA
ATOM      6  C   UNL     1      -1.705   2.107  -0.753  0.00  0.00    +0.130 C 
ATOM      7  C   UNL     1      -0.613   1.521   0.145  0.00  0.00    +0.116 C 
ATOM      8  C   UNL     1      -1.318   1.916  -2.221  0.00  0.00    +0.039 C 
ATOM      9  C   UNL     1      -4.679   0.755   1.044  0.00  0.00    +0.039 C 
ENDBRANCH   1   2
BRANCH   1  10
ATOM     10  C   UNL     1       0.195  -0.344   2.246  0.00  0.00    +0.244 C 
ATOM     11  O   UNL     1      -0.215  -0.868   1.232  0.00  0.00    -0.273 OA
ATOM     12  N   UNL     1       0.805  -1.088   3.189  0.00  0.00    -0.252 N 
ATOM     13  H   UNL     1       1.178  -0.613   4.109  0.00  0.00    +0.169 HD
BRANCH  12  14
ATOM     14  N   UNL     1       0.961  -2.433   3.004  0.00  0.00    -0.254 NA
ATOM     15  H   UNL     1       1.476  -2.866   3.874  0.00  0.00    +0.140 HD
ATOM     16  H   UNL     1      -0.027  -2.904   2.891  0.00  0.00    +0.140 HD
ENDBRANCH  12  14
ENDBRANCH   1  10
BRANCH   1  18
ATOM     17  C   UNL     1       1.189   3.349   2.421  0.00  0.00    +0.006 C 
ATOM     18  C   UNL     1       1.342   1.852   2.144  0.00  0.00    +0.025 C 
ENDBRANCH   1  18
TORSDOF 4
