REMARK  Name = ZINC38536850
REMARK  4 active torsions:
REMARK  status: ('A' for Active; 'I' for Inactive)
REMARK    1  A    between atoms: C_1  and  C_2
REMARK    2  A    between atoms: C_8  and  C_10
REMARK    3  A    between atoms: C_10  and  S_11
REMARK    4  A    between atoms: S_11  and  C_12
REMARK                            x       y       z     vdW  Elec       q    Type
REMARK                         _______ _______ _______ _____ _____    ______ ____
ROOT
ATOM      1  C   UNL     1       0.131  -7.856   4.002  0.00  0.00    +0.205 C 
ATOM      2  N   UNL     1       0.122  -7.235   5.142  0.00  0.00    -0.233 NA
ATOM      3  C   UNL     1       0.138  -8.031   6.383  0.00  0.00    +0.220 C 
ATOM      4  C   UNL     1       0.140  -9.567   6.182  0.00  0.00    +0.173 C 
ATOM      5  C   UNL     1       1.450 -10.022   6.783  0.00  0.00    +0.001 A 
ATOM      6  C   UNL     1       2.002 -11.284   6.899  0.00  0.00    +0.007 A 
ATOM      7  C   UNL     1       3.236 -11.450   7.499  0.00  0.00    +0.000 A 
ATOM      8  C   UNL     1       3.919 -10.350   7.984  0.00  0.00    +0.002 A 
ATOM      9  C   UNL     1       3.372  -9.089   7.872  0.00  0.00    +0.023 A 
ATOM     10  C   UNL     1       2.126  -8.913   7.267  0.00  0.00    +0.034 A 
ATOM     11  N   UNL     1       1.397  -7.724   7.065  0.00  0.00    -0.320 N 
ATOM     12  N   UNL     1       0.119 -10.028   4.784  0.00  0.00    -0.295 N 
ATOM     13  N   UNL     1       0.149  -9.209   3.863  0.00  0.00    -0.151 NA
ATOM     14  H   UNL     1       1.682  -6.836   7.329  0.00  0.00    +0.148 HD
ATOM     15  H   UNL     1       0.124 -10.977   4.587  0.00  0.00    +0.183 HD
ENDROOT
BRANCH   1  16
ATOM     16  S   UNL     1       0.110  -6.881   2.534  0.00  0.00    -0.075 S 
BRANCH  16  17
ATOM     17  C   UNL     1       0.089  -5.172   3.144  0.00  0.00    +0.173 C 
BRANCH  17  25
ATOM     18  C   UNL     1      -0.018   1.503   0.010  0.00  0.00    +0.066 C 
ATOM     19  C   UNL     1       0.002  -0.004   0.002  0.00  0.00    +0.047 A 
ATOM     20  C   UNL     1       0.006  -0.706  -1.158  0.00  0.00    +0.071 A 
ATOM     21  S   UNL     1       0.032  -2.379  -0.535  0.00  0.00    -0.060 S 
ATOM     22  C   UNL     1       0.036  -2.015   1.108  0.00  0.00    +0.165 A 
ATOM     23  N   UNL     1       0.023  -0.700   1.124  0.00  0.00    -0.230 NA
ATOM     24  N   UNL     1       0.053  -2.891   2.187  0.00  0.00    -0.264 N 
ATOM     25  C   UNL     1       0.071  -4.222   1.974  0.00  0.00    +0.229 C 
ATOM     26  O   UNL     1       0.071  -4.655   0.841  0.00  0.00    -0.275 OA
ATOM     27  H   UNL     1       0.053  -2.545   3.093  0.00  0.00    +0.157 HD
ENDBRANCH  17  25
ENDBRANCH  16  17
ENDBRANCH   1  16
TORSDOF 3
