REMARK  Name = ZINC32575703
REMARK  8 active torsions:
REMARK  status: ('A' for Active; 'I' for Inactive)
REMARK    1  A    between atoms: C_1  and  C_2
REMARK    2  A    between atoms: C_5  and  S_9
REMARK    3  A    between atoms: C_6  and  C_8
REMARK    4  A    between atoms: S_9  and  N_12
REMARK    5  A    between atoms: N_12  and  N_13
REMARK    6  A    between atoms: C_14  and  C_15
REMARK    7  A    between atoms: C_18  and  O_22
REMARK    8  A    between atoms: C_19  and  O_21
REMARK                            x       y       z     vdW  Elec       q    Type
REMARK                         _______ _______ _______ _____ _____    ______ ____
ROOT
ATOM      1  N   UNL     1       1.298  -0.944   0.084  0.00  0.00    -0.137 N 
ATOM      2  H   UNL     1       0.455  -0.485  -0.052  0.00  0.00    +0.197 HD
ENDROOT
BRANCH   1   3
ATOM      3  S   UNL     1       1.320  -2.582   0.324  0.00  0.00    +0.087 S 
ATOM      4  O   UNL     1      -0.036  -2.996   0.422  0.00  0.00    -0.149 OA
ATOM      5  O   UNL     1       2.213  -3.123  -0.639  0.00  0.00    -0.149 OA
BRANCH   3  10
ATOM      6  C   UNL     1       3.816  -3.561   5.729  0.00  0.00    +0.044 C 
ATOM      7  C   UNL     1       3.192  -3.316   4.380  0.00  0.00    -0.050 A 
ATOM      8  C   UNL     1       1.868  -3.647   4.159  0.00  0.00    +0.005 A 
ATOM      9  C   UNL     1       1.296  -3.423   2.921  0.00  0.00    +0.029 A 
ATOM     10  C   UNL     1       2.048  -2.868   1.903  0.00  0.00    +0.113 A 
ATOM     11  C   UNL     1       3.373  -2.541   2.121  0.00  0.00    -0.024 A 
ATOM     12  C   UNL     1       3.944  -2.760   3.361  0.00  0.00    +0.008 A 
ATOM     13  C   UNL     1       4.195  -1.941   1.010  0.00  0.00    +0.046 C 
ENDBRANCH   3  10
ENDBRANCH   1   3
BRANCH   1  14
ATOM     14  N   UNL     1       2.498  -0.221   0.076  0.00  0.00    -0.174 NA
ATOM     15  C   UNL     1       2.474   1.076   0.059  0.00  0.00    +0.139 C 
BRANCH  15  16
ATOM     16  C   UNL     1       1.327   1.800   0.637  0.00  0.00    -0.002 A 
ATOM     17  C   UNL     1       1.201   3.178   0.449  0.00  0.00    +0.013 A 
ATOM     18  C   UNL     1       0.130   3.854   0.995  0.00  0.00    +0.050 A 
ATOM     19  C   UNL     1      -0.830   3.167   1.722  0.00  0.00    +0.158 A 
ATOM     20  C   UNL     1      -0.712   1.792   1.914  0.00  0.00    +0.159 A 
ATOM     21  C   UNL     1       0.362   1.109   1.374  0.00  0.00    +0.058 A 
BRANCH  20  22
ATOM     22  O   UNL     1      -1.653   1.122   2.631  0.00  0.00    -0.503 OA
ATOM     23  H   UNL     1      -1.559   0.037   2.783  0.00  0.00    +0.292 HD
ENDBRANCH  20  22
BRANCH  19  24
ATOM     24  O   UNL     1      -1.887   3.837   2.253  0.00  0.00    -0.503 OA
ATOM     25  H   UNL     1      -2.650   3.293   2.830  0.00  0.00    +0.292 HD
ENDBRANCH  19  24
ENDBRANCH  15  16
ENDBRANCH   1  14
TORSDOF 6
