REMARK  Name = ZINC63045348
REMARK  8 active torsions:
REMARK  status: ('A' for Active; 'I' for Inactive)
REMARK    1  A    between atoms: C_1  and  C_2
REMARK    2  A    between atoms: C_3  and  C_19
REMARK    3  A    between atoms: C_7  and  C_11
REMARK    4  A    between atoms: C_11  and  C_12
REMARK    5  A    between atoms: C_12  and  C_14
REMARK    6  A    between atoms: C_14  and  C_15
REMARK    7  A    between atoms: C_14  and  C_16
REMARK    8  A    between atoms: C_14  and  C_17
REMARK                            x       y       z     vdW  Elec       q    Type
REMARK                         _______ _______ _______ _____ _____    ______ ____
ROOT
ATOM      1  C   UNL     1       2.872   1.036   2.744  0.00  0.00    +0.045 C 
ATOM      2  C   UNL     1       2.643  -0.448   2.614  0.00  0.00    -0.030 A 
ATOM      3  C   UNL     1       3.675  -1.277   2.403  0.00  0.00    -0.008 A 
ATOM      4  S   UNL     1       2.911  -2.886   2.325  0.00  0.00    -0.074 S 
ATOM      5  C   UNL     1       1.224  -2.404   2.578  0.00  0.00    +0.112 A 
ATOM      6  C   UNL     1       1.302  -0.997   2.723  0.00  0.00    +0.032 A 
ATOM      7  C   UNL     1       0.071  -0.341   2.946  0.00  0.00    +0.054 A 
ATOM      8  N   UNL     1      -1.035  -1.050   3.008  0.00  0.00    -0.240 NA
ATOM      9  C   UNL     1      -1.041  -2.364   2.869  0.00  0.00    +0.222 A 
ATOM     10  N   UNL     1       0.073  -3.036   2.648  0.00  0.00    -0.228 NA
ATOM     11  C   UNL     1       5.136  -0.931   2.264  0.00  0.00    +0.052 C 
ENDROOT
BRANCH   7  12
ATOM     12  C   UNL     1       0.026   1.157   3.111  0.00  0.00    +0.071 C 
BRANCH  12  13
ATOM     13  C   UNL     1      -1.397   1.587   3.472  0.00  0.00    +0.068 C 
ATOM     14 BR   UNL     1      -2.596   1.220   1.958  0.00  0.00    -0.087 Br
BRANCH  13  15
ATOM     15  C   UNL     1      -1.414   3.084   3.784  0.00  0.00    -0.025 C 
ATOM     16  C   UNL     1      -0.940   3.866   2.558  0.00  0.00    +0.012 C 
ATOM     17  C   UNL     1      -2.837   3.515   4.145  0.00  0.00    +0.012 C 
ATOM     18  C   UNL     1      -0.481   3.370   4.963  0.00  0.00    +0.012 C 
ENDBRANCH  13  15
ENDBRANCH  12  13
ENDBRANCH   7  12
TORSDOF 3
