REMARK  Name = ZINC02656682
REMARK  8 active torsions:
REMARK  status: ('A' for Active; 'I' for Inactive)
REMARK    1  A    between atoms: C_1  and  C_2
REMARK    2  A    between atoms: C_7  and  C_8
REMARK    3  A    between atoms: C_8  and  C_9
REMARK    4  A    between atoms: C_8  and  C_10
REMARK    5  A    between atoms: C_11  and  C_14
REMARK    6  A    between atoms: C_14  and  C_15
REMARK    7  A    between atoms: N_17  and  N_18
REMARK    8  A    between atoms: C_19  and  C_21
REMARK                            x       y       z     vdW  Elec       q    Type
REMARK                         _______ _______ _______ _____ _____    ______ ____
ROOT
ATOM      1  C   UNL     1      -1.715  -2.705   1.165  0.00  0.00    +0.234 C 
ATOM      2  O   UNL     1      -1.289  -2.146   2.154  0.00  0.00    -0.274 OA
ATOM      3  N   UNL     1      -2.087  -3.998   1.230  0.00  0.00    -0.234 N 
ATOM      4  H   UNL     1      -2.428  -4.445   0.440  0.00  0.00    +0.173 HD
ENDROOT
BRANCH   3   5
ATOM      5  N   UNL     1      -1.982  -4.698   2.440  0.00  0.00    -0.231 N 
ATOM      6  C   UNL     1      -2.355  -5.992   2.505  0.00  0.00    +0.273 C 
ATOM      7  O   UNL     1      -2.781  -6.550   1.516  0.00  0.00    -0.270 OA
ATOM      8  H   UNL     1      -1.642  -4.251   3.230  0.00  0.00    +0.173 HD
BRANCH   6   9
ATOM      9  C   UNL     1      -2.242  -6.744   3.806  0.00  0.00    +0.297 C 
ATOM     10  C   UNL     1      -3.220  -6.154   4.831  0.00  0.00    +0.283 C 
ATOM     11  O   UNL     1      -3.097  -6.899   6.048  0.00  0.00    -0.484 OA
ATOM     12  C   UNL     1      -3.079  -8.255   5.935  0.00  0.00    +0.162 A 
ATOM     13  C   UNL     1      -3.322  -9.034   7.057  0.00  0.00    +0.049 A 
ATOM     14  C   UNL     1      -3.305 -10.412   6.959  0.00  0.00    +0.004 A 
ATOM     15  C   UNL     1      -3.045 -11.019   5.744  0.00  0.00    +0.004 A 
ATOM     16  C   UNL     1      -2.803 -10.248   4.623  0.00  0.00    +0.049 A 
ATOM     17  C   UNL     1      -2.820  -8.864   4.713  0.00  0.00    +0.163 A 
ATOM     18  O   UNL     1      -2.584  -8.119   3.599  0.00  0.00    -0.472 OA
ENDBRANCH   6   9
ENDBRANCH   3   5
BRANCH   1  19
ATOM     19  C   UNL     1      -1.828  -1.953  -0.136  0.00  0.00    +0.136 C 
BRANCH  19  27
ATOM     20  C   UNL     1       3.610   2.284  -0.001  0.00  0.00    +0.044 C 
ATOM     21  C   UNL     1       2.346   1.463  -0.003  0.00  0.00    -0.044 A 
ATOM     22  C   UNL     1       1.135   2.075   0.240  0.00  0.00    +0.050 A 
ATOM     23  C   UNL     1      -0.034   1.325   0.239  0.00  0.00    +0.135 A 
ATOM     24  C   UNL     1       0.035  -0.056  -0.011  0.00  0.00    +0.024 A 
ATOM     25  C   UNL     1       1.266  -0.663  -0.255  0.00  0.00    +0.016 A 
ATOM     26  C   UNL     1       2.413   0.100  -0.250  0.00  0.00    -0.041 A 
ATOM     27  C   UNL     1      -1.350  -0.537   0.060  0.00  0.00    +0.007 A 
ATOM     28  C   UNL     1      -2.105   0.536   0.333  0.00  0.00    +0.200 A 
ATOM     29  O   UNL     1      -1.331   1.631   0.444  0.00  0.00    -0.463 OA
BRANCH  26  30
ATOM     30  C   UNL     1       3.747  -0.550  -0.514  0.00  0.00    +0.013 C 
ATOM     31  C   UNL     1       4.075  -1.521   0.623  0.00  0.00    +0.012 C 
ATOM     32  C   UNL     1       3.688  -1.316  -1.837  0.00  0.00    +0.012 C 
ENDBRANCH  26  30
ENDBRANCH  19  27
ENDBRANCH   1  19
TORSDOF 5
