REMARK  Name = ZINC06409089
REMARK  9 active torsions:
REMARK  status: ('A' for Active; 'I' for Inactive)
REMARK    1  A    between atoms: C_1  and  C_2
REMARK    2  A    between atoms: C_9  and  C_14
REMARK    3  A    between atoms: C_14  and  C_16
REMARK    4  A    between atoms: C_14  and  N_71
REMARK    5  A    between atoms: N_20  and  C_21
REMARK    6  A    between atoms: C_27  and  C_28
REMARK    7  A    between atoms: C_27  and  N_71
REMARK    8  A    between atoms: C_33  and  C_34
REMARK    9  A    between atoms: C_33  and  N_71
REMARK                            x       y       z     vdW  Elec       q    Type
REMARK                         _______ _______ _______ _____ _____    ______ ____
ROOT
ATOM      1  C   UNL     1       5.526  -3.392   0.896  0.00  0.00    +0.039 C 
ENDROOT
BRANCH   1  10
ATOM      2  C   UNL     1       1.934   2.433  -2.068  0.00  0.00    +0.044 C 
ATOM      3  C   UNL     1       2.008   0.965  -1.734  0.00  0.00    -0.050 A 
ATOM      4  C   UNL     1       0.959   0.126  -2.088  0.00  0.00    +0.005 A 
ATOM      5  C   UNL     1       1.005  -1.219  -1.793  0.00  0.00    +0.026 A 
ATOM      6  C   UNL     1       2.113  -1.744  -1.136  0.00  0.00    +0.049 A 
ATOM      7  C   UNL     1       3.174  -0.891  -0.779  0.00  0.00    -0.001 A 
ATOM      8  C   UNL     1       3.106   0.471  -1.089  0.00  0.00    +0.013 A 
ATOM      9  C   UNL     1       4.335  -1.453  -0.088  0.00  0.00    +0.017 A 
ATOM     10  C   UNL     1       4.346  -2.781   0.186  0.00  0.00    +0.011 A 
ATOM     11  C   UNL     1       3.256  -3.594  -0.194  0.00  0.00    +0.251 A 
ATOM     12  O   UNL     1       3.286  -4.785   0.061  0.00  0.00    -0.268 OA
ATOM     13  N   UNL     1       2.185  -3.087  -0.829  0.00  0.00    -0.322 N 
ATOM     14  H   UNL     1       1.453  -3.673  -1.075  0.00  0.00    +0.169 HD
ENDBRANCH   1  10
BRANCH   1  15
ATOM     15  C   UNL     1       6.126  -4.474   0.036  0.00  0.00    +0.143 A 
ATOM     16  N   UNL     1       5.607  -5.652  -0.215  0.00  0.00    -0.115 NA
ATOM     17  N   UNL     1       6.417  -6.286  -0.990  0.00  0.00    -0.023 NA
ATOM     18  N   UNL     1       7.443  -5.547  -1.234  0.00  0.00    -0.044 NA
ATOM     19  N   UNL     1       7.301  -4.422  -0.619  0.00  0.00    -0.227 N 
BRANCH  19  20
ATOM     20  C   UNL     1       8.241  -3.298  -0.631  0.00  0.00    +0.111 C 
ATOM     21  C   UNL     1       8.331  -2.724  -2.046  0.00  0.00    +0.027 C 
ATOM     22  C   UNL     1       9.312  -1.551  -2.059  0.00  0.00    +0.002 C 
ATOM     23  C   UNL     1      10.694  -2.037  -1.617  0.00  0.00    +0.000 C 
ATOM     24  C   UNL     1      10.604  -2.611  -0.201  0.00  0.00    +0.002 C 
ATOM     25  C   UNL     1       9.622  -3.785  -0.189  0.00  0.00    +0.027 C 
ENDBRANCH  19  20
ENDBRANCH   1  15
BRANCH   1  26
ATOM     26  N   UNL     1       5.065  -3.991   2.167  0.00  0.00    +0.396 N 
ATOM     27  H   UNL     1       4.403  -4.747   1.958  0.00  0.00    -0.080 HD
BRANCH  26  28
ATOM     28  C   UNL     1       6.215  -4.550   2.908  0.00  0.00    -0.002 C 
BRANCH  28  29
ATOM     29  C   UNL     1       6.551  -5.900   2.330  0.00  0.00    +0.089 A 
ATOM     30  C   UNL     1       7.603  -6.177   1.538  0.00  0.00    +0.042 A 
ATOM     31  C   UNL     1       7.532  -7.555   1.231  0.00  0.00    +0.041 A 
ATOM     32  C   UNL     1       6.442  -8.038   1.853  0.00  0.00    +0.195 A 
ATOM     33  O   UNL     1       5.855  -7.032   2.522  0.00  0.00    -0.470 OA
ENDBRANCH  28  29
ENDBRANCH  26  28
BRANCH  26  34
ATOM     34  C   UNL     1       4.383  -2.969   2.989  0.00  0.00    -0.045 C 
BRANCH  34  35
ATOM     35  C   UNL     1       2.904  -2.937   2.596  0.00  0.00    +0.102 C 
ATOM     36  C   UNL     1       2.125  -1.969   3.515  0.00  0.00    +0.032 C 
ATOM     37  C   UNL     1       0.761  -2.664   3.723  0.00  0.00    +0.030 C 
ATOM     38  C   UNL     1       0.877  -3.970   2.905  0.00  0.00    +0.160 C 
ATOM     39  O   UNL     1       2.296  -4.227   2.820  0.00  0.00    -0.378 OA
ENDBRANCH  34  35
ENDBRANCH  26  34
ENDBRANCH   1  26
TORSDOF 8
