REMARK  Name = ZINC02305208
REMARK  11 active torsions:
REMARK  status: ('A' for Active; 'I' for Inactive)
REMARK    1  A    between atoms: C_1  and  C_2
REMARK    2  A    between atoms: C_2  and  N_3
REMARK    3  A    between atoms: N_3  and  C_4
REMARK    4  A    between atoms: N_3  and  C_6
REMARK    5  A    between atoms: C_4  and  C_5
REMARK    6  A    between atoms: C_9  and  N_12
REMARK    7  A    between atoms: N_12  and  C_13
REMARK    8  A    between atoms: N_19  and  C_22
REMARK    9  A    between atoms: C_23  and  C_30
REMARK   10  A    between atoms: C_25  and  C_29
REMARK   11  A    between atoms: C_27  and  C_28
REMARK                            x       y       z     vdW  Elec       q    Type
REMARK                         _______ _______ _______ _____ _____    ______ ____
ROOT
ATOM      1  C   UNL     1      -1.577  -1.858  -6.973  0.00  0.00    +0.090 C 
ATOM      2  C   UNL     1      -2.309  -2.191  -8.098  0.00  0.00    +0.113 C 
ATOM      3  C   UNL     1      -1.667  -2.783  -9.286  0.00  0.00    +0.258 C 
ATOM      4  N   UNL     1      -2.442  -3.083 -10.347  0.00  0.00    -0.235 N 
ATOM      5  C   UNL     1      -3.763  -2.853 -10.337  0.00  0.00    +0.320 C 
ATOM      6  O   UNL     1      -4.406  -3.146 -11.326  0.00  0.00    -0.251 OA
ATOM      7  N   UNL     1      -4.412  -2.319  -9.293  0.00  0.00    -0.189 N 
ATOM      8  C   UNL     1      -3.765  -1.976  -8.161  0.00  0.00    +0.265 C 
ATOM      9  O   UNL     1      -4.366  -1.496  -7.218  0.00  0.00    -0.269 OA
ATOM     10  O   UNL     1      -0.469  -2.996  -9.307  0.00  0.00    -0.270 OA
ATOM     11  H   UNL     1      -2.035  -3.473 -11.137  0.00  0.00    +0.159 HD
ENDROOT
BRANCH   7  12
ATOM     12  C   UNL     1      -5.797  -2.117  -9.378  0.00  0.00    +0.052 A 
ATOM     13  C   UNL     1      -6.296  -0.919  -9.872  0.00  0.00    -0.028 A 
ATOM     14  C   UNL     1      -7.661  -0.724  -9.955  0.00  0.00    +0.008 A 
ATOM     15  C   UNL     1      -8.529  -1.719  -9.546  0.00  0.00    -0.050 A 
ATOM     16  C   UNL     1      -8.035  -2.912  -9.053  0.00  0.00    +0.008 A 
ATOM     17  C   UNL     1      -6.671  -3.116  -8.974  0.00  0.00    -0.028 A 
ATOM     18  C   UNL     1      -6.133  -4.420  -8.443  0.00  0.00    +0.046 C 
ATOM     19  C   UNL     1     -10.018  -1.502  -9.637  0.00  0.00    +0.044 C 
ATOM     20  C   UNL     1      -5.350   0.166 -10.318  0.00  0.00    +0.046 C 
ENDBRANCH   7  12
BRANCH   1  21
ATOM     21  N   UNL     1      -2.209  -1.442  -5.857  0.00  0.00    -0.320 N 
ATOM     22  H   UNL     1      -3.169  -1.302  -5.866  0.00  0.00    +0.152 HD
BRANCH  21  26
ATOM     23  C   UNL     1      -0.038  -0.756  -2.364  0.00  0.00    +0.030 A 
ATOM     24  C   UNL     1      -1.413  -0.555  -2.378  0.00  0.00    +0.025 A 
ATOM     25  C   UNL     1      -2.131  -0.782  -3.535  0.00  0.00    +0.025 A 
ATOM     26  C   UNL     1      -1.480  -1.211  -4.684  0.00  0.00    +0.031 A 
ATOM     27  C   UNL     1      -0.106  -1.412  -4.670  0.00  0.00    +0.025 A 
ATOM     28  C   UNL     1       0.614  -1.180  -3.515  0.00  0.00    +0.025 A 
BRANCH  23  29
ATOM     29  N   UNL     1       0.690  -0.526  -1.192  0.00  0.00    -0.330 N 
BRANCH  29  31
ATOM     30  C   UNL     1      -0.038   1.450   0.051  0.00  0.00    +0.024 C 
ATOM     31  C   UNL     1       0.003  -0.080   0.021  0.00  0.00    +0.102 C 
ENDBRANCH  29  31
BRANCH  29  32
ATOM     32  C   UNL     1       2.140  -0.733  -1.179  0.00  0.00    +0.102 C 
ATOM     33  C   UNL     1       2.447  -2.178  -0.781  0.00  0.00    +0.024 C 
ENDBRANCH  29  32
ENDBRANCH  23  29
ENDBRANCH  21  26
ENDBRANCH   1  21
TORSDOF 6
