REMARK  Name = ZINC13054683
REMARK  8 active torsions:
REMARK  status: ('A' for Active; 'I' for Inactive)
REMARK    1  A    between atoms: C_3  and  C_6
REMARK    2  A    between atoms: C_6  and  C_8
REMARK    3  A    between atoms: C_6  and  N_15
REMARK    4  A    between atoms: C_16  and  C_18
REMARK    5  A    between atoms: C_18  and  O_19
REMARK    6  A    between atoms: O_19  and  C_20
REMARK    7  A    between atoms: C_23  and  C_29
REMARK    8  A    between atoms: C_25  and  N_26
REMARK                            x       y       z     vdW  Elec       q    Type
REMARK                         _______ _______ _______ _____ _____    ______ ____
ROOT
ATOM      1  N   UNL     1       1.929  -2.490   0.859  0.00  0.00    -0.301 N 
ATOM      2  C   UNL     1       2.209  -2.483   2.177  0.00  0.00    +0.251 C 
ATOM      3  O   UNL     1       2.986  -1.669   2.628  0.00  0.00    -0.272 OA
ATOM      4  H   UNL     1       1.307  -3.141   0.498  0.00  0.00    +0.150 HD
ENDROOT
BRANCH   1   5
ATOM      5  C   UNL     1       2.565  -1.514  -0.030  0.00  0.00    +0.140 C 
BRANCH   5   6
ATOM      6  C   UNL     1       2.606  -2.064  -1.433  0.00  0.00    -0.022 A 
ATOM      7  C   UNL     1       1.527  -2.771  -1.929  0.00  0.00    +0.008 A 
ATOM      8  C   UNL     1       1.561  -3.271  -3.217  0.00  0.00    +0.038 A 
ATOM      9  C   UNL     1       2.682  -3.073  -4.006  0.00  0.00    +0.123 A 
ATOM     10  C   UNL     1       3.764  -2.369  -3.506  0.00  0.00    +0.038 A 
ATOM     11  C   UNL     1       3.725  -1.865  -2.220  0.00  0.00    +0.008 A 
ATOM     12  F   UNL     1       2.718  -3.566  -5.264  0.00  0.00    -0.205 F 
ENDBRANCH   5   6
BRANCH   5  15
ATOM     13  C   UNL     1       1.300   2.079   0.001  0.00  0.00    +0.008 A 
ATOM     14  C   UNL     1       2.220   1.048  -0.013  0.00  0.00    +0.013 A 
ATOM     15  C   UNL     1       1.773  -0.232  -0.016  0.00  0.00    +0.014 A 
ATOM     16  S   UNL     1       0.002  -0.004   0.002  0.00  0.00    -0.099 S 
ATOM     17  C   UNL     1      -0.022   1.781   0.012  0.00  0.00    +0.045 A 
ENDBRANCH   5  15
ENDBRANCH   1   5
BRANCH   2  18
ATOM     18  C   UNL     1       1.555  -3.487   3.091  0.00  0.00    +0.324 C 
BRANCH  18  19
ATOM     19  O   UNL     1       2.009  -3.278   4.430  0.00  0.00    -0.480 OA
BRANCH  19  20
ATOM     20  C   UNL     1       1.512  -4.105   5.385  0.00  0.00    +0.151 A 
ATOM     21  C   UNL     1       0.605  -5.100   5.037  0.00  0.00    +0.049 A 
ATOM     22  C   UNL     1       0.099  -5.941   6.002  0.00  0.00    +0.019 A 
ATOM     23  C   UNL     1       0.499  -5.794   7.334  0.00  0.00    +0.066 A 
ATOM     24  C   UNL     1       1.411  -4.793   7.679  0.00  0.00    +0.051 A 
ATOM     25  C   UNL     1       1.917  -3.959   6.706  0.00  0.00    +0.168 A 
BRANCH  25  26
ATOM     26  N   UNL     1       2.888  -2.903   7.070  0.00  0.00    +0.060 N 
ATOM     27  O   UNL     1       3.243  -2.775   8.228  0.00  0.00    -0.126 OA
ATOM     28  O   UNL     1       3.332  -2.163   6.211  0.00  0.00    -0.126 OA
ENDBRANCH  25  26
BRANCH  23  29
ATOM     29  C   UNL     1      -0.041  -6.692   8.371  0.00  0.00    +0.387 C 
ATOM     30  O   UNL     1       0.307  -6.563   9.528  0.00  0.00    -0.241 OA
ATOM     31  O   UNL     1      -0.921  -7.656   8.036  0.00  0.00    -0.241 OA
ENDBRANCH  23  29
ENDBRANCH  19  20
ENDBRANCH  18  19
ENDBRANCH   2  18
TORSDOF 8
