REMARK  Name = ZINC66783859
REMARK  5 active torsions:
REMARK  status: ('A' for Active; 'I' for Inactive)
REMARK    1  A    between atoms: C_1  and  C_2
REMARK    2  A    between atoms: C_6  and  C_8
REMARK    3  A    between atoms: N_10  and  N_11
REMARK    4  A    between atoms: C_12  and  C_14
REMARK    5  A    between atoms: C_18  and  N_20
REMARK                            x       y       z     vdW  Elec       q    Type
REMARK                         _______ _______ _______ _____ _____    ______ ____
ROOT
ATOM      1  N   UNL     1       0.117  -4.904   3.652  0.00  0.00    -0.230 N 
ATOM      2  C   UNL     1       0.135  -6.252   3.639  0.00  0.00    +0.260 C 
ATOM      3  O   UNL     1       0.151  -6.849   2.581  0.00  0.00    -0.269 OA
ATOM      4  H   UNL     1       0.104  -4.427   4.496  0.00  0.00    +0.173 HD
ENDROOT
BRANCH   2   5
ATOM      5  C   UNL     1       0.135  -7.003   4.913  0.00  0.00    +0.040 A 
ATOM      6  C   UNL     1       0.111  -6.319   6.130  0.00  0.00    +0.013 A 
ATOM      7  C   UNL     1       0.110  -7.022   7.316  0.00  0.00    +0.003 A 
ATOM      8  C   UNL     1       0.134  -8.405   7.306  0.00  0.00    +0.023 A 
ATOM      9  C   UNL     1       0.159  -9.095   6.101  0.00  0.00    +0.039 A 
ATOM     10  C   UNL     1       0.154  -8.398   4.902  0.00  0.00    +0.036 A 
BRANCH   9  11
ATOM     11  N   UNL     1       0.184 -10.494   6.096  0.00  0.00    -0.254 N 
ATOM     12  C   UNL     1       0.300 -11.349   7.287  0.00  0.00    +0.134 C 
ATOM     13  C   UNL     1       0.278 -12.781   6.718  0.00  0.00    +0.125 C 
ATOM     14  N   UNL     1       0.151 -12.581   5.266  0.00  0.00    -0.297 N 
ATOM     15  C   UNL     1       0.099 -11.268   5.005  0.00  0.00    +0.307 C 
ATOM     16  O   UNL     1      -0.010 -10.820   3.881  0.00  0.00    -0.252 OA
ATOM     17  H   UNL     1       0.108 -13.288   4.603  0.00  0.00    +0.150 HD
ENDBRANCH   9  11
ENDBRANCH   2   5
BRANCH   1  20
ATOM     18  C   UNL     1       0.099  -2.845   2.458  0.00  0.00    +0.260 C 
ATOM     19  O   UNL     1       0.083  -2.247   3.516  0.00  0.00    -0.269 OA
ATOM     20  N   UNL     1       0.117  -4.192   2.445  0.00  0.00    -0.230 N 
ATOM     21  H   UNL     1       0.130  -4.669   1.601  0.00  0.00    +0.173 HD
BRANCH  18  27
ATOM     22  C   UNL     1       0.059   1.504   0.011  0.00  0.00    +0.044 C 
ATOM     23  C   UNL     1       0.080  -0.003   0.003  0.00  0.00    -0.050 A 
ATOM     24  C   UNL     1       0.099  -0.686  -1.200  0.00  0.00    +0.003 A 
ATOM     25  C   UNL     1       0.118  -2.069  -1.217  0.00  0.00    +0.001 A 
ATOM     26  C   UNL     1       0.118  -2.776  -0.032  0.00  0.00    +0.013 A 
ATOM     27  C   UNL     1       0.099  -2.093   1.185  0.00  0.00    +0.038 A 
ATOM     28  C   UNL     1       0.086  -0.698   1.194  0.00  0.00    +0.016 A 
ENDBRANCH  18  27
ENDBRANCH   1  20
TORSDOF 4
