REMARK  Name = ZINC59776359
REMARK  11 active torsions:
REMARK  status: ('A' for Active; 'I' for Inactive)
REMARK    1  A    between atoms: C_1  and  C_2
REMARK    2  A    between atoms: C_2  and  C_29
REMARK    3  A    between atoms: C_4  and  N_10
REMARK    4  A    between atoms: C_6  and  C_8
REMARK    5  A    between atoms: C_6  and  C_9
REMARK    6  A    between atoms: C_11  and  C_13
REMARK    7  A    between atoms: C_13  and  S_14
REMARK    8  A    between atoms: S_14  and  C_15
REMARK    9  A    between atoms: C_18  and  C_23
REMARK   10  A    between atoms: N_19  and  C_20
REMARK   11  A    between atoms: C_20  and  C_21
REMARK                            x       y       z     vdW  Elec       q    Type
REMARK                         _______ _______ _______ _____ _____    ______ ____
ROOT
ATOM      1  N   UNL     1       3.027  -1.679  -2.453  0.00  0.00    -0.312 N 
ATOM      2  C   UNL     1       3.903  -0.897  -3.114  0.00  0.00    +0.224 C 
ATOM      3  O   UNL     1       4.177   0.203  -2.685  0.00  0.00    -0.275 OA
ATOM      4  H   UNL     1       2.807  -2.559  -2.796  0.00  0.00    +0.149 HD
ENDROOT
BRANCH   1   8
ATOM      5  C   UNL     1      -0.160  -0.051   0.115  0.00  0.00    -0.010 C 
ATOM      6  C   UNL     1       0.416  -1.460   0.292  0.00  0.00    -0.072 C 
ATOM      7  C   UNL     1       1.071  -1.917  -1.007  0.00  0.00    +0.009 C 
ATOM      8  C   UNL     1       2.404  -1.199  -1.213  0.00  0.00    +0.070 C 
ATOM      9  C   UNL     1       3.313  -1.534  -0.030  0.00  0.00    +0.009 C 
ATOM     10  C   UNL     1       2.675  -1.074   1.277  0.00  0.00    -0.072 C 
ATOM     11  N   UNL     1       1.305  -1.526   1.438  0.00  0.00    +0.386 N 
ATOM     12  C   UNL     1       2.777   0.450   1.395  0.00  0.00    -0.010 C 
ATOM     13  C   UNL     1       3.508  -1.675   2.433  0.00  0.00    -0.010 C 
ATOM     14  C   UNL     1      -0.776  -2.406   0.566  0.00  0.00    -0.010 C 
ATOM     15  H   UNL     1       0.880  -0.996   2.205  0.00  0.00    -0.084 HD
ATOM     16  H   UNL     1       1.325  -2.495   1.772  0.00  0.00    -0.084 HD
ENDBRANCH   1   8
BRANCH   2  17
ATOM     17  C   UNL     1       4.542  -1.390  -4.387  0.00  0.00    +0.173 C 
BRANCH  17  18
ATOM     18  S   UNL     1       5.663  -0.119  -5.032  0.00  0.00    -0.077 S 
BRANCH  18  19
ATOM     19  C   UNL     1       6.322  -0.837  -6.500  0.00  0.00    +0.193 A 
ATOM     20  N   UNL     1       6.033  -2.024  -6.985  0.00  0.00    -0.122 NA
ATOM     21  N   UNL     1       6.692  -2.231  -8.069  0.00  0.00    -0.128 NA
ATOM     22  C   UNL     1       7.441  -1.188  -8.343  0.00  0.00    +0.165 A 
ATOM     23  N   UNL     1       7.223  -0.261  -7.350  0.00  0.00    -0.298 N 
BRANCH  22  24
ATOM     24  C   UNL     1       8.345  -1.037  -9.503  0.00  0.00    +0.019 A 
ATOM     25  C   UNL     1       9.529  -0.309  -9.379  0.00  0.00    +0.011 A 
ATOM     26  C   UNL     1      10.368  -0.172 -10.465  0.00  0.00    +0.001 A 
ATOM     27  C   UNL     1      10.038  -0.753 -11.676  0.00  0.00    +0.000 A 
ATOM     28  C   UNL     1       8.865  -1.475 -11.807  0.00  0.00    +0.001 A 
ATOM     29  C   UNL     1       8.020  -1.625 -10.726  0.00  0.00    +0.011 A 
ENDBRANCH  22  24
BRANCH  23  30
ATOM     30  C   UNL     1       7.832   1.065  -7.228  0.00  0.00    +0.152 C 
BRANCH  30  31
ATOM     31  C   UNL     1       9.020   0.990  -6.304  0.00  0.00    -0.013 C 
ATOM     32  C   UNL     1      10.185   1.441  -6.696  0.00  0.00    +0.005 C 
ENDBRANCH  30  31
ENDBRANCH  23  30
ENDBRANCH  18  19
ENDBRANCH  17  18
ENDBRANCH   2  17
TORSDOF 7
