REMARK  Name = ZINC09816553
REMARK  7 active torsions:
REMARK  status: ('A' for Active; 'I' for Inactive)
REMARK    1  A    between atoms: C_1  and  C_2
REMARK    2  A    between atoms: C_5  and  N_8
REMARK    3  A    between atoms: C_9  and  C_11
REMARK    4  A    between atoms: C_11  and  S_12
REMARK    5  A    between atoms: S_12  and  C_13
REMARK    6  A    between atoms: N_16  and  N_20
REMARK    7  A    between atoms: C_25  and  N_56
REMARK                            x       y       z     vdW  Elec       q    Type
REMARK                         _______ _______ _______ _____ _____    ______ ____
ROOT
ATOM      1  C   UNL     1      -0.021   1.758  -0.002  0.00  0.00    +0.108 A 
ATOM      2  C   UNL     1      -1.252   2.451   0.008  0.00  0.00    +0.006 A 
ATOM      3  C   UNL     1      -1.243   3.803   0.013  0.00  0.00    +0.050 A 
ATOM      4  N   UNL     1      -0.045   4.460  -0.004  0.00  0.00    -0.216 N 
ATOM      5  C   UNL     1       1.110   3.772  -0.019  0.00  0.00    +0.367 A 
ATOM      6  O   UNL     1       2.169   4.377  -0.033  0.00  0.00    -0.243 OA
ATOM      7  N   UNL     1       1.117   2.440  -0.018  0.00  0.00    -0.185 NA
ATOM      8  C   UNL     1      -2.658   4.336   0.031  0.00  0.00    +0.056 C 
ATOM      9  C   UNL     1      -3.530   3.142   0.477  0.00  0.00    +0.011 C 
ATOM     10  C   UNL     1      -2.674   1.936   0.032  0.00  0.00    +0.040 C 
ENDROOT
BRANCH   4  11
ATOM     11  N   UNL     1      -0.021   5.825  -0.005  0.00  0.00    -0.271 N 
ATOM     12  C   UNL     1       0.577   6.340  -1.245  0.00  0.00    +0.106 C 
ATOM     13  C   UNL     1       0.513   7.869  -1.242  0.00  0.00    -0.058 C 
ATOM     14  C   UNL     1       0.626   7.870   1.175  0.00  0.00    -0.058 C 
ATOM     15  C   UNL     1       0.690   6.341   1.173  0.00  0.00    +0.106 C 
ATOM     16  C   UNL     1       1.250   9.854  -0.066  0.00  0.00    -0.096 C 
ATOM     17  N   UNL     1       1.250   8.375  -0.066  0.00  0.00    +0.380 N 
ATOM     18  H   UNL     1       2.220   8.042  -0.111  0.00  0.00    -0.082 HD
ENDBRANCH   4  11
BRANCH   1  19
ATOM     19  S   UNL     1       0.002  -0.004  -0.000  0.00  0.00    -0.096 S 
BRANCH  19  20
ATOM     20  C   UNL     1       1.789  -0.294  -0.023  0.00  0.00    +0.171 C 
BRANCH  20  22
ATOM     21  N   UNL     1       3.325  -2.232  -0.042  0.00  0.00    -0.285 N 
ATOM     22  C   UNL     1       2.057  -1.777  -0.025  0.00  0.00    +0.227 C 
ATOM     23  O   UNL     1       1.131  -2.560  -0.012  0.00  0.00    -0.275 OA
ATOM     24  H   UNL     1       4.064  -1.608  -0.120  0.00  0.00    +0.155 HD
BRANCH  21  29
ATOM     25  C   UNL     1       4.345  -7.800   0.347  0.00  0.00    +0.044 C 
ATOM     26  C   UNL     1       4.074  -6.321   0.244  0.00  0.00    -0.050 A 
ATOM     27  C   UNL     1       2.958  -5.870  -0.437  0.00  0.00    +0.005 A 
ATOM     28  C   UNL     1       2.707  -4.515  -0.534  0.00  0.00    +0.023 A 
ATOM     29  C   UNL     1       3.577  -3.606   0.054  0.00  0.00    +0.033 A 
ATOM     30  C   UNL     1       4.699  -4.062   0.733  0.00  0.00    +0.023 A 
ATOM     31  C   UNL     1       4.941  -5.418   0.831  0.00  0.00    +0.005 A 
ENDBRANCH  21  29
ENDBRANCH  20  22
ENDBRANCH  19  20
ENDBRANCH   1  19
TORSDOF 5
