REMARK  Name = ZINC21345339
REMARK  7 active torsions:
REMARK  status: ('A' for Active; 'I' for Inactive)
REMARK    1  A    between atoms: C_1  and  N_2
REMARK    2  A    between atoms: C_11  and  C_13
REMARK    3  A    between atoms: N_15  and  N_16
REMARK    4  A    between atoms: N_16  and  C_17
REMARK    5  A    between atoms: C_17  and  N_19
REMARK    6  A    between atoms: N_19  and  C_20
REMARK    7  A    between atoms: C_25  and  C_26
REMARK                            x       y       z     vdW  Elec       q    Type
REMARK                         _______ _______ _______ _____ _____    ______ ____
ROOT
ATOM      1  C   UNL     1       2.386  -2.949   0.021  0.00  0.00    +0.281 C 
ATOM      2  O   UNL     1       3.425  -2.361  -0.212  0.00  0.00    -0.267 OA
ATOM      3  N   UNL     1       2.355  -4.296  -0.003  0.00  0.00    -0.230 N 
ATOM      4  H   UNL     1       1.415  -4.828   0.208  0.00  0.00    +0.173 HD
ENDROOT
BRANCH   1  15
ATOM      5  C   UNL     1      -2.247  -3.058   1.115  0.00  0.00    +0.176 C 
ATOM      6  N   UNL     1      -1.068  -2.228   0.855  0.00  0.00    -0.231 N 
ATOM      7  C   UNL     1      -1.206  -0.888   0.918  0.00  0.00    +0.275 A 
ATOM      8  O   UNL     1      -2.281  -0.383   1.184  0.00  0.00    -0.266 OA
ATOM      9  C   UNL     1      -0.026  -0.050   0.658  0.00  0.00    +0.050 A 
ATOM     10  C   UNL     1      -0.063   1.340   0.698  0.00  0.00    +0.014 A 
ATOM     11  C   UNL     1       1.089   2.054   0.442  0.00  0.00    +0.001 A 
ATOM     12  C   UNL     1       2.278   1.400   0.146  0.00  0.00    +0.001 A 
ATOM     13  C   UNL     1       2.334   0.023   0.101  0.00  0.00    +0.011 A 
ATOM     14  C   UNL     1       1.185  -0.716   0.357  0.00  0.00    +0.020 A 
ATOM     15  C   UNL     1       1.160  -2.187   0.329  0.00  0.00    +0.155 A 
ATOM     16  N   UNL     1       0.036  -2.813   0.580  0.00  0.00    -0.163 NA
ENDBRANCH   1  15
BRANCH   3  17
ATOM     17  N   UNL     1       3.519  -5.019  -0.295  0.00  0.00    -0.245 N 
ATOM     18  H   UNL     1       4.458  -4.487  -0.505  0.00  0.00    +0.172 HD
BRANCH  17  19
ATOM     19  C   UNL     1       3.487  -6.367  -0.318  0.00  0.00    +0.151 C 
ATOM     20  S   UNL     1       4.909  -7.250  -0.675  0.00  0.00    -0.017 S 
BRANCH  19  21
ATOM     21  N   UNL     1       2.336  -7.018  -0.060  0.00  0.00    -0.295 N 
ATOM     22  H   UNL     1       1.440  -6.454   0.239  0.00  0.00    +0.154 HD
BRANCH  21  23
ATOM     23  C   UNL     1       2.280  -8.411  -0.173  0.00  0.00    +0.044 A 
ATOM     24  C   UNL     1       3.270  -9.197   0.404  0.00  0.00    +0.024 A 
ATOM     25  C   UNL     1       3.210 -10.572   0.295  0.00  0.00    +0.002 A 
ATOM     26  C   UNL     1       2.171 -11.167  -0.398  0.00  0.00    +0.001 A 
ATOM     27  C   UNL     1       1.187 -10.388  -0.978  0.00  0.00    +0.014 A 
ATOM     28  C   UNL     1       1.239  -9.012  -0.868  0.00  0.00    +0.076 A 
BRANCH  28  29
ATOM     29  C   UNL     1       0.166  -8.164  -1.501  0.00  0.00    +0.419 C 
ATOM     30  F   UNL     1      -0.766  -8.990  -2.139  0.00  0.00    -0.166 F 
ATOM     31  F   UNL     1      -0.477  -7.411  -0.513  0.00  0.00    -0.166 F 
ATOM     32  F   UNL     1       0.745  -7.303  -2.440  0.00  0.00    -0.166 F 
ENDBRANCH  28  29
ENDBRANCH  21  23
ENDBRANCH  19  21
ENDBRANCH  17  19
ENDBRANCH   3  17
TORSDOF 6
