REMARK  Name = ZINC19108060
REMARK  4 active torsions:
REMARK  status: ('A' for Active; 'I' for Inactive)
REMARK    1  A    between atoms: C_5  and  S_7
REMARK    2  A    between atoms: S_7  and  N_10
REMARK    3  A    between atoms: N_10  and  N_11
REMARK    4  A    between atoms: C_12  and  C_14
REMARK                            x       y       z     vdW  Elec       q    Type
REMARK                         _______ _______ _______ _____ _____    ______ ____
ROOT
ATOM      1  N   UNL     1      -1.519   3.786   2.625  0.00  0.00    -0.108 NA
ATOM      2  H   UNL     1      -2.418   3.480   2.823  0.00  0.00    +0.172 HD
ENDROOT
BRANCH   1   3
ATOM      3  N   UNL     1      -0.863   3.334   1.472  0.00  0.00    -0.231 N 
ATOM      4  C   UNL     1      -0.724   2.012   1.250  0.00  0.00    +0.234 C 
ATOM      5  O   UNL     1      -1.167   1.213   2.049  0.00  0.00    -0.274 OA
ATOM      6  H   UNL     1      -0.509   3.973   0.834  0.00  0.00    +0.171 HD
BRANCH   4   7
ATOM      7  C   UNL     1      -0.019   1.526   0.010  0.00  0.00    +0.049 C 
ATOM      8  C   UNL     1       1.417   2.055  -0.000  0.00  0.00    +0.019 C 
ATOM      9  C   UNL     1       2.133   1.562  -1.259  0.00  0.00    -0.009 C 
ATOM     10  C   UNL     1       2.154   0.032  -1.268  0.00  0.00    +0.007 C 
ATOM     11  C   UNL     1       0.718  -0.497  -1.257  0.00  0.00    -0.009 C 
ATOM     12  C   UNL     1       0.002  -0.004   0.002  0.00  0.00    +0.019 C 
ATOM     13  C   UNL     1      -0.022   0.009  -2.496  0.00  0.00    +0.007 C 
ATOM     14  C   UNL     1      -0.043   1.539  -2.488  0.00  0.00    -0.009 C 
ATOM     15  C   UNL     1       1.393   2.069  -2.499  0.00  0.00    +0.007 C 
ATOM     16  C   UNL     1      -0.759   2.033  -1.229  0.00  0.00    +0.019 C 
ENDBRANCH   4   7
ENDBRANCH   1   3
BRANCH   1  17
ATOM     17  S   UNL     1      -0.759   4.842   3.649  0.00  0.00    +0.076 S 
ATOM     18  O   UNL     1      -1.718   5.219   4.628  0.00  0.00    -0.152 OA
ATOM     19  O   UNL     1       0.487   4.251   3.991  0.00  0.00    -0.152 OA
BRANCH  17  24
ATOM     20  C   UNL     1      -0.715   8.638   2.325  0.00  0.00    +0.004 A 
ATOM     21  C   UNL     1       0.151   8.649   1.284  0.00  0.00    +0.031 A 
ATOM     22  C   UNL     1       0.810   7.454   0.895  0.00  0.00    +0.102 A 
ATOM     23  C   UNL     1       0.533   6.232   1.645  0.00  0.00    +0.126 A 
ATOM     24  C   UNL     1      -0.390   6.293   2.721  0.00  0.00    +0.135 A 
ATOM     25  C   UNL     1      -0.984   7.469   3.038  0.00  0.00    +0.031 A 
ATOM     26  N   UNL     1       1.222   5.192   1.178  0.00  0.00    -0.189 NA
ATOM     27  S   UNL     1       2.076   5.734  -0.018  0.00  0.00    +0.117 S 
ATOM     28  N   UNL     1       1.686   7.250  -0.087  0.00  0.00    -0.191 NA
ENDBRANCH  17  24
ENDBRANCH   1  17
TORSDOF 4
