REMARK  Name = ZINC14528826
REMARK  6 active torsions:
REMARK  status: ('A' for Active; 'I' for Inactive)
REMARK    1  A    between atoms: C_1  and  C_2
REMARK    2  A    between atoms: C_5  and  C_31
REMARK    3  A    between atoms: C_9  and  C_10
REMARK    4  A    between atoms: C_9  and  N_54
REMARK    5  A    between atoms: C_16  and  C_18
REMARK    6  A    between atoms: C_18  and  C_19
REMARK                            x       y       z     vdW  Elec       q    Type
REMARK                         _______ _______ _______ _____ _____    ______ ____
ROOT
ATOM      1  C   UNL     1       2.578   3.877  -0.002  0.00  0.00    +0.034 A 
ATOM      2  C   UNL     1       3.639   3.034  -0.016  0.00  0.00    +0.070 A 
ATOM      3  S   UNL     1       2.807   1.452  -0.009  0.00  0.00    -0.060 S 
ATOM      4  C   UNL     1       1.178   2.055   0.002  0.00  0.00    +0.165 A 
ATOM      5  N   UNL     1       1.365   3.360   0.007  0.00  0.00    -0.231 NA
ATOM      6  N   UNL     1      -0.016   1.344   0.009  0.00  0.00    -0.264 N 
ATOM      7  C   UNL     1       0.002  -0.004   0.002  0.00  0.00    +0.225 C 
ATOM      8  O   UNL     1       1.060  -0.596  -0.011  0.00  0.00    -0.275 OA
ATOM      9  H   UNL     1      -0.863   1.817   0.016  0.00  0.00    +0.157 HD
ENDROOT
BRANCH   1  10
ATOM     10  C   UNL     1       2.780   5.370   0.004  0.00  0.00    -0.022 C 
BRANCH  10  18
ATOM     11  C   UNL     1       4.830   5.292  -4.467  0.00  0.00    +0.005 C 
ATOM     12  C   UNL     1       3.651   5.801  -3.634  0.00  0.00    -0.031 C 
ATOM     13  C   UNL     1       3.596   7.330  -3.708  0.00  0.00    +0.003 C 
ATOM     14  C   UNL     1       2.452   7.835  -2.824  0.00  0.00    -0.031 C 
ATOM     15  C   UNL     1       2.668   7.346  -1.390  0.00  0.00    -0.075 C 
ATOM     16  C   UNL     1       3.833   5.372  -2.176  0.00  0.00    -0.075 C 
ATOM     17  C   UNL     1       1.122   7.294  -3.353  0.00  0.00    +0.005 C 
ATOM     18  N   UNL     1       2.687   5.868  -1.384  0.00  0.00    +0.384 N 
ATOM     19  H   UNL     1       1.817   5.522  -1.805  0.00  0.00    -0.081 HD
ENDBRANCH  10  18
ENDBRANCH   1  10
BRANCH   7  20
ATOM     20  C   UNL     1      -1.293  -0.775   0.010  0.00  0.00    +0.154 C 
BRANCH  20  21
ATOM     21  C   UNL     1      -0.997  -2.253  -0.001  0.00  0.00    +0.078 A 
ATOM     22  C   UNL     1      -2.096  -3.219   0.011  0.00  0.00    +0.011 A 
ATOM     23  C   UNL     1      -3.433  -2.814   0.020  0.00  0.00    +0.010 A 
ATOM     24  C   UNL     1      -4.424  -3.755   0.023  0.00  0.00    +0.001 A 
ATOM     25  C   UNL     1      -4.122  -5.111   0.012  0.00  0.00    +0.001 A 
ATOM     26  C   UNL     1      -2.813  -5.539  -0.002  0.00  0.00    +0.014 A 
ATOM     27  C   UNL     1      -1.784  -4.597  -0.006  0.00  0.00    +0.050 A 
ATOM     28  C   UNL     1      -0.370  -4.990  -0.022  0.00  0.00    +0.272 A 
ATOM     29  O   UNL     1      -0.052  -6.165  -0.031  0.00  0.00    -0.266 OA
ATOM     30  N   UNL     1       0.572  -4.023  -0.025  0.00  0.00    -0.242 N 
ATOM     31  H   UNL     1       1.508  -4.276  -0.035  0.00  0.00    +0.192 HD
ATOM     32  N   UNL     1       0.234  -2.669  -0.015  0.00  0.00    -0.175 NA
ENDBRANCH  20  21
ENDBRANCH   7  20
TORSDOF 4
