REMARK  Name = ZINC37309228
REMARK  7 active torsions:
REMARK  status: ('A' for Active; 'I' for Inactive)
REMARK    1  A    between atoms: C_3  and  C_35
REMARK    2  A    between atoms: C_6  and  C_7
REMARK    3  A    between atoms: C_7  and  O_8
REMARK    4  A    between atoms: O_8  and  C_9
REMARK    5  A    between atoms: C_12  and  C_16
REMARK    6  A    between atoms: C_16  and  N_17
REMARK    7  A    between atoms: C_23  and  C_25
REMARK                            x       y       z     vdW  Elec       q    Type
REMARK                         _______ _______ _______ _____ _____    ______ ____
ROOT
ATOM      1  C   UNL     1      -2.771  -1.760  -1.274  0.00  0.00    +0.202 A 
ATOM      2  C   UNL     1      -3.459  -2.223  -0.208  0.00  0.00    +0.244 A 
ATOM      3  O   UNL     1      -4.616  -2.880  -0.370  0.00  0.00    -0.463 OA
ATOM      4  C   UNL     1      -5.141  -3.107  -1.579  0.00  0.00    +0.123 A 
ATOM      5  C   UNL     1      -4.520  -2.680  -2.698  0.00  0.00    +0.097 A 
ATOM      6  C   UNL     1      -3.296  -1.975  -2.578  0.00  0.00    +0.227 A 
ATOM      7  O   UNL     1      -2.707  -1.568  -3.568  0.00  0.00    -0.284 OA
ENDROOT
BRANCH   1   8
ATOM      8  O   UNL     1      -1.597  -1.093  -1.103  0.00  0.00    -0.481 OA
BRANCH   8   9
ATOM      9  C   UNL     1      -1.139  -0.919   0.240  0.00  0.00    +0.264 C 
BRANCH   9  15
ATOM     10  C   UNL     1       0.166   1.216   0.298  0.00  0.00    +0.007 A 
ATOM     11  C   UNL     1       1.363   1.908   0.292  0.00  0.00    +0.013 A 
ATOM     12  C   UNL     1       2.559   1.219   0.219  0.00  0.00    +0.055 A 
ATOM     13  C   UNL     1       2.558  -0.162   0.154  0.00  0.00    +0.013 A 
ATOM     14  C   UNL     1       1.362  -0.854   0.161  0.00  0.00    +0.007 A 
ATOM     15  C   UNL     1       0.165  -0.165   0.232  0.00  0.00    -0.010 A 
BRANCH  12  16
ATOM     16  C   UNL     1       3.864   1.973   0.211  0.00  0.00    +0.417 C 
ATOM     17  F   UNL     1       4.311   2.144   1.526  0.00  0.00    -0.166 F 
ATOM     18  F   UNL     1       4.816   1.250  -0.515  0.00  0.00    -0.166 F 
ATOM     19  F   UNL     1       3.675   3.225  -0.384  0.00  0.00    -0.166 F 
ENDBRANCH  12  16
ENDBRANCH   9  15
ENDBRANCH   8   9
ENDBRANCH   1   8
BRANCH   4  20
ATOM     20  C   UNL     1      -6.446  -3.852  -1.694  0.00  0.00    +0.159 C 
BRANCH  20  21
ATOM     21  N   UNL     1      -6.267  -5.229  -1.216  0.00  0.00    -0.292 NA
ATOM     22  C   UNL     1      -5.352  -5.976  -2.090  0.00  0.00    +0.104 C 
ATOM     23  C   UNL     1      -5.050  -7.340  -1.462  0.00  0.00    +0.123 C 
ATOM     24  N   UNL     1      -6.325  -8.015  -1.175  0.00  0.00    -0.299 N 
ATOM     25  C   UNL     1      -7.348  -7.277  -0.419  0.00  0.00    +0.123 C 
ATOM     26  C   UNL     1      -7.560  -5.915  -1.088  0.00  0.00    +0.104 C 
ATOM     27  C   UNL     1      -6.550  -9.276  -1.594  0.00  0.00    +0.222 C 
ATOM     28  O   UNL     1      -5.733  -9.838  -2.293  0.00  0.00    -0.275 OA
BRANCH  27  29
ATOM     29  C   UNL     1      -7.816  -9.989  -1.194  0.00  0.00    +0.048 C 
ATOM     30  C   UNL     1      -7.984  -9.916   0.325  0.00  0.00    +0.019 C 
ATOM     31  C   UNL     1      -9.270 -10.639   0.731  0.00  0.00    -0.009 C 
ATOM     32  C   UNL     1      -9.190 -12.104   0.297  0.00  0.00    +0.007 C 
ATOM     33  C   UNL     1      -9.022 -12.177  -1.222  0.00  0.00    -0.009 C 
ATOM     34  C   UNL     1      -7.736 -11.454  -1.629  0.00  0.00    +0.019 C 
ATOM     35  C   UNL     1     -10.219 -11.508  -1.901  0.00  0.00    +0.007 C 
ATOM     36  C   UNL     1     -10.299 -10.043  -1.466  0.00  0.00    -0.009 C 
ATOM     37  C   UNL     1     -10.467  -9.970   0.053  0.00  0.00    +0.007 C 
ATOM     38  C   UNL     1      -9.014  -9.320  -1.873  0.00  0.00    +0.019 C 
ENDBRANCH  27  29
ENDBRANCH  20  21
ENDBRANCH   4  20
TORSDOF 7
