REMARK  Name = ZINC36053331
REMARK  10 active torsions:
REMARK  status: ('A' for Active; 'I' for Inactive)
REMARK    1  A    between atoms: C_1  and  C_2
REMARK    2  A    between atoms: C_3  and  C_26
REMARK    3  A    between atoms: C_4  and  C_19
REMARK    4  A    between atoms: C_7  and  C_12
REMARK    5  A    between atoms: C_13  and  N_15
REMARK    6  A    between atoms: N_15  and  C_16
REMARK    7  A    between atoms: C_16  and  C_17
REMARK    8  A    between atoms: C_16  and  C_18
REMARK    9  A    between atoms: C_26  and  O_28
REMARK   10  A    between atoms: O_28  and  C_29
REMARK                            x       y       z     vdW  Elec       q    Type
REMARK                         _______ _______ _______ _____ _____    ______ ____
ROOT
ATOM      1  C   UNL     1      -0.353   1.705  -0.052  0.00  0.00    +0.066 C 
ATOM      2  C   UNL     1      -0.240   0.205   0.040  0.00  0.00    +0.053 C 
ATOM      3  C   UNL     1      -1.383  -0.571   0.029  0.00  0.00    +0.082 C 
ATOM      4  C   UNL     1      -1.217  -2.071   0.124  0.00  0.00    +0.150 C 
ATOM      5  N   UNL     1       0.172  -2.594   0.222  0.00  0.00    -0.267 N 
ATOM      6  C   UNL     1       0.558  -3.916   0.317  0.00  0.00    +0.048 C 
ATOM      7  C   UNL     1       1.881  -4.179   0.396  0.00  0.00    +0.072 C 
ATOM      8  S   UNL     1       2.586  -2.544   0.336  0.00  0.00    -0.060 S 
ATOM      9  C   UNL     1       1.167  -1.656   0.216  0.00  0.00    +0.166 C 
ATOM     10  N   UNL     1       0.954  -0.360   0.126  0.00  0.00    -0.230 NA
ENDROOT
BRANCH   4  11
ATOM     11  C   UNL     1      -1.859  -2.687  -1.093  0.00  0.00    -0.021 A 
ATOM     12  C   UNL     1      -1.239  -2.590  -2.325  0.00  0.00    +0.006 A 
ATOM     13  C   UNL     1      -1.827  -3.154  -3.441  0.00  0.00    +0.002 A 
ATOM     14  C   UNL     1      -3.036  -3.815  -3.326  0.00  0.00    +0.020 A 
ATOM     15  C   UNL     1      -3.656  -3.912  -2.094  0.00  0.00    +0.041 A 
ATOM     16  C   UNL     1      -3.064  -3.353  -0.976  0.00  0.00    +0.025 A 
ATOM     17 CL   UNL     1      -5.174  -4.742  -1.949  0.00  0.00    -0.084 Cl
ENDBRANCH   4  11
BRANCH   6  18
ATOM     18  C   UNL     1      -0.436  -5.000   0.331  0.00  0.00    +0.091 C 
ATOM     19  C   UNL     1      -0.047  -6.266   0.572  0.00  0.00    +0.239 C 
ATOM     20  O   UNL     1       1.234  -6.526   0.929  0.00  0.00    -0.271 OA
BRANCH  19  21
ATOM     21  N   UNL     1      -0.957  -7.304   0.454  0.00  0.00    -0.309 N 
ATOM     22  H   UNL     1      -1.890  -7.112   0.273  0.00  0.00    +0.149 HD
BRANCH  21  23
ATOM     23  C   UNL     1      -0.509  -8.691   0.603  0.00  0.00    +0.067 C 
ATOM     24  C   UNL     1      -1.702  -9.575   0.973  0.00  0.00    +0.027 C 
ATOM     25  C   UNL     1       0.095  -9.176  -0.716  0.00  0.00    +0.027 C 
ENDBRANCH  21  23
ENDBRANCH  19  21
ENDBRANCH   6  18
BRANCH   3  26
ATOM     26  C   UNL     1      -2.652   0.012  -0.066  0.00  0.00    +0.339 C 
ATOM     27  O   UNL     1      -2.762   1.224  -0.140  0.00  0.00    -0.245 OA
BRANCH  26  28
ATOM     28  O   UNL     1      -3.755  -0.769  -0.074  0.00  0.00    -0.465 OA
ATOM     29  C   UNL     1      -5.018  -0.106  -0.173  0.00  0.00    +0.280 C 
ENDBRANCH  26  28
ENDBRANCH   3  26
TORSDOF 6
