REMARK  Name = ZINC21726187
REMARK  4 active torsions:
REMARK  status: ('A' for Active; 'I' for Inactive)
REMARK    1  A    between atoms: C_1  and  C_2
REMARK    2  A    between atoms: C_20  and  C_22
REMARK    3  A    between atoms: C_26  and  O_28
REMARK    4  A    between atoms: O_28  and  C_29
REMARK                            x       y       z     vdW  Elec       q    Type
REMARK                         _______ _______ _______ _____ _____    ______ ____
ROOT
ATOM      1  C   UNL     1       7.526   5.573  -0.452  0.00  0.00    +0.068 C 
ATOM      2  C   UNL     1       6.738   4.294  -0.332  0.00  0.00    +0.066 A 
ATOM      3  C   UNL     1       7.268   3.031  -0.109  0.00  0.00    +0.023 A 
ATOM      4  C   UNL     1       6.229   2.140  -0.053  0.00  0.00    +0.135 A 
ATOM      5  N   UNL     1       5.087   2.833  -0.254  0.00  0.00    -0.193 N 
ATOM      6  N   UNL     1       5.433   4.184  -0.418  0.00  0.00    -0.168 NA
ATOM      7  C   UNL     1       3.802   2.305  -0.286  0.00  0.00    +0.196 A 
ATOM      8  N   UNL     1       2.662   2.927  -0.470  0.00  0.00    -0.221 NA
ATOM      9  C   UNL     1       1.475   2.282  -0.476  0.00  0.00    +0.081 A 
ATOM     10  C   UNL     1       0.184   2.830  -0.662  0.00  0.00    +0.029 A 
ATOM     11  C   UNL     1      -0.926   2.027  -0.640  0.00  0.00    +0.002 A 
ATOM     12  C   UNL     1      -0.827   0.658  -0.440  0.00  0.00    +0.001 A 
ATOM     13  C   UNL     1       0.418   0.089  -0.249  0.00  0.00    +0.017 A 
ATOM     14  C   UNL     1       1.537   0.885  -0.270  0.00  0.00    +0.041 A 
ATOM     15  S   UNL     1       3.282   0.607  -0.085  0.00  0.00    -0.048 S 
ATOM     16  N   UNL     1       6.440   0.777   0.148  0.00  0.00    -0.270 N 
ATOM     17  C   UNL     1       7.670   0.375   0.531  0.00  0.00    +0.219 C 
ATOM     18  O   UNL     1       7.921  -0.812   0.549  0.00  0.00    -0.275 OA
ATOM     19  C   UNL     1       8.737   1.352   0.936  0.00  0.00    +0.109 C 
ATOM     20  C   UNL     1       8.705   2.605   0.056  0.00  0.00    +0.063 C 
ATOM     21  H   UNL     1       5.616   0.065  -0.006  0.00  0.00    +0.156 HD
ENDROOT
BRANCH  20  22
ATOM     22  C   UNL     1       9.489   3.710   0.715  0.00  0.00    -0.036 A 
ATOM     23  C   UNL     1       9.130   4.156   1.974  0.00  0.00    +0.004 A 
ATOM     24  C   UNL     1       9.848   5.169   2.582  0.00  0.00    +0.004 A 
ATOM     25  C   UNL     1      10.927   5.738   1.933  0.00  0.00    +0.045 A 
ATOM     26  C   UNL     1      11.289   5.292   0.671  0.00  0.00    +0.121 A 
ATOM     27  C   UNL     1      10.571   4.272   0.065  0.00  0.00    +0.050 A 
BRANCH  26  28
ATOM     28  O   UNL     1      12.350   5.850   0.030  0.00  0.00    -0.489 OA
BRANCH  28  29
ATOM     29  C   UNL     1      13.121   6.805   0.763  0.00  0.00    +0.173 C 
ATOM     30  C   UNL     1      12.507   8.211   0.607  0.00  0.00    +0.044 C 
ATOM     31  C   UNL     1      13.733   9.156   0.535  0.00  0.00    +0.004 C 
ATOM     32  C   UNL     1      14.750   8.333  -0.294  0.00  0.00    +0.004 C 
ATOM     33  C   UNL     1      14.547   6.882   0.190  0.00  0.00    +0.044 C 
ENDBRANCH  28  29
ENDBRANCH  26  28
ENDBRANCH  20  22
TORSDOF 3
