REMARK  Name = ZINC32809617
REMARK  9 active torsions:
REMARK  status: ('A' for Active; 'I' for Inactive)
REMARK    1  A    between atoms: C_1  and  C_2
REMARK    2  A    between atoms: N_12  and  C_13
REMARK    3  A    between atoms: C_13  and  C_15
REMARK    4  A    between atoms: C_13  and  C_16
REMARK    5  A    between atoms: N_18  and  C_19
REMARK    6  A    between atoms: C_19  and  C_21
REMARK    7  A    between atoms: C_19  and  C_31
REMARK    8  A    between atoms: C_31  and  C_32
REMARK    9  A    between atoms: C_31  and  C_33
REMARK                            x       y       z     vdW  Elec       q    Type
REMARK                         _______ _______ _______ _____ _____    ______ ____
ROOT
ATOM      1  C   UNL     1      -5.890  -1.004   1.063  0.00  0.00    +0.236 C 
ATOM      2  O   UNL     1      -6.151  -2.155   0.785  0.00  0.00    -0.274 OA
ATOM      3  N   UNL     1      -4.937  -0.344   0.374  0.00  0.00    -0.307 N 
ATOM      4  H   UNL     1      -4.700   0.700   0.626  0.00  0.00    +0.149 HD
ENDROOT
BRANCH   1   5
ATOM      5  C   UNL     1      -6.630  -0.311   2.178  0.00  0.00    +0.174 C 
ATOM      6  C   UNL     1      -5.634   0.131   3.253  0.00  0.00    +0.041 C 
BRANCH   5  18
ATOM      7  C   UNL     1      -9.349   0.334   2.017  0.00  0.00    +0.086 C 
ATOM      8  C   UNL     1      -8.930  -0.943   2.699  0.00  0.00    +0.111 A 
ATOM      9  N   UNL     1      -9.854  -1.708   3.194  0.00  0.00    -0.234 NA
ATOM     10  C   UNL     1      -9.553  -2.872   3.822  0.00  0.00    +0.078 A 
ATOM     11  C   UNL     1     -10.546  -3.696   4.355  0.00  0.00    +0.028 A 
ATOM     12  C   UNL     1     -10.194  -4.870   4.983  0.00  0.00    +0.002 A 
ATOM     13  C   UNL     1      -8.862  -5.245   5.095  0.00  0.00    +0.001 A 
ATOM     14  C   UNL     1      -7.864  -4.449   4.577  0.00  0.00    +0.015 A 
ATOM     15  C   UNL     1      -8.199  -3.257   3.938  0.00  0.00    +0.065 A 
ATOM     16  C   UNL     1      -7.177  -2.370   3.361  0.00  0.00    +0.262 A 
ATOM     17  O   UNL     1      -5.993  -2.646   3.422  0.00  0.00    -0.267 OA
ATOM     18  N   UNL     1      -7.605  -1.233   2.764  0.00  0.00    -0.285 N 
ENDBRANCH   5  18
ENDBRANCH   1   5
BRANCH   3  19
ATOM     19  C   UNL     1      -4.218  -1.018  -0.710  0.00  0.00    +0.106 C 
BRANCH  19  20
ATOM     20  C   UNL     1      -2.872  -0.368  -0.900  0.00  0.00    -0.023 A 
ATOM     21  C   UNL     1      -2.752   1.007  -0.816  0.00  0.00    +0.009 A 
ATOM     22  C   UNL     1      -1.519   1.607  -0.994  0.00  0.00    +0.050 A 
ATOM     23  C   UNL     1      -0.399   0.831  -1.250  0.00  0.00    +0.162 A 
ATOM     24  C   UNL     1      -0.520  -0.551  -1.333  0.00  0.00    +0.162 A 
ATOM     25  C   UNL     1      -1.760  -1.147  -1.158  0.00  0.00    +0.055 A 
ATOM     26  O   UNL     1       0.567  -1.332  -1.583  0.00  0.00    -0.485 OA
ATOM     27  C   UNL     1       1.719  -0.676  -2.124  0.00  0.00    +0.270 C 
ATOM     28  C   UNL     1       1.967   0.604  -1.314  0.00  0.00    +0.270 C 
ATOM     29  O   UNL     1       0.808   1.436  -1.424  0.00  0.00    -0.485 OA
ENDBRANCH  19  20
BRANCH  19  30
ATOM     30  C   UNL     1      -5.026  -0.905  -2.005  0.00  0.00    +0.008 C 
ATOM     31  C   UNL     1      -6.393  -1.565  -1.812  0.00  0.00    +0.009 C 
ATOM     32  C   UNL     1      -5.218   0.571  -2.360  0.00  0.00    +0.009 C 
ENDBRANCH  19  30
ENDBRANCH   3  19
TORSDOF 5
