REMARK  Name = ZINC15538130
REMARK  7 active torsions:
REMARK  status: ('A' for Active; 'I' for Inactive)
REMARK    1  A    between atoms: C_1  and  C_2
REMARK    2  A    between atoms: C_2  and  C_4
REMARK    3  A    between atoms: C_2  and  N_10
REMARK    4  A    between atoms: N_10  and  C_11
REMARK    5  A    between atoms: C_12  and  C_14
REMARK    6  A    between atoms: C_14  and  C_15
REMARK    7  A    between atoms: C_15  and  N_16
REMARK                            x       y       z     vdW  Elec       q    Type
REMARK                         _______ _______ _______ _____ _____    ______ ____
ROOT
ATOM      1  C   UNL     1       1.996   6.024   4.188  0.00  0.00    +0.127 C 
ENDROOT
BRANCH   1   2
ATOM      2  N   UNL     1       2.976   6.526   5.154  0.00  0.00    -0.224 N 
ATOM      3  C   UNL     1       3.558   7.741   5.082  0.00  0.00    +0.247 C 
ATOM      4  O   UNL     1       3.378   8.592   4.238  0.00  0.00    -0.273 OA
ATOM      5  C   UNL     1       4.483   7.817   6.276  0.00  0.00    +0.113 C 
ATOM      6  C   UNL     1       4.069   8.960   7.196  0.00  0.00    +0.035 C 
ATOM      7  C   UNL     1       4.999   9.003   8.411  0.00  0.00    +0.003 C 
ATOM      8  C   UNL     1       6.442   9.200   7.941  0.00  0.00    +0.000 C 
ATOM      9  C   UNL     1       6.850   8.034   7.040  0.00  0.00    +0.003 C 
ATOM     10  C   UNL     1       5.927   7.987   5.819  0.00  0.00    +0.035 C 
ATOM     11  N   UNL     1       4.304   6.524   6.948  0.00  0.00    -0.285 N 
ATOM     12  C   UNL     1       3.400   5.839   6.222  0.00  0.00    +0.309 C 
ATOM     13  O   UNL     1       3.014   4.721   6.504  0.00  0.00    -0.252 OA
ATOM     14  H   UNL     1       4.747   6.224   7.757  0.00  0.00    +0.151 HD
ENDBRANCH   1   2
BRANCH   1  15
ATOM     15  C   UNL     1       2.723   5.289   3.060  0.00  0.00    +0.115 C 
BRANCH  15  18
ATOM     16  N   UNL     1       2.130   4.089   0.980  0.00  0.00    -0.298 N 
ATOM     17  C   UNL     1       3.559   3.848   0.767  0.00  0.00    +0.132 C 
ATOM     18  C   UNL     1       1.716   4.773   2.065  0.00  0.00    +0.217 C 
ATOM     19  O   UNL     1       0.533   4.972   2.242  0.00  0.00    -0.276 OA
BRANCH  16  21
ATOM     20  C   UNL     1       1.504   4.099  -1.384  0.00  0.00    +0.033 C 
ATOM     21  C   UNL     1       1.150   3.587   0.013  0.00  0.00    +0.103 C 
BRANCH  21  22
ATOM     22  C   UNL     1       1.169   2.080   0.015  0.00  0.00    -0.027 A 
ATOM     23  C   UNL     1       1.491   1.394   1.172  0.00  0.00    +0.005 A 
ATOM     24  C   UNL     1       1.508   0.012   1.174  0.00  0.00    +0.000 A 
ATOM     25  C   UNL     1       1.203  -0.685   0.020  0.00  0.00    +0.000 A 
ATOM     26  C   UNL     1       0.881   0.001  -1.137  0.00  0.00    +0.000 A 
ATOM     27  C   UNL     1       0.864   1.383  -1.139  0.00  0.00    +0.005 A 
ENDBRANCH  21  22
ENDBRANCH  16  21
ENDBRANCH  15  18
ENDBRANCH   1  15
TORSDOF 5
