REMARK  Name = ZINC63868175
REMARK  7 active torsions:
REMARK  status: ('A' for Active; 'I' for Inactive)
REMARK    1  A    between atoms: C_3  and  C_9
REMARK    2  A    between atoms: C_9  and  N_10
REMARK    3  A    between atoms: C_16  and  C_18
REMARK    4  A    between atoms: C_18  and  C_19
REMARK    5  A    between atoms: N_21  and  C_22
REMARK    6  A    between atoms: C_22  and  C_23
REMARK    7  A    between atoms: C_23  and  N_24
REMARK                            x       y       z     vdW  Elec       q    Type
REMARK                         _______ _______ _______ _____ _____    ______ ____
ROOT
ATOM      1  N   UNL     1       4.232   2.246   1.577  0.00  0.00    -0.285 NA
ATOM      2  C   UNL     1       4.811   0.954   1.979  0.00  0.00    +0.104 C 
ATOM      3  C   UNL     1       5.312   1.067   3.420  0.00  0.00    +0.119 C 
ATOM      4  N   UNL     1       6.154   2.251   3.565  0.00  0.00    -0.313 N 
ATOM      5  C   UNL     1       6.143   3.262   2.690  0.00  0.00    +0.231 C 
ATOM      6  O   UNL     1       6.852   4.223   2.904  0.00  0.00    -0.274 OA
ATOM      7  C   UNL     1       5.290   3.258   1.454  0.00  0.00    +0.152 C 
ATOM      8  H   UNL     1       6.746   2.307   4.331  0.00  0.00    +0.149 HD
ENDROOT
BRANCH   1   9
ATOM      9  C   UNL     1       3.478   2.118   0.323  0.00  0.00    +0.123 C 
BRANCH   9  12
ATOM     10  C   UNL     1      -0.154   1.396   1.062  0.00  0.00    +0.003 A 
ATOM     11  C   UNL     1       1.026   2.076   0.824  0.00  0.00    +0.008 A 
ATOM     12  C   UNL     1       2.193   1.375   0.583  0.00  0.00    +0.005 A 
ATOM     13  C   UNL     1       2.181  -0.009   0.581  0.00  0.00    +0.163 A 
ATOM     14  C   UNL     1       0.997  -0.691   0.821  0.00  0.00    +0.159 A 
ATOM     15  C   UNL     1      -0.169   0.014   1.061  0.00  0.00    +0.041 A 
ATOM     16  F   UNL     1       0.983  -2.042   0.819  0.00  0.00    -0.202 F 
ATOM     17  F   UNL     1       3.321  -0.695   0.346  0.00  0.00    -0.202 F 
ENDBRANCH   9  12
ENDBRANCH   1   9
BRANCH   7  18
ATOM     18  C   UNL     1       4.654   4.638   1.271  0.00  0.00    +0.124 C 
BRANCH  18  19
ATOM     19  C   UNL     1       3.803   4.961   2.472  0.00  0.00    +0.215 C 
ATOM     20  O   UNL     1       3.631   4.128   3.336  0.00  0.00    -0.276 OA
ATOM     21  N   UNL     1       3.233   6.177   2.586  0.00  0.00    -0.314 N 
ATOM     22  H   UNL     1       3.370   6.844   1.895  0.00  0.00    +0.149 HD
BRANCH  21  23
ATOM     23  C   UNL     1       2.406   6.492   3.753  0.00  0.00    +0.123 C 
BRANCH  23  24
ATOM     24  C   UNL     1       1.884   7.926   3.637  0.00  0.00    +0.128 C 
BRANCH  24  25
ATOM     25  N   UNL     1       1.057   8.241   4.804  0.00  0.00    -0.283 N 
ATOM     26  C   UNL     1      -0.393   8.018   4.906  0.00  0.00    +0.128 C 
ATOM     27  C   UNL     1      -0.745   8.518   6.321  0.00  0.00    +0.124 C 
ATOM     28  N   UNL     1       0.544   8.969   6.866  0.00  0.00    -0.298 N 
ATOM     29  C   UNL     1       1.502   8.771   5.950  0.00  0.00    +0.302 C 
ATOM     30  O   UNL     1       2.669   9.053   6.141  0.00  0.00    -0.253 OA
ATOM     31  H   UNL     1       0.680   9.345   7.749  0.00  0.00    +0.150 HD
ENDBRANCH  24  25
ENDBRANCH  23  24
ENDBRANCH  21  23
ENDBRANCH  18  19
ENDBRANCH   7  18
TORSDOF 7
