REMARK  Name = ZINC41572251
REMARK  6 active torsions:
REMARK  status: ('A' for Active; 'I' for Inactive)
REMARK    1  A    between atoms: C_1  and  C_2
REMARK    2  A    between atoms: C_4  and  C_23
REMARK    3  A    between atoms: C_5  and  S_9
REMARK    4  A    between atoms: C_6  and  C_8
REMARK    5  A    between atoms: S_9  and  N_12
REMARK    6  A    between atoms: C_15  and  N_18
REMARK                            x       y       z     vdW  Elec       q    Type
REMARK                         _______ _______ _______ _____ _____    ______ ____
ROOT
ATOM      1  S   UNL     1      -0.969  -4.368   0.121  0.00  0.00    +0.061 S 
ATOM      2  O   UNL     1      -1.674  -4.509   1.346  0.00  0.00    -0.153 OA
ATOM      3  O   UNL     1      -1.564  -4.652  -1.138  0.00  0.00    -0.153 OA
ENDROOT
BRANCH   1   8
ATOM      4  C   UNL     1       0.936   1.352  -0.122  0.00  0.00    +0.044 C 
ATOM      5  C   UNL     1       0.460  -0.076  -0.061  0.00  0.00    -0.050 A 
ATOM      6  C   UNL     1       0.213  -0.671   1.162  0.00  0.00    +0.008 A 
ATOM      7  C   UNL     1      -0.224  -1.981   1.218  0.00  0.00    -0.024 A 
ATOM      8  C   UNL     1      -0.413  -2.697   0.050  0.00  0.00    +0.111 A 
ATOM      9  C   UNL     1      -0.167  -2.102  -1.173  0.00  0.00    -0.024 A 
ATOM     10  C   UNL     1       0.266  -0.790  -1.229  0.00  0.00    +0.008 A 
ATOM     11  C   UNL     1      -0.373  -2.882  -2.446  0.00  0.00    +0.046 C 
ATOM     12  C   UNL     1      -0.493  -2.630   2.551  0.00  0.00    +0.046 C 
ENDBRANCH   1   8
BRANCH   1  13
ATOM     13  N   UNL     1       0.377  -5.326   0.236  0.00  0.00    -0.178 NA
ATOM     14  C   UNL     1       1.132  -5.887  -0.900  0.00  0.00    +0.108 C 
ATOM     15  C   UNL     1       2.555  -6.140  -0.343  0.00  0.00    +0.003 C 
ATOM     16  C   UNL     1       2.245  -6.609   1.103  0.00  0.00    -0.051 C 
ATOM     17  C   UNL     1       1.020  -5.754   1.487  0.00  0.00    +0.094 C 
BRANCH  16  18
ATOM     18  N   UNL     1       3.377  -6.326   1.995  0.00  0.00    +0.382 N 
ATOM     19  C   UNL     1       3.089  -6.827   3.363  0.00  0.00    -0.078 C 
ATOM     20  C   UNL     1       4.498  -6.978   3.990  0.00  0.00    -0.020 C 
ATOM     21  C   UNL     1       5.351  -7.485   2.805  0.00  0.00    -0.020 C 
ATOM     22  C   UNL     1       4.580  -7.059   1.542  0.00  0.00    -0.078 C 
ATOM     23  H   UNL     1       3.563  -5.335   2.019  0.00  0.00    -0.081 HD
ENDBRANCH  16  18
ENDBRANCH   1  13
TORSDOF 3
