REMARK  Name = ZINC65412067
REMARK  7 active torsions:
REMARK  status: ('A' for Active; 'I' for Inactive)
REMARK    1  A    between atoms: C_1  and  C_2
REMARK    2  A    between atoms: C_4  and  C_8
REMARK    3  A    between atoms: C_5  and  C_7
REMARK    4  A    between atoms: C_8  and  C_9
REMARK    5  A    between atoms: C_8  and  N_10
REMARK    6  A    between atoms: N_13  and  C_14
REMARK    7  A    between atoms: C_17  and  N_21
REMARK                            x       y       z     vdW  Elec       q    Type
REMARK                         _______ _______ _______ _____ _____    ______ ____
ROOT
ATOM      1  N   UNL     1      -2.755  -3.100  -0.580  0.00  0.00    -0.292 N 
ATOM      2  C   UNL     1      -3.472  -4.086  -1.155  0.00  0.00    +0.304 C 
ATOM      3  O   UNL     1      -3.026  -5.216  -1.197  0.00  0.00    -0.252 OA
ATOM      4  N   UNL     1      -4.682  -3.818  -1.684  0.00  0.00    -0.269 N 
ATOM      5  H   UNL     1      -3.110  -2.198  -0.547  0.00  0.00    +0.151 HD
ATOM      6  H   UNL     1      -5.067  -2.933  -1.591  0.00  0.00    +0.156 HD
ENDROOT
BRANCH   4   7
ATOM      7  C   UNL     1      -5.386  -4.821  -2.367  0.00  0.00    +0.036 A 
ATOM      8  C   UNL     1      -6.164  -4.494  -3.469  0.00  0.00    +0.025 A 
ATOM      9  C   UNL     1      -6.857  -5.480  -4.143  0.00  0.00    +0.026 A 
ATOM     10  C   UNL     1      -6.777  -6.799  -3.717  0.00  0.00    +0.049 A 
ATOM     11  C   UNL     1      -5.997  -7.127  -2.615  0.00  0.00    +0.064 A 
ATOM     12  C   UNL     1      -5.299  -6.140  -1.945  0.00  0.00    +0.045 A 
ATOM     13 CL   UNL     1      -5.896  -8.776  -2.082  0.00  0.00    -0.082 Cl
BRANCH  10  14
ATOM     14  N   UNL     1      -7.480  -7.799  -4.399  0.00  0.00    -0.318 N 
ATOM     15  C   UNL     1      -8.857  -8.160  -4.022  0.00  0.00    +0.124 C 
ATOM     16  C   UNL     1      -9.769  -7.880  -5.219  0.00  0.00    +0.123 C 
ATOM     17  N   UNL     1      -9.190  -8.410  -6.445  0.00  0.00    -0.313 N 
ATOM     18  C   UNL     1      -7.893  -8.671  -6.619  0.00  0.00    +0.230 C 
ATOM     19  O   UNL     1      -7.518  -9.036  -7.713  0.00  0.00    -0.274 OA
ATOM     20  C   UNL     1      -6.876  -8.528  -5.525  0.00  0.00    +0.200 C 
ATOM     21  H   UNL     1      -9.789  -8.587  -7.187  0.00  0.00    +0.149 HD
ENDBRANCH  10  14
ENDBRANCH   4   7
BRANCH   1  22
ATOM     22  C   UNL     1      -1.439  -3.390  -0.006  0.00  0.00    +0.105 C 
ATOM     23  C   UNL     1      -1.609  -3.902   1.426  0.00  0.00    +0.033 C 
BRANCH  22  27
ATOM     24  C   UNL     1      -0.037   1.507   0.047  0.00  0.00    +0.086 C 
ATOM     25  C   UNL     1      -0.011   0.000   0.029  0.00  0.00    +0.103 A 
ATOM     26  C   UNL     1      -1.089  -0.805   0.024  0.00  0.00    +0.050 A 
ATOM     27  C   UNL     1      -0.607  -2.134   0.005  0.00  0.00    +0.013 A 
ATOM     28  C   UNL     1       0.736  -2.062   0.000  0.00  0.00    +0.107 A 
ATOM     29  O   UNL     1       1.091  -0.766   0.009  0.00  0.00    -0.465 OA
ATOM     30  C   UNL     1       1.682  -3.235  -0.018  0.00  0.00    +0.086 C 
ENDBRANCH  22  27
ENDBRANCH   1  22
TORSDOF 4
