REMARK  Name = ZINC09724052
REMARK  9 active torsions:
REMARK  status: ('A' for Active; 'I' for Inactive)
REMARK    1  A    between atoms: C_1  and  C_2
REMARK    2  A    between atoms: C_2  and  C_4
REMARK    3  A    between atoms: C_2  and  N_11
REMARK    4  A    between atoms: C_12  and  C_14
REMARK    5  A    between atoms: C_14  and  C_16
REMARK    6  A    between atoms: C_14  and  S_17
REMARK    7  A    between atoms: S_17  and  C_18
REMARK    8  A    between atoms: C_21  and  C_29
REMARK    9  A    between atoms: N_22  and  C_23
REMARK                            x       y       z     vdW  Elec       q    Type
REMARK                         _______ _______ _______ _____ _____    ______ ____
ROOT
ATOM      1  S   UNL     1      -6.951   0.585   2.516  0.00  0.00    -0.074 S 
ENDROOT
BRANCH   1   2
ATOM      2  C   UNL     1      -7.955   1.647   3.499  0.00  0.00    +0.193 A 
ATOM      3  N   UNL     1      -7.614   2.826   3.969  0.00  0.00    -0.122 NA
ATOM      4  N   UNL     1      -8.583   3.330   4.646  0.00  0.00    -0.125 NA
ATOM      5  C   UNL     1      -9.605   2.502   4.652  0.00  0.00    +0.201 A 
ATOM      6  N   UNL     1      -9.234   1.400   3.912  0.00  0.00    -0.297 N 
BRANCH   6   7
ATOM      7  C   UNL     1     -10.042   0.211   3.629  0.00  0.00    +0.091 C 
ATOM      8  C   UNL     1      -9.339  -1.028   4.187  0.00  0.00    +0.025 C 
ATOM      9  C   UNL     1     -10.182  -2.269   3.892  0.00  0.00    +0.002 C 
ATOM     10  C   UNL     1     -10.356  -2.420   2.379  0.00  0.00    +0.000 C 
ATOM     11  C   UNL     1     -11.059  -1.181   1.820  0.00  0.00    +0.002 C 
ATOM     12  C   UNL     1     -10.215   0.061   2.116  0.00  0.00    +0.025 C 
ENDBRANCH   6   7
BRANCH   5  13
ATOM     13  C   UNL     1     -10.899   2.714   5.317  0.00  0.00    +0.172 A 
ATOM     14  C   UNL     1     -11.369   3.901   5.793  0.00  0.00    +0.053 A 
ATOM     15  C   UNL     1     -12.639   3.642   6.345  0.00  0.00    +0.042 A 
ATOM     16  C   UNL     1     -12.880   2.326   6.182  0.00  0.00    +0.196 A 
ATOM     17  O   UNL     1     -11.830   1.769   5.556  0.00  0.00    -0.460 OA
ENDBRANCH   5  13
ENDBRANCH   1   2
BRANCH   1  18
ATOM     18  C   UNL     1      -5.450   1.590   2.398  0.00  0.00    +0.137 C 
ATOM     19  C   UNL     1      -4.827   1.741   3.787  0.00  0.00    +0.029 C 
BRANCH  18  21
ATOM     20  N   UNL     1      -3.470   1.632   0.916  0.00  0.00    -0.308 N 
ATOM     21  C   UNL     1      -4.466   0.917   1.476  0.00  0.00    +0.227 C 
ATOM     22  O   UNL     1      -4.569  -0.268   1.240  0.00  0.00    -0.275 OA
ATOM     23  H   UNL     1      -3.388   2.580   1.105  0.00  0.00    +0.149 HD
BRANCH  20  25
ATOM     24  C   UNL     1      -3.087   0.940  -1.398  0.00  0.00    +0.033 C 
ATOM     25  C   UNL     1      -2.513   0.978   0.020  0.00  0.00    +0.100 C 
BRANCH  25  26
ATOM     26  C   UNL     1      -1.219   1.750   0.017  0.00  0.00    -0.027 A 
ATOM     27  C   UNL     1      -0.013   1.076   0.008  0.00  0.00    +0.008 A 
ATOM     28  C   UNL     1       1.175   1.783   0.000  0.00  0.00    +0.038 A 
ATOM     29  C   UNL     1       1.156   3.167   0.008  0.00  0.00    +0.123 A 
ATOM     30  C   UNL     1      -0.053   3.842   0.022  0.00  0.00    +0.038 A 
ATOM     31  C   UNL     1      -1.240   3.133   0.030  0.00  0.00    +0.008 A 
ATOM     32  F   UNL     1       2.316   3.859  -0.000  0.00  0.00    -0.205 F 
ENDBRANCH  25  26
ENDBRANCH  20  25
ENDBRANCH  18  21
ENDBRANCH   1  18
TORSDOF 7
