REMARK  Name = ZINC62038745
REMARK  9 active torsions:
REMARK  status: ('A' for Active; 'I' for Inactive)
REMARK    1  A    between atoms: C_1  and  C_2
REMARK    2  A    between atoms: C_3  and  C_28
REMARK    3  A    between atoms: C_8  and  S_12
REMARK    4  A    between atoms: S_12  and  C_13
REMARK    5  A    between atoms: C_13  and  C_15
REMARK    6  A    between atoms: C_13  and  C_16
REMARK    7  A    between atoms: N_18  and  C_19
REMARK    8  A    between atoms: C_21  and  C_26
REMARK    9  A    between atoms: C_24  and  O_25
REMARK                            x       y       z     vdW  Elec       q    Type
REMARK                         _______ _______ _______ _____ _____    ______ ____
ROOT
ATOM      1  C   UNL     1       0.013   1.502   0.094  0.00  0.00    +0.052 C 
ATOM      2  C   UNL     1       0.029  -0.005   0.075  0.00  0.00    -0.003 A 
ATOM      3  C   UNL     1      -1.023  -0.858   0.069  0.00  0.00    +0.007 A 
ATOM      4  C   UNL     1      -0.763  -2.293   0.048  0.00  0.00    +0.080 A 
ATOM      5  C   UNL     1      -1.719  -3.424   0.038  0.00  0.00    +0.283 A 
ATOM      6  O   UNL     1      -2.922  -3.213   0.046  0.00  0.00    -0.265 OA
ATOM      7  N   UNL     1      -1.254  -4.676   0.019  0.00  0.00    -0.185 NA
ATOM      8  C   UNL     1       0.034  -4.948   0.009  0.00  0.00    +0.171 A 
ATOM      9  N   UNL     1       0.970  -3.957   0.018  0.00  0.00    -0.328 N 
ATOM     10  C   UNL     1       0.586  -2.651   0.037  0.00  0.00    +0.093 A 
ATOM     11  S   UNL     1       1.439  -1.097   0.046  0.00  0.00    -0.075 S 
ATOM     12  H   UNL     1       1.913  -4.183   0.011  0.00  0.00    +0.168 HD
ENDROOT
BRANCH   3  13
ATOM     13  C   UNL     1      -2.413  -0.342   0.083  0.00  0.00    -0.016 A 
ATOM     14  C   UNL     1      -3.238  -0.586   1.180  0.00  0.00    +0.011 A 
ATOM     15  C   UNL     1      -4.531  -0.104   1.188  0.00  0.00    +0.039 A 
ATOM     16  C   UNL     1      -5.009   0.622   0.110  0.00  0.00    +0.123 A 
ATOM     17  C   UNL     1      -4.193   0.866  -0.983  0.00  0.00    +0.039 A 
ATOM     18  C   UNL     1      -2.897   0.393  -0.998  0.00  0.00    +0.011 A 
ATOM     19  F   UNL     1      -6.276   1.092   0.122  0.00  0.00    -0.205 F 
ENDBRANCH   3  13
BRANCH   8  20
ATOM     20  S   UNL     1       0.560  -6.630  -0.016  0.00  0.00    -0.075 S 
BRANCH  20  21
ATOM     21  C   UNL     1      -0.990  -7.574  -0.022  0.00  0.00    +0.137 C 
ATOM     22  C   UNL     1      -1.749  -7.301  -1.322  0.00  0.00    +0.029 C 
BRANCH  21  23
ATOM     23  C   UNL     1      -0.682  -9.045   0.081  0.00  0.00    +0.230 C 
ATOM     24  O   UNL     1       0.422  -9.456  -0.209  0.00  0.00    -0.274 OA
ATOM     25  N   UNL     1      -1.633  -9.905   0.495  0.00  0.00    -0.282 N 
ATOM     26  H   UNL     1      -2.495  -9.571   0.789  0.00  0.00    +0.155 HD
BRANCH  25  27
ATOM     27  C   UNL     1      -1.377 -11.283   0.501  0.00  0.00    +0.076 A 
ATOM     28  C   UNL     1      -0.110 -11.750   0.795  0.00  0.00    +0.038 A 
ATOM     29  C   UNL     1       0.141 -13.127   0.799  0.00  0.00    +0.016 A 
ATOM     30  C   UNL     1      -0.893 -14.024   0.507  0.00  0.00    +0.015 A 
ATOM     31  C   UNL     1      -2.153 -13.552   0.216  0.00  0.00    +0.048 A 
ATOM     32  C   UNL     1      -2.404 -12.185   0.216  0.00  0.00    +0.138 A 
BRANCH  32  33
ATOM     33  O   UNL     1      -3.650 -11.726  -0.066  0.00  0.00    -0.505 OA
ATOM     34  H   UNL     1      -3.803 -11.558  -1.006  0.00  0.00    +0.292 HD
ENDBRANCH  32  33
BRANCH  29  35
ATOM     35  C   UNL     1       1.486 -13.629   1.110  0.00  0.00    +0.258 C 
ATOM     36  O   UNL     1       1.701 -14.823   1.114  0.00  0.00    -0.296 OA
ENDBRANCH  29  35
ENDBRANCH  25  27
ENDBRANCH  21  23
ENDBRANCH  20  21
ENDBRANCH   8  20
TORSDOF 7
