REMARK  Name = ZINC39770823
REMARK  12 active torsions:
REMARK  status: ('A' for Active; 'I' for Inactive)
REMARK    1  A    between atoms: C_1  and  C_2
REMARK    2  A    between atoms: C_5  and  S_8
REMARK    3  A    between atoms: S_8  and  C_11
REMARK    4  A    between atoms: C_12  and  N_21
REMARK    5  A    between atoms: C_14  and  C_16
REMARK    6  A    between atoms: N_21  and  C_22
REMARK    7  A    between atoms: C_22  and  C_23
REMARK    8  A    between atoms: C_23  and  C_24
REMARK    9  A    between atoms: C_27  and  O_32
REMARK   10  A    between atoms: C_28  and  O_30
REMARK   11  A    between atoms: O_30  and  C_31
REMARK   12  A    between atoms: O_32  and  C_33
REMARK                            x       y       z     vdW  Elec       q    Type
REMARK                         _______ _______ _______ _____ _____    ______ ____
ROOT
ATOM      1  C   UNL     1       1.752  -5.029  -0.035  0.00  0.00    +0.243 A 
ATOM      2  C   UNL     1       2.513  -5.244  -1.134  0.00  0.00    +0.233 A 
ATOM      3  O   UNL     1       3.739  -5.609  -0.706  0.00  0.00    -0.419 OA
ATOM      4  C   UNL     1       3.717  -5.615   0.642  0.00  0.00    +0.238 A 
ATOM      5  N   UNL     1       2.518  -5.259   1.044  0.00  0.00    -0.188 NA
ENDROOT
BRANCH   4   6
ATOM      6  C   UNL     1       4.848  -5.956   1.517  0.00  0.00    +0.074 A 
ATOM      7  C   UNL     1       6.135  -6.327   1.173  0.00  0.00    +0.021 A 
ATOM      8  C   UNL     1       7.029  -6.601   2.183  0.00  0.00    +0.008 A 
ATOM      9  C   UNL     1       6.623  -6.499   3.475  0.00  0.00    +0.046 A 
ATOM     10  S   UNL     1       4.920  -5.993   3.300  0.00  0.00    -0.092 S 
ENDBRANCH   4   6
BRANCH   1  11
ATOM     11  S   UNL     1       0.063  -4.530  -0.023  0.00  0.00    +0.047 S 
ATOM     12  O   UNL     1      -0.476  -4.950   1.223  0.00  0.00    -0.163 OA
ATOM     13  O   UNL     1      -0.490  -4.937  -1.267  0.00  0.00    -0.163 OA
BRANCH  11  18
ATOM     14  C   UNL     1      -0.018   1.503   0.010  0.00  0.00    +0.044 C 
ATOM     15  C   UNL     1       0.002  -0.004   0.002  0.00  0.00    -0.050 A 
ATOM     16  C   UNL     1       0.006  -0.689  -1.199  0.00  0.00    +0.005 A 
ATOM     17  C   UNL     1       0.025  -2.071  -1.206  0.00  0.00    +0.028 A 
ATOM     18  C   UNL     1       0.040  -2.768  -0.013  0.00  0.00    +0.095 A 
ATOM     19  C   UNL     1       0.037  -2.084   1.188  0.00  0.00    +0.028 A 
ATOM     20  C   UNL     1       0.023  -0.702   1.195  0.00  0.00    +0.005 A 
ENDBRANCH  11  18
ENDBRANCH   1  11
BRANCH   2  21
ATOM     21  N   UNL     1       2.107  -5.113  -2.459  0.00  0.00    -0.312 N 
ATOM     22  H   UNL     1       1.197  -4.844  -2.663  0.00  0.00    +0.149 HD
BRANCH  21  23
ATOM     23  C   UNL     1       3.052  -5.383  -3.546  0.00  0.00    +0.109 C 
BRANCH  23  24
ATOM     24  C   UNL     1       2.357  -5.167  -4.891  0.00  0.00    +0.054 C 
BRANCH  24  25
ATOM     25  C   UNL     1       3.329  -5.444  -6.009  0.00  0.00    -0.042 A 
ATOM     26  C   UNL     1       4.117  -4.422  -6.507  0.00  0.00    +0.007 A 
ATOM     27  C   UNL     1       5.010  -4.671  -7.532  0.00  0.00    +0.049 A 
ATOM     28  C   UNL     1       5.118  -5.947  -8.063  0.00  0.00    +0.161 A 
ATOM     29  C   UNL     1       4.325  -6.975  -7.561  0.00  0.00    +0.162 A 
ATOM     30  C   UNL     1       3.435  -6.720  -6.530  0.00  0.00    +0.053 A 
BRANCH  29  31
ATOM     31  O   UNL     1       4.428  -8.229  -8.078  0.00  0.00    -0.491 OA
ATOM     32  C   UNL     1       3.583  -9.234  -7.514  0.00  0.00    +0.277 C 
ENDBRANCH  29  31
BRANCH  28  33
ATOM     33  O   UNL     1       5.996  -6.194  -9.072  0.00  0.00    -0.491 OA
ATOM     34  C   UNL     1       6.776  -5.090  -9.536  0.00  0.00    +0.277 C 
ENDBRANCH  28  33
ENDBRANCH  24  25
ENDBRANCH  23  24
ENDBRANCH  21  23
ENDBRANCH   2  21
TORSDOF 9
