REMARK  Name = ZINC15980739
REMARK  4 active torsions:
REMARK  status: ('A' for Active; 'I' for Inactive)
REMARK    1  A    between atoms: C_1  and  C_2
REMARK    2  A    between atoms: C_5  and  N_8
REMARK    3  A    between atoms: N_10  and  N_25
REMARK    4  A    between atoms: C_11  and  C_14
REMARK                            x       y       z     vdW  Elec       q    Type
REMARK                         _______ _______ _______ _____ _____    ______ ____
ROOT
ATOM      1  N   UNL     1      -2.175   8.483  -0.702  0.00  0.00    -0.222 NA
ATOM      2  C   UNL     1      -1.197   7.682  -0.324  0.00  0.00    +0.195 A 
ATOM      3  N   UNL     1      -1.234   6.332  -0.050  0.00  0.00    -0.207 N 
ATOM      4  C   UNL     1      -0.076   5.709   0.331  0.00  0.00    +0.082 A 
ATOM      5  C   UNL     1       1.064   6.424   0.434  0.00  0.00    +0.077 A 
ATOM      6  S   UNL     1       0.523   8.061  -0.030  0.00  0.00    -0.056 S 
ENDROOT
BRANCH   4   7
ATOM      7  C   UNL     1      -0.075   4.261   0.633  0.00  0.00    +0.003 A 
ATOM      8  C   UNL     1      -1.204   3.664   1.196  0.00  0.00    +0.014 A 
ATOM      9  C   UNL     1      -1.207   2.312   1.474  0.00  0.00    +0.048 A 
ATOM     10  C   UNL     1      -0.085   1.546   1.204  0.00  0.00    +0.142 A 
ATOM     11  C   UNL     1       1.047   2.137   0.641  0.00  0.00    +0.076 A 
ATOM     12  C   UNL     1       1.054   3.490   0.356  0.00  0.00    +0.037 A 
ATOM     13  N   UNL     1       2.172   1.344   0.372  0.00  0.00    -0.280 N 
ATOM     14  C   UNL     1       2.038  -0.000   0.359  0.00  0.00    +0.255 C 
ATOM     15  O   UNL     1       3.003  -0.707   0.157  0.00  0.00    -0.272 OA
ATOM     16  C   UNL     1       0.684  -0.619   0.597  0.00  0.00    +0.325 C 
ATOM     17  O   UNL     1      -0.076   0.213   1.477  0.00  0.00    -0.481 OA
ATOM     18  H   UNL     1       3.033   1.754   0.197  0.00  0.00    +0.155 HD
ENDBRANCH   4   7
BRANCH   1  23
ATOM     19  C   UNL     1      -1.070  13.856  -2.029  0.00  0.00    +0.044 C 
ATOM     20  C   UNL     1      -1.364  12.421  -1.675  0.00  0.00    -0.050 A 
ATOM     21  C   UNL     1      -1.220  11.432  -2.631  0.00  0.00    +0.005 A 
ATOM     22  C   UNL     1      -1.488  10.117  -2.314  0.00  0.00    +0.028 A 
ATOM     23  C   UNL     1      -1.907   9.784  -1.023  0.00  0.00    +0.067 A 
ATOM     24  C   UNL     1      -2.055  10.789  -0.064  0.00  0.00    +0.028 A 
ATOM     25  C   UNL     1      -1.778  12.099  -0.394  0.00  0.00    +0.005 A 
ENDBRANCH   1  23
BRANCH   3  26
ATOM     26  N   UNL     1      -2.431   5.612  -0.160  0.00  0.00    -0.173 NA
ATOM     27  C   UNL     1      -3.141   5.708  -1.221  0.00  0.00    +0.050 C 
ATOM     28  C   UNL     1      -2.685   6.460  -2.441  0.00  0.00    +0.064 C 
ATOM     29  C   UNL     1      -3.272   5.809  -3.729  0.00  0.00    +0.075 C 
ATOM     30  S   UNL     1      -4.965   5.407  -3.106  0.00  0.00    -0.154 S 
ATOM     31  C   UNL     1      -4.516   5.079  -1.350  0.00  0.00    +0.121 C 
ENDBRANCH   3  26
TORSDOF 3
