REMARK  Name = ZINC16260428
REMARK  8 active torsions:
REMARK  status: ('A' for Active; 'I' for Inactive)
REMARK    1  A    between atoms: C_1  and  C_2
REMARK    2  A    between atoms: C_3  and  C_26
REMARK    3  A    between atoms: N_9  and  C_12
REMARK    4  A    between atoms: C_12  and  C_13
REMARK    5  A    between atoms: N_15  and  C_16
REMARK    6  A    between atoms: C_21  and  S_22
REMARK    7  A    between atoms: S_22  and  C_23
REMARK    8  A    between atoms: C_23  and  C_24
REMARK                            x       y       z     vdW  Elec       q    Type
REMARK                         _______ _______ _______ _____ _____    ______ ____
ROOT
ATOM      1  C   UNL     1      -1.363  -0.510   5.479  0.00  0.00    +0.237 C 
ATOM      2  O   UNL     1      -2.288  -0.783   4.744  0.00  0.00    -0.274 OA
ATOM      3  N   UNL     1      -1.604  -0.064   6.728  0.00  0.00    -0.283 N 
ATOM      4  H   UNL     1      -0.866   0.093   7.338  0.00  0.00    +0.155 HD
ENDROOT
BRANCH   3   5
ATOM      5  C   UNL     1      -2.920   0.174   7.146  0.00  0.00    +0.047 A 
ATOM      6  C   UNL     1      -3.951  -0.632   6.688  0.00  0.00    +0.024 A 
ATOM      7  C   UNL     1      -5.249  -0.396   7.101  0.00  0.00    +0.002 A 
ATOM      8  C   UNL     1      -5.525   0.644   7.971  0.00  0.00    +0.001 A 
ATOM      9  C   UNL     1      -4.504   1.453   8.432  0.00  0.00    +0.016 A 
ATOM     10  C   UNL     1      -3.197   1.220   8.027  0.00  0.00    +0.029 A 
BRANCH  10  11
ATOM     11  S   UNL     1      -1.892   2.245   8.619  0.00  0.00    -0.119 S 
BRANCH  11  12
ATOM     12  C   UNL     1      -2.725   3.431   9.710  0.00  0.00    +0.101 C 
BRANCH  12  13
ATOM     13  C   UNL     1      -1.709   4.380  10.291  0.00  0.00    -0.024 C 
ATOM     14  C   UNL     1      -1.754   5.653   9.987  0.00  0.00    +0.005 C 
ENDBRANCH  12  13
ENDBRANCH  11  12
ENDBRANCH  10  11
ENDBRANCH   3   5
BRANCH   1  15
ATOM     15  C   UNL     1       0.056  -0.669   4.997  0.00  0.00    +0.222 C 
BRANCH  15  24
ATOM     16  C   UNL     1       0.006   1.467   0.008  0.00  0.00    +0.045 C 
ATOM     17  C   UNL     1       0.016  -0.040   0.005  0.00  0.00    -0.026 A 
ATOM     18  C   UNL     1       0.018  -0.717  -1.154  0.00  0.00    -0.008 A 
ATOM     19  S   UNL     1       0.031  -2.423  -0.636  0.00  0.00    -0.073 S 
ATOM     20  C   UNL     1       0.034  -2.176   1.121  0.00  0.00    +0.116 A 
ATOM     21  C   UNL     1       0.030  -0.776   1.255  0.00  0.00    +0.075 A 
ATOM     22  C   UNL     1       0.036  -0.283   2.601  0.00  0.00    +0.263 A 
ATOM     23  O   UNL     1       0.029   0.916   2.821  0.00  0.00    -0.267 OA
ATOM     24  N   UNL     1       0.050  -1.165   3.618  0.00  0.00    -0.290 N 
ATOM     25  C   UNL     1       0.058  -2.503   3.392  0.00  0.00    +0.203 A 
ATOM     26  N   UNL     1       0.043  -2.984   2.178  0.00  0.00    -0.230 NA
ATOM     27  C   UNL     1       0.009  -0.167  -2.557  0.00  0.00    +0.052 C 
ENDBRANCH  15  24
ENDBRANCH   1  15
TORSDOF 6
