REMARK  Name = ZINC35992087
REMARK  10 active torsions:
REMARK  status: ('A' for Active; 'I' for Inactive)
REMARK    1  A    between atoms: C_1  and  C_2
REMARK    2  A    between atoms: C_2  and  O_3
REMARK    3  A    between atoms: O_3  and  C_4
REMARK    4  A    between atoms: C_4  and  C_6
REMARK    5  A    between atoms: C_7  and  C_22
REMARK    6  A    between atoms: N_8  and  C_21
REMARK    7  A    between atoms: C_12  and  C_14
REMARK    8  A    between atoms: C_22  and  N_23
REMARK    9  A    between atoms: C_27  and  C_30
REMARK   10  A    between atoms: C_31  and  C_33
REMARK                            x       y       z     vdW  Elec       q    Type
REMARK                         _______ _______ _______ _____ _____    ______ ____
ROOT
ATOM      1  C   UNL     1       1.775  -2.350  -1.527  0.00  0.00    +0.080 C 
ATOM      2  C   UNL     1       1.962  -3.641  -1.876  0.00  0.00    +0.041 C 
ATOM      3  N   UNL     1       2.583  -3.973  -3.045  0.00  0.00    -0.260 N 
ATOM      4  C   UNL     1       3.048  -3.072  -3.921  0.00  0.00    +0.307 C 
ATOM      5  O   UNL     1       3.588  -3.465  -4.937  0.00  0.00    -0.252 OA
ATOM      6  N   UNL     1       2.935  -1.746  -3.713  0.00  0.00    -0.288 N 
ATOM      7  C   UNL     1       2.273  -1.283  -2.481  0.00  0.00    +0.144 C 
ATOM      8  C   UNL     1       2.753  -5.394  -3.360  0.00  0.00    +0.139 C 
ATOM      9  H   UNL     1       3.279  -1.111  -4.360  0.00  0.00    +0.151 HD
ENDROOT
BRANCH   7  10
ATOM     10  C   UNL     1       3.249  -0.411  -1.734  0.00  0.00    -0.022 A 
ATOM     11  C   UNL     1       4.554  -0.832  -1.555  0.00  0.00    +0.008 A 
ATOM     12  C   UNL     1       5.450  -0.033  -0.871  0.00  0.00    +0.038 A 
ATOM     13  C   UNL     1       5.041   1.189  -0.364  0.00  0.00    +0.123 A 
ATOM     14  C   UNL     1       3.734   1.609  -0.544  0.00  0.00    +0.038 A 
ATOM     15  C   UNL     1       2.841   0.811  -1.233  0.00  0.00    +0.008 A 
ATOM     16  F   UNL     1       5.916   1.971   0.305  0.00  0.00    -0.205 F 
ENDBRANCH   7  10
BRANCH   1  17
ATOM     17  C   UNL     1       1.131  -2.005  -0.316  0.00  0.00    +0.339 C 
ATOM     18  O   UNL     1      -0.019  -1.606  -0.331  0.00  0.00    -0.245 OA
BRANCH  17  19
ATOM     19  O   UNL     1       1.791  -2.118   0.855  0.00  0.00    -0.462 OA
BRANCH  19  21
ATOM     20  C   UNL     1       1.983  -1.945   3.258  0.00  0.00    +0.048 C 
ATOM     21  C   UNL     1       1.079  -1.752   2.039  0.00  0.00    +0.229 C 
ENDBRANCH  19  21
ENDBRANCH  17  19
ENDBRANCH   1  17
BRANCH   2  22
ATOM     22  C   UNL     1       1.477  -4.734  -0.958  0.00  0.00    +0.136 C 
BRANCH  22  23
ATOM     23  N   UNL     1       0.416  -5.499  -1.626  0.00  0.00    -0.294 NA
ATOM     24  C   UNL     1      -0.774  -4.667  -1.849  0.00  0.00    +0.104 C 
ATOM     25  C   UNL     1      -1.783  -5.441  -2.703  0.00  0.00    +0.124 C 
ATOM     26  N   UNL     1      -2.043  -6.737  -2.059  0.00  0.00    -0.292 N 
ATOM     27  C   UNL     1      -0.891  -7.570  -1.681  0.00  0.00    +0.087 C 
ATOM     28  C   UNL     1       0.083  -6.712  -0.866  0.00  0.00    +0.107 C 
ATOM     29  C   UNL     1      -1.368  -8.754  -0.837  0.00  0.00    +0.029 C 
ATOM     30  C   UNL     1      -3.304  -7.152  -1.823  0.00  0.00    +0.254 C 
ATOM     31  O   UNL     1      -3.500  -8.174  -1.193  0.00  0.00    -0.269 OA
BRANCH  30  32
ATOM     32  C   UNL     1      -4.438  -6.370  -2.325  0.00  0.00    +0.074 A 
ATOM     33  C   UNL     1      -5.776  -6.447  -1.971  0.00  0.00    +0.021 A 
ATOM     34  C   UNL     1      -6.617  -5.575  -2.620  0.00  0.00    +0.008 A 
ATOM     35  C   UNL     1      -6.099  -4.721  -3.538  0.00  0.00    +0.046 A 
ATOM     36  S   UNL     1      -4.455  -5.069  -3.543  0.00  0.00    -0.092 S 
ENDBRANCH  30  32
ENDBRANCH  22  23
ENDBRANCH   2  22
TORSDOF 7
