REMARK  Name = ZINC58401564
REMARK  3 active torsions:
REMARK  status: ('A' for Active; 'I' for Inactive)
REMARK    1  A    between atoms: C_7  and  S_9
REMARK    2  A    between atoms: S_9  and  C_10
REMARK    3  A    between atoms: C_10  and  C_11
REMARK                            x       y       z     vdW  Elec       q    Type
REMARK                         _______ _______ _______ _____ _____    ______ ____
ROOT
ATOM      1  C   UNL     1      -2.831  -3.080   0.471  0.00  0.00    +0.226 C 
ATOM      2  O   UNL     1      -3.787  -2.400   0.779  0.00  0.00    -0.275 OA
ATOM      3  N   UNL     1      -2.956  -4.420   0.387  0.00  0.00    -0.291 N 
ATOM      4  C   UNL     1      -4.240  -5.088   0.656  0.00  0.00    +0.127 C 
ATOM      5  C   UNL     1      -4.678  -5.813  -0.618  0.00  0.00    +0.123 C 
ATOM      6  N   UNL     1      -3.571  -6.570  -1.188  0.00  0.00    -0.313 N 
ATOM      7  C   UNL     1      -2.283  -6.322  -0.951  0.00  0.00    +0.230 C 
ATOM      8  O   UNL     1      -1.449  -6.971  -1.546  0.00  0.00    -0.274 OA
ATOM      9  C   UNL     1      -1.817  -5.272   0.016  0.00  0.00    +0.203 C 
ATOM     10  H   UNL     1      -3.787  -7.306  -1.781  0.00  0.00    +0.149 HD
ENDROOT
BRANCH   1  11
ATOM     11  C   UNL     1      -1.504  -2.428   0.182  0.00  0.00    +0.165 C 
BRANCH  11  12
ATOM     12  S   UNL     1      -1.658  -0.631   0.379  0.00  0.00    -0.146 S 
BRANCH  12  19
ATOM     13  C   UNL     1      -0.019   1.534   0.011  0.00  0.00    +0.038 C 
ATOM     14  C   UNL     1       1.453   2.038  -0.001  0.00  0.00    +0.167 C 
ATOM     15  S   UNL     1       2.228   0.842   1.167  0.00  0.00    -0.030 S 
ATOM     16  O   UNL     1       2.198   1.391   2.478  0.00  0.00    -0.174 OA
ATOM     17  O   UNL     1       3.463   0.399   0.623  0.00  0.00    -0.174 OA
ATOM     18  C   UNL     1       1.001  -0.524   1.063  0.00  0.00    +0.180 C 
ATOM     19  C   UNL     1       0.002  -0.004   0.002  0.00  0.00    +0.069 C 
ENDBRANCH  12  19
ENDBRANCH  11  12
ENDBRANCH   1  11
TORSDOF 3
