REMARK  Name = ZINC06784673
REMARK  8 active torsions:
REMARK  status: ('A' for Active; 'I' for Inactive)
REMARK    1  A    between atoms: C_1  and  C_2
REMARK    2  A    between atoms: C_2  and  N_3
REMARK    3  A    between atoms: N_3  and  C_4
REMARK    4  A    between atoms: C_14  and  N_15
REMARK    5  A    between atoms: N_15  and  S_16
REMARK    6  A    between atoms: S_16  and  C_19
REMARK    7  A    between atoms: C_22  and  C_26
REMARK    8  A    between atoms: C_24  and  C_25
REMARK                            x       y       z     vdW  Elec       q    Type
REMARK                         _______ _______ _______ _____ _____    ______ ____
ROOT
ATOM      1  C   UNL     1      -1.437   2.955  -0.105  0.00  0.00    +0.068 A 
ATOM      2  C   UNL     1      -0.151   2.358   0.286  0.00  0.00    +0.040 A 
ATOM      3  C   UNL     1      -0.038   0.987   0.527  0.00  0.00    +0.013 A 
ATOM      4  C   UNL     1       1.179   0.459   0.898  0.00  0.00    +0.001 A 
ATOM      5  C   UNL     1       2.288   1.282   1.031  0.00  0.00    +0.004 A 
ATOM      6  C   UNL     1       2.190   2.637   0.795  0.00  0.00    +0.047 A 
ATOM      7  C   UNL     1       0.972   3.191   0.421  0.00  0.00    +0.141 A 
ATOM      8  O   UNL     1       0.862   4.516   0.188  0.00  0.00    -0.421 OA
ATOM      9  C   UNL     1      -0.301   5.079  -0.175  0.00  0.00    +0.362 A 
ATOM     10  O   UNL     1      -0.342   6.281  -0.373  0.00  0.00    -0.243 OA
ATOM     11  C   UNL     1      -1.474   4.319  -0.333  0.00  0.00    +0.154 A 
ENDROOT
BRANCH   1  12
ATOM     12  N   UNL     1      -2.572   2.177  -0.246  0.00  0.00    -0.342 N 
ATOM     13  H   UNL     1      -3.037   2.369  -1.121  0.00  0.00    +0.146 HD
BRANCH  12  15
ATOM     14  C   UNL     1      -4.722   1.485   0.702  0.00  0.00    +0.024 C 
ATOM     15  C   UNL     1      -3.486   2.368   0.888  0.00  0.00    +0.098 C 
ENDBRANCH  12  15
ENDBRANCH   1  12
BRANCH  11  16
ATOM     16  N   UNL     1      -2.677   4.942  -0.714  0.00  0.00    -0.208 N 
ATOM     17  H   UNL     1      -3.446   4.914  -0.123  0.00  0.00    +0.174 HD
BRANCH  16  18
ATOM     18  S   UNL     1      -2.780   5.721  -2.171  0.00  0.00    +0.073 S 
ATOM     19  O   UNL     1      -2.159   4.875  -3.130  0.00  0.00    -0.150 OA
ATOM     20  O   UNL     1      -4.124   6.162  -2.302  0.00  0.00    -0.150 OA
BRANCH  18  21
ATOM     21  C   UNL     1      -1.783   7.170  -2.059  0.00  0.00    +0.111 A 
ATOM     22  C   UNL     1      -0.687   7.321  -2.887  0.00  0.00    +0.029 A 
ATOM     23  C   UNL     1       0.095   8.458  -2.799  0.00  0.00    +0.005 A 
ATOM     24  C   UNL     1      -0.220   9.444  -1.882  0.00  0.00    -0.050 A 
ATOM     25  C   UNL     1      -1.316   9.293  -1.054  0.00  0.00    +0.008 A 
ATOM     26  C   UNL     1      -2.101   8.158  -1.146  0.00  0.00    -0.024 A 
ATOM     27  C   UNL     1      -3.299   7.996  -0.246  0.00  0.00    +0.046 C 
ATOM     28  C   UNL     1       0.632  10.683  -1.787  0.00  0.00    +0.044 C 
ENDBRANCH  18  21
ENDBRANCH  16  18
ENDBRANCH  11  16
TORSDOF 5
