REMARK  Name = ZINC58228728
REMARK  7 active torsions:
REMARK  status: ('A' for Active; 'I' for Inactive)
REMARK    1  A    between atoms: C_1  and  N_2
REMARK    2  A    between atoms: C_3  and  C_5
REMARK    3  A    between atoms: C_10  and  N_11
REMARK    4  A    between atoms: C_12  and  C_14
REMARK    5  A    between atoms: C_14  and  N_15
REMARK    6  A    between atoms: N_18  and  C_19
REMARK    7  A    between atoms: C_19  and  C_20
REMARK                            x       y       z     vdW  Elec       q    Type
REMARK                         _______ _______ _______ _____ _____    ______ ____
ROOT
ATOM      1  N   UNL     1      -3.598  -2.311   0.210  0.00  0.00    -0.284 N 
ATOM      2  C   UNL     1      -4.709  -3.046   0.412  0.00  0.00    +0.234 C 
ATOM      3  O   UNL     1      -4.621  -4.243   0.589  0.00  0.00    -0.274 OA
ATOM      4  H   UNL     1      -3.661  -1.345   0.144  0.00  0.00    +0.155 HD
ENDROOT
BRANCH   1  10
ATOM      5  C   UNL     1      -1.206  -2.315   0.595  0.00  0.00    +0.059 A 
ATOM      6  C   UNL     1       0.030  -2.956   0.480  0.00  0.00    +0.035 A 
ATOM      7  C   UNL     1       0.109  -4.192  -0.127  0.00  0.00    +0.042 A 
ATOM      8  C   UNL     1      -1.032  -4.801  -0.624  0.00  0.00    +0.022 A 
ATOM      9  C   UNL     1      -2.259  -4.179  -0.517  0.00  0.00    +0.025 A 
ATOM     10  C   UNL     1      -2.359  -2.938   0.096  0.00  0.00    +0.046 A 
ATOM     11 CL   UNL     1       1.646  -4.987  -0.268  0.00  0.00    -0.084 Cl
BRANCH   5  14
ATOM     12  C   UNL     1      -0.298   0.871   2.454  0.00  0.00    +0.128 C 
ATOM     13  N   UNL     1      -0.206  -0.442   1.810  0.00  0.00    -0.314 N 
ATOM     14  C   UNL     1      -1.298  -0.993   1.243  0.00  0.00    +0.246 C 
ATOM     15  O   UNL     1      -2.359  -0.399   1.266  0.00  0.00    -0.270 OA
ATOM     16  H   UNL     1       0.640  -0.916   1.793  0.00  0.00    +0.149 HD
ENDBRANCH   5  14
ENDBRANCH   1  10
BRANCH   2  17
ATOM     17  C   UNL     1      -6.062  -2.382   0.417  0.00  0.00    +0.202 C 
BRANCH  17  18
ATOM     18  N   UNL     1      -7.100  -3.389   0.654  0.00  0.00    -0.291 N 
ATOM     19  C   UNL     1      -8.396  -3.023   0.701  0.00  0.00    +0.300 C 
ATOM     20  O   UNL     1      -8.704  -1.857   0.545  0.00  0.00    -0.253 OA
ATOM     21  N   UNL     1      -9.350  -3.949   0.919  0.00  0.00    -0.292 N 
ATOM     22  H   UNL     1      -6.854  -4.319   0.778  0.00  0.00    +0.151 HD
ATOM     23  H   UNL     1      -9.104  -4.879   1.043  0.00  0.00    +0.151 HD
BRANCH  21  24
ATOM     24  C   UNL     1     -10.759  -3.551   0.970  0.00  0.00    +0.180 C 
BRANCH  24  25
ATOM     25  C   UNL     1     -11.615  -4.764   1.225  0.00  0.00    +0.122 A 
ATOM     26  C   UNL     1     -11.981  -5.229   2.433  0.00  0.00    +0.046 A 
ATOM     27  C   UNL     1     -12.775  -6.377   2.207  0.00  0.00    +0.041 A 
ATOM     28  C   UNL     1     -12.846  -6.545   0.874  0.00  0.00    +0.195 A 
ATOM     29  O   UNL     1     -12.147  -5.562   0.284  0.00  0.00    -0.466 OA
ENDBRANCH  24  25
ENDBRANCH  21  24
ENDBRANCH  17  18
ENDBRANCH   2  17
TORSDOF 6
