REMARK  Name = ZINC19339134
REMARK  4 active torsions:
REMARK  status: ('A' for Active; 'I' for Inactive)
REMARK    1  A    between atoms: C_1  and  C_2
REMARK    2  A    between atoms: C_7  and  C_12
REMARK    3  A    between atoms: C_9  and  C_11
REMARK    4  A    between atoms: C_12  and  N_13
REMARK                            x       y       z     vdW  Elec       q    Type
REMARK                         _______ _______ _______ _____ _____    ______ ____
ROOT
ATOM      1  N   UNL     1       4.256   0.116   2.523  0.00  0.00    -0.268 NA
ATOM      2  C   UNL     1       5.076  -0.508   3.578  0.00  0.00    +0.193 C 
ATOM      3  N   UNL     1       6.421   0.082   3.496  0.00  0.00    -0.304 N 
ATOM      4  C   UNL     1       6.526   1.438   3.282  0.00  0.00    +0.185 C 
ATOM      5  N   UNL     1       5.499   2.140   2.922  0.00  0.00    -0.240 NA
ATOM      6  C   UNL     1       4.171   1.566   2.735  0.00  0.00    +0.232 C 
ATOM      7  N   UNL     1       7.745   2.059   3.454  0.00  0.00    -0.242 N 
ATOM      8  C   UNL     1       7.863   3.418   3.243  0.00  0.00    +0.295 A 
ATOM      9  N   UNL     1       6.885   4.209   2.885  0.00  0.00    -0.195 NA
ATOM     10  C   UNL     1       7.367   5.477   2.772  0.00  0.00    +0.111 A 
ATOM     11  C   UNL     1       6.790   6.700   2.428  0.00  0.00    +0.031 A 
ATOM     12  C   UNL     1       7.565   7.838   2.404  0.00  0.00    +0.002 A 
ATOM     13  C   UNL     1       8.914   7.775   2.718  0.00  0.00    +0.004 A 
ATOM     14  C   UNL     1       9.497   6.572   3.060  0.00  0.00    +0.048 A 
ATOM     15  C   UNL     1       8.732   5.417   3.090  0.00  0.00    +0.157 A 
ATOM     16  O   UNL     1       8.999   4.124   3.382  0.00  0.00    -0.424 OA
ATOM     17  H   UNL     1       7.213  -0.470   3.590  0.00  0.00    +0.150 HD
ATOM     18  H   UNL     1       8.520   1.541   3.724  0.00  0.00    +0.159 HD
ENDROOT
BRANCH   1  19
ATOM     19  C   UNL     1       2.917  -0.488   2.470  0.00  0.00    +0.091 C 
BRANCH  19  25
ATOM     20  C   UNL     1      -0.019   1.526   0.010  0.00  0.00    +0.008 C 
ATOM     21  C   UNL     1       0.002  -0.004   0.002  0.00  0.00    -0.011 C 
ATOM     22  C   UNL     1       0.718  -0.497  -1.257  0.00  0.00    +0.003 C 
ATOM     23  C   UNL     1       2.154   0.032  -1.268  0.00  0.00    +0.001 C 
ATOM     24  C   UNL     1       2.894  -0.475  -0.028  0.00  0.00    +0.005 C 
ATOM     25  C   UNL     1       2.178   0.019   1.231  0.00  0.00    +0.006 C 
ATOM     26  C   UNL     1       0.742  -0.511   1.242  0.00  0.00    -0.007 C 
ATOM     27  C   UNL     1       0.763  -2.041   1.233  0.00  0.00    +0.008 C 
ENDBRANCH  19  25
ENDBRANCH   1  19
TORSDOF 2
