REMARK  Name = ZINC16678121
REMARK  5 active torsions:
REMARK  status: ('A' for Active; 'I' for Inactive)
REMARK    1  A    between atoms: C_1  and  C_2
REMARK    2  A    between atoms: C_2  and  C_3
REMARK    3  A    between atoms: C_2  and  C_4
REMARK    4  A    between atoms: C_2  and  O_5
REMARK    5  A    between atoms: O_5  and  C_6
REMARK                            x       y       z     vdW  Elec       q    Type
REMARK                         _______ _______ _______ _____ _____    ______ ____
ROOT
ATOM      1  C   UNL     1       1.258   1.477   2.586  0.00  0.00    +0.404 C 
ATOM      2  O   UNL     1       1.777   2.189   1.750  0.00  0.00    -0.226 OA
ATOM      3  N   UNL     1       1.967   1.065   3.655  0.00  0.00    -0.256 N 
ATOM      4  C   UNL     1       1.464   0.207   4.746  0.00  0.00    +0.112 C 
ATOM      5  C   UNL     1       2.373   0.525   5.957  0.00  0.00    +0.022 C 
ATOM      6  C   UNL     1       3.750   0.741   5.271  0.00  0.00    +0.034 C 
ATOM      7  C   UNL     1       3.364   1.398   3.936  0.00  0.00    +0.083 C 
ATOM      8  C   UNL     1       3.567   2.914   4.005  0.00  0.00    +0.132 C 
ATOM      9  N   UNL     1       4.555   3.211   2.962  0.00  0.00    -0.341 N 
ATOM     10  C   UNL     1       4.931   2.034   2.310  0.00  0.00    +0.033 A 
ATOM     11  C   UNL     1       4.271   0.929   2.829  0.00  0.00    -0.002 A 
ATOM     12  C   UNL     1       4.508  -0.331   2.314  0.00  0.00    +0.007 A 
ATOM     13  C   UNL     1       5.408  -0.501   1.278  0.00  0.00    +0.000 A 
ATOM     14  C   UNL     1       6.071   0.594   0.755  0.00  0.00    +0.002 A 
ATOM     15  C   UNL     1       5.838   1.853   1.265  0.00  0.00    +0.023 A 
ATOM     16  H   UNL     1       4.896   4.095   2.755  0.00  0.00    +0.146 HD
ENDROOT
BRANCH   1  17
ATOM     17  O   UNL     1      -0.027   1.098   2.443  0.00  0.00    -0.445 OA
BRANCH  17  19
ATOM     18  C   UNL     1      -0.013   1.086   0.008  0.00  0.00    +0.055 C 
ATOM     19  C   UNL     1      -0.729   1.579   1.267  0.00  0.00    +0.107 C 
ATOM     20  C   UNL     1      -0.750   3.109   1.275  0.00  0.00    +0.055 C 
ATOM     21  C   UNL     1      -2.164   1.050   1.278  0.00  0.00    +0.055 C 
ENDBRANCH  17  19
ENDBRANCH   1  17
TORSDOF 2
