REMARK  Name = ZINC64163772
REMARK  5 active torsions:
REMARK  status: ('A' for Active; 'I' for Inactive)
REMARK    1  A    between atoms: C_1  and  C_2
REMARK    2  A    between atoms: C_5  and  C_8
REMARK    3  A    between atoms: C_8  and  C_10
REMARK    4  A    between atoms: C_31  and  C_39
REMARK    5  A    between atoms: C_33  and  C_38
REMARK                            x       y       z     vdW  Elec       q    Type
REMARK                         _______ _______ _______ _____ _____    ______ ____
ROOT
ATOM      1  C   UNL     1       0.075  -5.006   1.280  0.00  0.00    +0.099 C 
ATOM      2  C   UNL     1      -1.366  -5.296   1.772  0.00  0.00    +0.070 C 
ATOM      3  C   UNL     1      -2.284  -4.135   1.358  0.00  0.00    +0.021 C 
ATOM      4  C   UNL     1      -3.280  -4.747   0.348  0.00  0.00    +0.017 C 
ATOM      5  C   UNL     1      -2.518  -5.984  -0.185  0.00  0.00    +0.086 C 
ATOM      6  N   UNL     1      -1.792  -6.507   1.022  0.00  0.00    -0.281 NA
ATOM      7  C   UNL     1      -0.582  -7.234   0.606  0.00  0.00    +0.145 C 
ATOM      8  C   UNL     1       0.627  -6.431   1.079  0.00  0.00    +0.116 C 
ATOM      9  C   UNL     1       1.754  -6.452   0.090  0.00  0.00    -0.008 A 
ATOM     10  C   UNL     1       1.864  -6.089  -1.234  0.00  0.00    +0.006 A 
ATOM     11  C   UNL     1       3.072  -6.232  -1.894  0.00  0.00    +0.000 A 
ATOM     12  C   UNL     1       4.168  -6.740  -1.220  0.00  0.00    +0.002 A 
ATOM     13  C   UNL     1       4.063  -7.105   0.106  0.00  0.00    +0.023 A 
ATOM     14  C   UNL     1       2.851  -6.965   0.777  0.00  0.00    +0.038 A 
ATOM     15  N   UNL     1       2.499  -7.260   2.097  0.00  0.00    -0.284 N 
ATOM     16  C   UNL     1       1.208  -6.975   2.354  0.00  0.00    +0.231 C 
ATOM     17  O   UNL     1       0.628  -7.127   3.409  0.00  0.00    -0.274 OA
ATOM     18  C   UNL     1      -0.567  -8.630   1.168  0.00  0.00    +0.005 A 
ATOM     19  C   UNL     1      -0.576  -9.132   2.450  0.00  0.00    +0.011 A 
ATOM     20  C   UNL     1      -0.556 -10.500   2.658  0.00  0.00    -0.050 A 
ATOM     21  C   UNL     1      -0.527 -11.360   1.575  0.00  0.00    +0.008 A 
ATOM     22  C   UNL     1      -0.518 -10.861   0.289  0.00  0.00    -0.029 A 
ATOM     23  C   UNL     1      -0.538  -9.485   0.072  0.00  0.00    +0.042 A 
ATOM     24  N   UNL     1      -0.534  -8.749  -1.115  0.00  0.00    -0.283 N 
ATOM     25  C   UNL     1      -0.558  -7.423  -0.890  0.00  0.00    +0.244 C 
ATOM     26  O   UNL     1      -0.561  -6.547  -1.729  0.00  0.00    -0.273 OA
ATOM     27  C   UNL     1      -0.488 -11.807  -0.883  0.00  0.00    +0.045 C 
ATOM     28  C   UNL     1      -0.565 -11.051   4.060  0.00  0.00    +0.044 C 
ATOM     29  H   UNL     1       3.114  -7.628   2.751  0.00  0.00    +0.155 HD
ATOM     30  H   UNL     1      -0.516  -9.148  -1.999  0.00  0.00    +0.155 HD
ENDROOT
BRANCH   1  31
ATOM     31  C   UNL     1       0.058  -4.245  -0.021  0.00  0.00    +0.169 C 
ATOM     32  O   UNL     1      -0.948  -4.224  -0.698  0.00  0.00    -0.292 OA
BRANCH  31  37
ATOM     33  C   UNL     1       4.763  -1.445  -1.774  0.00  0.00    +0.044 C 
ATOM     34  C   UNL     1       3.530  -2.180  -1.315  0.00  0.00    -0.050 A 
ATOM     35  C   UNL     1       2.384  -2.153  -2.090  0.00  0.00    +0.004 A 
ATOM     36  C   UNL     1       1.252  -2.822  -1.677  0.00  0.00    +0.011 A 
ATOM     37  C   UNL     1       1.263  -3.529  -0.470  0.00  0.00    +0.018 A 
ATOM     38  C   UNL     1       2.425  -3.551   0.308  0.00  0.00    +0.011 A 
ATOM     39  C   UNL     1       3.551  -2.882  -0.122  0.00  0.00    +0.004 A 
ENDBRANCH  31  37
ENDBRANCH   1  31
TORSDOF 2
