REMARK  Name = ZINC67373090
REMARK  8 active torsions:
REMARK  status: ('A' for Active; 'I' for Inactive)
REMARK    1  A    between atoms: C_1  and  C_2
REMARK    2  A    between atoms: C_2  and  C_4
REMARK    3  A    between atoms: C_7  and  N_13
REMARK    4  A    between atoms: C_8  and  N_10
REMARK    5  A    between atoms: N_13  and  C_14
REMARK    6  A    between atoms: C_14  and  C_15
REMARK    7  A    between atoms: C_15  and  C_17
REMARK    8  A    between atoms: C_15  and  O_27
REMARK                            x       y       z     vdW  Elec       q    Type
REMARK                         _______ _______ _______ _____ _____    ______ ____
ROOT
ATOM      1  N   UNL     1      -4.744  -2.930  -0.468  0.00  0.00    -0.339 N 
ATOM      2  H   UNL     1      -4.698  -3.897  -0.530  0.00  0.00    +0.146 HD
ENDROOT
BRANCH   1   6
ATOM      3  C   UNL     1      -1.299  -0.730   0.256  0.00  0.00    +0.019 A 
ATOM      4  C   UNL     1      -2.506  -0.074  -0.020  0.00  0.00    +0.013 A 
ATOM      5  C   UNL     1      -3.637  -0.802  -0.257  0.00  0.00    +0.026 A 
ATOM      6  C   UNL     1      -3.591  -2.194  -0.226  0.00  0.00    +0.058 A 
ATOM      7  C   UNL     1      -2.393  -2.850   0.049  0.00  0.00    +0.148 A 
ATOM      8  C   UNL     1      -1.256  -2.130   0.281  0.00  0.00    +0.046 A 
BRANCH   3  10
ATOM      9  C   UNL     1      -0.129   1.554   0.485  0.00  0.00    +0.091 C 
ATOM     10  C   UNL     1      -0.081   0.048   0.512  0.00  0.00    +0.160 C 
ATOM     11  O   UNL     1       0.965  -0.522   0.746  0.00  0.00    -0.292 OA
ENDBRANCH   3  10
BRANCH   7  12
ATOM     12  N   UNL     1      -2.351  -4.329   0.082  0.00  0.00    +0.058 N 
ATOM     13  O   UNL     1      -3.280  -4.950   0.544  0.00  0.00    -0.126 OA
ATOM     14  O   UNL     1      -1.388  -4.916  -0.354  0.00  0.00    -0.126 OA
ENDBRANCH   7  12
ENDBRANCH   1   6
BRANCH   1  15
ATOM     15  C   UNL     1      -6.030  -2.247  -0.628  0.00  0.00    +0.137 C 
BRANCH  15  16
ATOM     16  C   UNL     1      -7.129  -3.280  -0.882  0.00  0.00    +0.161 C 
BRANCH  16  17
ATOM     17  C   UNL     1      -8.428  -2.572  -1.169  0.00  0.00    -0.017 A 
ATOM     18  C   UNL     1      -9.182  -2.067  -0.111  0.00  0.00    +0.007 A 
ATOM     19  C   UNL     1     -10.360  -1.423  -0.335  0.00  0.00    +0.009 A 
ATOM     20  C   UNL     1     -10.825  -1.262  -1.651  0.00  0.00    -0.018 A 
ATOM     21  C   UNL     1     -12.036  -0.602  -1.922  0.00  0.00    +0.008 A 
ATOM     22  C   UNL     1     -12.454  -0.464  -3.210  0.00  0.00    +0.001 A 
ATOM     23  C   UNL     1     -11.700  -0.968  -4.268  0.00  0.00    +0.001 A 
ATOM     24  C   UNL     1     -10.522  -1.613  -4.043  0.00  0.00    +0.008 A 
ATOM     25  C   UNL     1     -10.057  -1.774  -2.727  0.00  0.00    -0.018 A 
ATOM     26  C   UNL     1      -8.844  -2.430  -2.457  0.00  0.00    +0.014 A 
ENDBRANCH  16  17
BRANCH  16  27
ATOM     27  O   UNL     1      -7.282  -4.107   0.273  0.00  0.00    -0.386 OA
ATOM     28  H   UNL     1      -7.525  -3.623   1.073  0.00  0.00    +0.210 HD
ENDBRANCH  16  27
ENDBRANCH  15  16
ENDBRANCH   1  15
TORSDOF 7
