REMARK  Name = ZINC53168465
REMARK  4 active torsions:
REMARK  status: ('A' for Active; 'I' for Inactive)
REMARK    1  A    between atoms: C_1  and  C_2
REMARK    2  A    between atoms: C_5  and  S_7
REMARK    3  A    between atoms: S_7  and  C_8
REMARK    4  A    between atoms: C_9  and  N_16
REMARK                            x       y       z     vdW  Elec       q    Type
REMARK                         _______ _______ _______ _____ _____    ______ ____
ROOT
ATOM      1  C   UNL     1       0.078  -4.694   1.803  0.00  0.00    +0.073 A 
ATOM      2  C   UNL     1      -1.121  -5.345   1.513  0.00  0.00    +0.042 A 
ATOM      3  C   UNL     1      -1.101  -6.605   0.936  0.00  0.00    +0.027 A 
ATOM      4  C   UNL     1       0.106  -7.216   0.649  0.00  0.00    +0.043 A 
ATOM      5  C   UNL     1       1.298  -6.573   0.935  0.00  0.00    +0.160 A 
ATOM      6  C   UNL     1       1.286  -5.310   1.507  0.00  0.00    +0.174 A 
ATOM      7  F   UNL     1       2.450  -4.681   1.781  0.00  0.00    -0.201 F 
ATOM      8  F   UNL     1       2.474  -7.174   0.653  0.00  0.00    -0.202 F 
ENDROOT
BRANCH   2   9
ATOM      9  N   UNL     1      -2.344  -4.726   1.804  0.00  0.00    -0.357 N 
ATOM     10  H   UNL     1      -2.357  -3.844   2.208  0.00  0.00    +0.142 HD
ATOM     11  H   UNL     1      -3.177  -5.179   1.602  0.00  0.00    +0.142 HD
ENDBRANCH   2   9
BRANCH   1  12
ATOM     12  S   UNL     1       0.059  -3.092   2.536  0.00  0.00    -0.058 S 
BRANCH  12  17
ATOM     13  C   UNL     1      -0.018   1.503   0.010  0.00  0.00    +0.066 C 
ATOM     14  C   UNL     1       0.002  -0.004   0.002  0.00  0.00    +0.047 A 
ATOM     15  C   UNL     1       0.005  -0.676  -1.174  0.00  0.00    +0.070 A 
ATOM     16  S   UNL     1       0.032  -2.366  -0.590  0.00  0.00    -0.069 S 
ATOM     17  C   UNL     1       0.036  -1.993   1.158  0.00  0.00    +0.140 A 
ATOM     18  N   UNL     1       0.022  -0.670   1.139  0.00  0.00    -0.238 NA
ENDBRANCH  12  17
ENDBRANCH   1  12
TORSDOF 3
