REMARK  Name = ZINC16007657
REMARK  3 active torsions:
REMARK  status: ('A' for Active; 'I' for Inactive)
REMARK    1  A    between atoms: C_1  and  C_2
REMARK    2  A    between atoms: C_7  and  C_8
REMARK    3  A    between atoms: N_25  and  C_28
REMARK                            x       y       z     vdW  Elec       q    Type
REMARK                         _______ _______ _______ _____ _____    ______ ____
ROOT
ATOM      1  C   UNL     1      -3.213   6.753   4.522  0.00  0.00    +0.044 C 
ATOM      2  C   UNL     1      -2.759   5.687   3.558  0.00  0.00    -0.046 A 
ATOM      3  C   UNL     1      -1.489   5.745   3.015  0.00  0.00    +0.004 A 
ATOM      4  C   UNL     1      -1.072   4.767   2.130  0.00  0.00    +0.005 A 
ATOM      5  C   UNL     1      -1.923   3.738   1.792  0.00  0.00    -0.027 A 
ATOM      6  C   UNL     1      -3.203   3.668   2.331  0.00  0.00    +0.039 A 
ATOM      7  C   UNL     1      -3.614   4.657   3.222  0.00  0.00    -0.026 A 
ATOM      8  C   UNL     1      -4.996   4.604   3.819  0.00  0.00    +0.046 C 
ATOM      9  N   UNL     1      -3.872   2.544   1.842  0.00  0.00    -0.286 N 
ATOM     10  C   UNL     1      -3.112   1.832   0.988  0.00  0.00    +0.212 C 
ATOM     11  O   UNL     1      -3.431   0.813   0.412  0.00  0.00    -0.277 OA
ATOM     12  C   UNL     1      -1.792   2.546   0.886  0.00  0.00    +0.053 C 
ATOM     13  C   UNL     1      -0.632   1.641   1.319  0.00  0.00    +0.089 C 
ATOM     14  C   UNL     1      -0.025   1.114  -0.010  0.00  0.00    +0.074 C 
ATOM     15  C   UNL     1      -0.875   1.737  -1.133  0.00  0.00    -0.054 C 
ATOM     16  N   UNL     1      -1.505   2.954  -0.500  0.00  0.00    +0.395 N 
ATOM     17  C   UNL     1      -0.435   3.979  -0.511  0.00  0.00    -0.076 C 
ATOM     18  C   UNL     1       0.314   3.760  -1.845  0.00  0.00    -0.020 C 
ATOM     19  C   UNL     1       0.053   2.290  -2.229  0.00  0.00    -0.016 C 
ATOM     20  C   UNL     1       1.357   1.726  -0.028  0.00  0.00    +0.228 C 
ATOM     21  O   UNL     1       2.179   1.574  -0.906  0.00  0.00    -0.275 OA
ATOM     22  N   UNL     1       1.533   2.462   1.076  0.00  0.00    -0.210 N 
ATOM     23  C   UNL     1       0.481   2.482   1.902  0.00  0.00    +0.229 C 
ATOM     24  O   UNL     1       0.428   3.082   2.955  0.00  0.00    -0.275 OA
ATOM     25  H   UNL     1      -4.902   2.333   2.167  0.00  0.00    +0.155 HD
ATOM     26  H   UNL     1      -2.417   3.340  -0.979  0.00  0.00    -0.079 HD
ENDROOT
BRANCH  22  27
ATOM     27  C   UNL     1       2.722   3.154   1.345  0.00  0.00    +0.045 A 
ATOM     28  C   UNL     1       2.736   4.543   1.334  0.00  0.00    +0.025 A 
ATOM     29  C   UNL     1       3.907   5.223   1.605  0.00  0.00    +0.023 A 
ATOM     30  C   UNL     1       5.069   4.523   1.876  0.00  0.00    +0.059 A 
ATOM     31  C   UNL     1       5.060   3.138   1.882  0.00  0.00    +0.061 A 
ATOM     32  C   UNL     1       3.889   2.453   1.617  0.00  0.00    +0.045 A 
ATOM     33 CL   UNL     1       6.519   2.262   2.222  0.00  0.00    -0.082 Cl
ATOM     34 CL   UNL     1       6.540   5.381   2.209  0.00  0.00    -0.082 Cl
ENDBRANCH  22  27
TORSDOF 1
