REMARK  Name = ZINC08297971
REMARK  8 active torsions:
REMARK  status: ('A' for Active; 'I' for Inactive)
REMARK    1  A    between atoms: C_1  and  C_2
REMARK    2  A    between atoms: C_2  and  C_3
REMARK    3  A    between atoms: C_2  and  N_4
REMARK    4  A    between atoms: C_5  and  C_7
REMARK    5  A    between atoms: C_15  and  C_17
REMARK    6  A    between atoms: C_17  and  N_18
REMARK    7  A    between atoms: C_20  and  C_23
REMARK    8  A    between atoms: C_23  and  O_29
REMARK                            x       y       z     vdW  Elec       q    Type
REMARK                         _______ _______ _______ _____ _____    ______ ____
ROOT
ATOM      1  C   UNL     1       1.482  -4.166  -2.515  0.00  0.00    +0.061 C 
ATOM      2  C   UNL     1       0.905  -2.748  -2.533  0.00  0.00    -0.065 C 
ATOM      3  C   UNL     1       2.885  -1.896  -3.636  0.00  0.00    -0.078 C 
ATOM      4  C   UNL     1       3.520  -3.290  -3.650  0.00  0.00    -0.015 C 
ATOM      5  C   UNL     1       3.011  -4.077  -2.436  0.00  0.00    -0.004 C 
ATOM      6  C   UNL     1       3.391  -3.312  -1.162  0.00  0.00    -0.010 C 
ATOM      7  C   UNL     1       2.761  -1.917  -1.217  0.00  0.00    -0.046 C 
ATOM      8  N   UNL     1       1.992  -1.747  -2.468  0.00  0.00    +0.383 N 
ATOM      9  H   UNL     1       1.580  -0.807  -2.481  0.00  0.00    -0.081 HD
ENDROOT
BRANCH   1  11
ATOM     10  N   UNL     1      -0.373  -5.099  -1.171  0.00  0.00    -0.313 N 
ATOM     11  C   UNL     1       0.954  -4.911  -1.317  0.00  0.00    +0.215 C 
ATOM     12  O   UNL     1       1.722  -5.341  -0.483  0.00  0.00    -0.276 OA
ATOM     13  H   UNL     1      -0.988  -4.755  -1.838  0.00  0.00    +0.149 HD
BRANCH  10  15
ATOM     14  C   UNL     1      -1.044  -4.855   1.168  0.00  0.00    +0.027 C 
ATOM     15  C   UNL     1      -0.887  -5.823  -0.006  0.00  0.00    +0.067 C 
ATOM     16  C   UNL     1      -2.246  -6.438  -0.345  0.00  0.00    +0.027 C 
ENDBRANCH  10  15
ENDBRANCH   1  11
BRANCH   7  17
ATOM     17  C   UNL     1       1.819  -1.736  -0.025  0.00  0.00    +0.130 C 
BRANCH  17  18
ATOM     18  N   UNL     1       1.307  -0.363  -0.012  0.00  0.00    -0.253 N 
ATOM     19  C   UNL     1       0.002  -0.004   0.002  0.00  0.00    +0.136 A 
ATOM     20  C   UNL     1      -0.016   1.349   0.009  0.00  0.00    +0.114 A 
ATOM     21  N   UNL     1       1.261   1.747  -0.001  0.00  0.00    -0.132 NA
ATOM     22  N   UNL     1       2.020   0.708  -0.013  0.00  0.00    -0.065 NA
BRANCH  20  23
ATOM     23  C   UNL     1      -1.236   2.235   0.020  0.00  0.00    +0.111 C 
ATOM     24  C   UNL     1      -2.079   1.957  -1.226  0.00  0.00    +0.041 C 
ATOM     25  C   UNL     1      -3.317   2.856  -1.215  0.00  0.00    +0.003 C 
ATOM     26  C   UNL     1      -2.882   4.323  -1.209  0.00  0.00    +0.000 C 
ATOM     27  C   UNL     1      -2.039   4.600   0.037  0.00  0.00    +0.003 C 
ATOM     28  C   UNL     1      -0.801   3.701   0.026  0.00  0.00    +0.041 C 
BRANCH  23  29
ATOM     29  O   UNL     1      -2.011   1.963   1.190  0.00  0.00    -0.382 OA
ATOM     30  H   UNL     1      -2.321   1.049   1.252  0.00  0.00    +0.211 HD
ENDBRANCH  23  29
ENDBRANCH  20  23
ENDBRANCH  17  18
ENDBRANCH   7  17
TORSDOF 6
