REMARK  Name = ZINC36841879
REMARK  11 active torsions:
REMARK  status: ('A' for Active; 'I' for Inactive)
REMARK    1  A    between atoms: C_1  and  C_2
REMARK    2  A    between atoms: C_2  and  C_3
REMARK    3  A    between atoms: C_3  and  C_4
REMARK    4  A    between atoms: C_4  and  N_5
REMARK    5  A    between atoms: C_6  and  N_31
REMARK    6  A    between atoms: C_7  and  N_14
REMARK    7  A    between atoms: N_14  and  C_15
REMARK    8  A    between atoms: C_15  and  C_16
REMARK    9  A    between atoms: C_22  and  C_24
REMARK   10  A    between atoms: C_24  and  C_25
REMARK   11  A    between atoms: C_25  and  C_26
REMARK                            x       y       z     vdW  Elec       q    Type
REMARK                         _______ _______ _______ _____ _____    ______ ____
ROOT
ATOM      1  N   UNL     1      -5.440  -3.473   2.375  0.00  0.00    -0.260 N 
ATOM      2  C   UNL     1      -4.928  -2.953   3.511  0.00  0.00    +0.221 C 
ATOM      3  O   UNL     1      -3.749  -2.674   3.573  0.00  0.00    -0.275 OA
ENDROOT
BRANCH   1   6
ATOM      4  N   UNL     1      -4.085  -2.957  -1.001  0.00  0.00    -0.280 N 
ATOM      5  C   UNL     1      -4.892  -2.824   0.105  0.00  0.00    +0.127 A 
ATOM      6  C   UNL     1      -4.631  -3.587   1.225  0.00  0.00    +0.140 A 
ATOM      7  C   UNL     1      -3.544  -4.481   1.200  0.00  0.00    +0.277 A 
ATOM      8  O   UNL     1      -3.291  -5.168   2.175  0.00  0.00    -0.266 OA
ATOM      9  N   UNL     1      -2.785  -4.573   0.090  0.00  0.00    -0.273 N 
ATOM     10  H   UNL     1      -2.036  -5.189   0.071  0.00  0.00    +0.173 HD
ATOM     11  C   UNL     1      -3.057  -3.825  -0.994  0.00  0.00    +0.331 A 
ATOM     12  O   UNL     1      -2.359  -3.931  -1.983  0.00  0.00    -0.246 OA
BRANCH   5  13
ATOM     13  N   UNL     1      -5.945  -1.940   0.096  0.00  0.00    -0.343 N 
ATOM     14  H   UNL     1      -6.088  -1.365  -0.672  0.00  0.00    +0.144 HD
ATOM     15  H   UNL     1      -6.544  -1.892   0.857  0.00  0.00    +0.144 HD
ENDBRANCH   5  13
BRANCH   4  16
ATOM     16  C   UNL     1      -4.350  -2.152  -2.196  0.00  0.00    +0.128 C 
BRANCH  16  17
ATOM     17  C   UNL     1      -5.313  -2.907  -3.115  0.00  0.00    +0.021 C 
BRANCH  17  19
ATOM     18  C   UNL     1      -6.553  -2.822  -5.283  0.00  0.00    +0.004 C 
ATOM     19  C   UNL     1      -5.590  -2.067  -4.364  0.00  0.00    -0.002 C 
ENDBRANCH  17  19
ENDBRANCH  16  17
ENDBRANCH   4  16
ENDBRANCH   1   6
BRANCH   1  20
ATOM     20  C   UNL     1      -6.835  -3.919   2.337  0.00  0.00    +0.149 C 
BRANCH  20  21
ATOM     21  C   UNL     1      -6.895  -5.402   2.596  0.00  0.00    -0.030 A 
ATOM     22  C   UNL     1      -6.734  -6.293   1.551  0.00  0.00    +0.005 A 
ATOM     23  C   UNL     1      -6.790  -7.654   1.788  0.00  0.00    +0.000 A 
ATOM     24  C   UNL     1      -7.005  -8.124   3.070  0.00  0.00    +0.000 A 
ATOM     25  C   UNL     1      -7.165  -7.233   4.115  0.00  0.00    +0.000 A 
ATOM     26  C   UNL     1      -7.105  -5.872   3.878  0.00  0.00    +0.005 A 
ENDBRANCH  20  21
ENDBRANCH   1  20
BRANCH   2  27
ATOM     27  C   UNL     1      -5.822  -2.720   4.702  0.00  0.00    +0.104 C 
BRANCH  27  28
ATOM     28  C   UNL     1      -5.038  -1.986   5.791  0.00  0.00    +0.083 C 
BRANCH  28  29
ATOM     29  C   UNL     1      -5.931  -1.753   6.982  0.00  0.00    +0.105 A 
ATOM     30  C   UNL     1      -6.081  -2.586   8.028  0.00  0.00    +0.044 A 
ATOM     31  C   UNL     1      -7.007  -1.977   8.907  0.00  0.00    +0.041 A 
ATOM     32  C   UNL     1      -7.367  -0.809   8.346  0.00  0.00    +0.195 A 
ATOM     33  O   UNL     1      -6.707  -0.675   7.183  0.00  0.00    -0.468 OA
ENDBRANCH  28  29
ENDBRANCH  27  28
ENDBRANCH   2  27
TORSDOF 10
