REMARK  Name = ZINC59417087
REMARK  4 active torsions:
REMARK  status: ('A' for Active; 'I' for Inactive)
REMARK    1  A    between atoms: C_4  and  S_7
REMARK    2  A    between atoms: S_7  and  C_10
REMARK    3  A    between atoms: C_15  and  C_16
REMARK    4  A    between atoms: N_17  and  N_18
REMARK                            x       y       z     vdW  Elec       q    Type
REMARK                         _______ _______ _______ _____ _____    ______ ____
ROOT
ATOM      1  C   UNL     1       4.947  -0.933   1.359  0.00  0.00    +0.102 A 
ATOM      2  C   UNL     1       5.489  -2.147   1.729  0.00  0.00    +0.028 A 
ATOM      3  C   UNL     1       6.347  -2.224   2.812  0.00  0.00    +0.002 A 
ATOM      4  C   UNL     1       6.668  -1.086   3.532  0.00  0.00    +0.001 A 
ATOM      5  C   UNL     1       6.133   0.134   3.173  0.00  0.00    +0.011 A 
ATOM      6  C   UNL     1       5.271   0.220   2.078  0.00  0.00    +0.020 A 
ENDROOT
BRANCH   1   7
ATOM      7  S   UNL     1       3.855  -0.838  -0.020  0.00  0.00    +0.026 S 
ATOM      8  O   UNL     1       3.777  -2.146  -0.568  0.00  0.00    -0.164 OA
ATOM      9  O   UNL     1       4.266   0.286  -0.786  0.00  0.00    -0.164 OA
BRANCH   7  13
ATOM     10  C   UNL     1      -0.261   0.134   1.595  0.00  0.00    +0.000 A 
ATOM     11  C   UNL     1       0.513   1.131   1.030  0.00  0.00    +0.002 A 
ATOM     12  C   UNL     1       1.770   0.834   0.537  0.00  0.00    +0.027 A 
ATOM     13  C   UNL     1       2.253  -0.459   0.609  0.00  0.00    +0.094 A 
ATOM     14  C   UNL     1       1.479  -1.455   1.175  0.00  0.00    +0.027 A 
ATOM     15  C   UNL     1       0.222  -1.159   1.666  0.00  0.00    +0.002 A 
ENDBRANCH   7  13
ENDBRANCH   1   7
BRANCH   6  16
ATOM     16  C   UNL     1       4.700   1.522   1.684  0.00  0.00    +0.140 C 
ATOM     17  N   UNL     1       4.004   1.623   0.593  0.00  0.00    -0.188 NA
BRANCH  17  18
ATOM     18  N   UNL     1       3.706   2.886   0.067  0.00  0.00    -0.207 N 
ATOM     19  C   UNL     1       3.089   2.993  -1.162  0.00  0.00    +0.214 A 
ATOM     20  N   UNL     1       2.756   4.169  -1.774  0.00  0.00    -0.325 N 
ATOM     21  H   UNL     1       2.910   5.062  -1.427  0.00  0.00    +0.169 HD
ATOM     22  C   UNL     1       2.160   3.848  -2.982  0.00  0.00    +0.067 A 
ATOM     23  C   UNL     1       1.625   4.598  -4.019  0.00  0.00    +0.028 A 
ATOM     24  C   UNL     1       1.088   3.962  -5.119  0.00  0.00    +0.002 A 
ATOM     25  C   UNL     1       1.080   2.577  -5.197  0.00  0.00    +0.002 A 
ATOM     26  C   UNL     1       1.607   1.817  -4.177  0.00  0.00    +0.030 A 
ATOM     27  C   UNL     1       2.154   2.445  -3.055  0.00  0.00    +0.091 A 
ATOM     28  N   UNL     1       2.739   1.983  -1.919  0.00  0.00    -0.213 NA
ATOM     29  H   UNL     1       3.934   3.686   0.566  0.00  0.00    +0.177 HD
ENDBRANCH  17  18
ENDBRANCH   6  16
TORSDOF 4
