REMARK  Name = ZINC20047764
REMARK  10 active torsions:
REMARK  status: ('A' for Active; 'I' for Inactive)
REMARK    1  A    between atoms: C_1  and  C_2
REMARK    2  A    between atoms: C_2  and  C_3
REMARK    3  A    between atoms: C_2  and  C_4
REMARK    4  A    between atoms: C_2  and  C_5
REMARK    5  A    between atoms: N_9  and  N_10
REMARK    6  A    between atoms: C_11  and  C_13
REMARK    7  A    between atoms: C_13  and  N_14
REMARK    8  A    between atoms: N_14  and  C_15
REMARK    9  A    between atoms: N_14  and  S_22
REMARK   10  A    between atoms: S_22  and  C_25
REMARK                            x       y       z     vdW  Elec       q    Type
REMARK                         _______ _______ _______ _____ _____    ______ ____
ROOT
ATOM      1  N   UNL     1      -4.535  -6.260   3.500  0.00  0.00    -0.194 N 
ENDROOT
BRANCH   1   2
ATOM      2  C   UNL     1      -4.169  -7.600   3.340  0.00  0.00    +0.052 A 
ATOM      3  C   UNL     1      -4.707  -8.572   4.173  0.00  0.00    +0.027 A 
ATOM      4  C   UNL     1      -4.348  -9.896   4.010  0.00  0.00    +0.040 A 
ATOM      5  C   UNL     1      -3.444 -10.253   3.024  0.00  0.00    +0.124 A 
ATOM      6  C   UNL     1      -2.902  -9.284   2.196  0.00  0.00    +0.040 A 
ATOM      7  C   UNL     1      -3.262  -7.960   2.352  0.00  0.00    +0.027 A 
ATOM      8  F   UNL     1      -3.090 -11.547   2.869  0.00  0.00    -0.205 F 
ENDBRANCH   1   2
BRANCH   1   9
ATOM      9  S   UNL     1      -5.050  -5.713   4.976  0.00  0.00    +0.075 S 
ATOM     10  O   UNL     1      -4.522  -6.607   5.947  0.00  0.00    -0.150 OA
ATOM     11  O   UNL     1      -4.789  -4.316   5.005  0.00  0.00    -0.150 OA
BRANCH   9  12
ATOM     12  C   UNL     1      -6.801  -5.899   5.019  0.00  0.00    +0.109 A 
ATOM     13  C   UNL     1      -7.614  -4.927   4.466  0.00  0.00    +0.029 A 
ATOM     14  C   UNL     1      -8.988  -5.076   4.495  0.00  0.00    +0.002 A 
ATOM     15  C   UNL     1      -9.550  -6.192   5.086  0.00  0.00    +0.000 A 
ATOM     16  C   UNL     1      -8.738  -7.162   5.644  0.00  0.00    +0.002 A 
ATOM     17  C   UNL     1      -7.364  -7.016   5.610  0.00  0.00    +0.029 A 
ENDBRANCH   9  12
ENDBRANCH   1   9
BRANCH   1  18
ATOM     18  C   UNL     1      -4.463  -5.340   2.362  0.00  0.00    +0.228 C 
BRANCH  18  20
ATOM     19  N   UNL     1      -2.760  -3.922   1.264  0.00  0.00    -0.206 N 
ATOM     20  C   UNL     1      -3.063  -4.794   2.246  0.00  0.00    +0.251 C 
ATOM     21  O   UNL     1      -2.210  -5.139   3.036  0.00  0.00    -0.272 OA
ATOM     22  H   UNL     1      -3.534  -3.609   0.548  0.00  0.00    +0.177 HD
BRANCH  19  27
ATOM     23  C   UNL     1      -0.931   0.067  -0.889  0.00  0.00    -0.005 C 
ATOM     24  C   UNL     1      -2.322  -0.519  -0.645  0.00  0.00    +0.010 C 
ATOM     25  C   UNL     1      -2.247  -2.049  -0.696  0.00  0.00    +0.053 C 
ATOM     26  C   UNL     1      -1.194  -2.511   0.288  0.00  0.00    +0.037 C 
ATOM     27  N   UNL     1      -1.459  -3.414   1.156  0.00  0.00    -0.189 NA
ATOM     28  C   UNL     1       0.178  -1.879   0.219  0.00  0.00    +0.053 C 
ATOM     29  C   UNL     1       0.015  -0.356   0.237  0.00  0.00    +0.010 C 
BRANCH  23  31
ATOM     30  C   UNL     1       0.368   2.181  -1.183  0.00  0.00    +0.011 C 
ATOM     31  C   UNL     1      -1.022   1.594  -0.930  0.00  0.00    -0.035 C 
ATOM     32  C   UNL     1      -1.967   2.018  -2.056  0.00  0.00    +0.011 C 
ATOM     33  C   UNL     1      -1.558   2.109   0.407  0.00  0.00    +0.011 C 
ENDBRANCH  23  31
ENDBRANCH  19  27
ENDBRANCH  18  20
ENDBRANCH   1  18
TORSDOF 7
