REMARK  Name = ZINC67348696
REMARK  4 active torsions:
REMARK  status: ('A' for Active; 'I' for Inactive)
REMARK    1  A    between atoms: C_1  and  N_2
REMARK    2  A    between atoms: N_2  and  C_3
REMARK    3  A    between atoms: C_13  and  C_15
REMARK    4  A    between atoms: N_17  and  C_18
REMARK                            x       y       z     vdW  Elec       q    Type
REMARK                         _______ _______ _______ _____ _____    ______ ____
ROOT
ATOM      1  C   UNL     1       0.192   0.093  -2.450  0.00  0.00    +0.300 C 
ATOM      2  O   UNL     1       0.267   1.304  -2.434  0.00  0.00    -0.265 OA
ATOM      3  N   UNL     1       0.190  -0.567  -3.625  0.00  0.00    -0.301 N 
ATOM      4  H   UNL     1       0.130  -1.535  -3.638  0.00  0.00    +0.150 HD
ENDROOT
BRANCH   3   5
ATOM      5  C   UNL     1       0.278   0.178  -4.884  0.00  0.00    +0.106 C 
ATOM      6  C   UNL     1       0.914  -0.717  -5.933  0.00  0.00    +0.038 C 
ATOM      7  C   UNL     1       1.058   0.071  -7.244  0.00  0.00    +0.076 C 
ATOM      8  S   UNL     1      -0.610   0.264  -7.938  0.00  0.00    -0.122 S 
ATOM      9  C   UNL     1      -1.577   0.749  -6.543  0.00  0.00    +0.048 A 
ATOM     10  C   UNL     1      -1.094   0.659  -5.253  0.00  0.00    -0.011 A 
ATOM     11  C   UNL     1      -1.922   1.045  -4.201  0.00  0.00    +0.007 A 
ATOM     12  C   UNL     1      -3.197   1.514  -4.435  0.00  0.00    +0.003 A 
ATOM     13  C   UNL     1      -3.674   1.609  -5.729  0.00  0.00    +0.039 A 
ATOM     14  C   UNL     1      -2.867   1.231  -6.777  0.00  0.00    +0.137 A 
ATOM     15  F   UNL     1      -3.329   1.320  -8.043  0.00  0.00    -0.204 F 
ENDBRANCH   3   5
BRANCH   1  18
ATOM     16  C   UNL     1       0.024  -0.743   1.267  0.00  0.00    +0.139 C 
ATOM     17  N   UNL     1      -0.002  -0.004   0.002  0.00  0.00    -0.266 N 
ATOM     18  C   UNL     1       0.102  -0.666  -1.167  0.00  0.00    +0.305 C 
ATOM     19  O   UNL     1       0.122  -1.880  -1.178  0.00  0.00    -0.265 OA
BRANCH  17  20
ATOM     20  C   UNL     1      -0.132   1.383   0.007  0.00  0.00    +0.044 A 
ATOM     21  C   UNL     1       0.987   2.188   0.046  0.00  0.00    +0.024 A 
ATOM     22  C   UNL     1       0.867   3.574   0.052  0.00  0.00    +0.002 A 
ATOM     23  C   UNL     1      -0.355   4.174   0.020  0.00  0.00    +0.008 A 
ATOM     24  C   UNL     1      -1.521   3.391  -0.020  0.00  0.00    -0.016 A 
ATOM     25  C   UNL     1      -1.412   1.978  -0.032  0.00  0.00    +0.004 A 
ATOM     26  C   UNL     1      -2.577   1.198  -0.077  0.00  0.00    +0.010 A 
ATOM     27  C   UNL     1      -3.795   1.806  -0.114  0.00  0.00    +0.001 A 
ATOM     28  C   UNL     1      -3.903   3.195  -0.108  0.00  0.00    +0.001 A 
ATOM     29  C   UNL     1      -2.795   3.983  -0.053  0.00  0.00    +0.008 A 
ENDBRANCH  17  20
ENDBRANCH   1  18
TORSDOF 3
