REMARK  Name = ZINC05156297
REMARK  9 active torsions:
REMARK  status: ('A' for Active; 'I' for Inactive)
REMARK    1  A    between atoms: C_1  and  C_2
REMARK    2  A    between atoms: C_2  and  C_3
REMARK    3  A    between atoms: C_3  and  C_4
REMARK    4  A    between atoms: C_4  and  C_5
REMARK    5  A    between atoms: C_5  and  N_6
REMARK    6  A    between atoms: C_7  and  N_29
REMARK    7  A    between atoms: C_8  and  S_19
REMARK    8  A    between atoms: S_19  and  C_22
REMARK    9  A    between atoms: C_26  and  C_28
REMARK                            x       y       z     vdW  Elec       q    Type
REMARK                         _______ _______ _______ _____ _____    ______ ____
ROOT
ATOM      1  N   UNL     1       0.612   6.782  -3.673  0.00  0.00    -0.311 N 
ATOM      2  C   UNL     1       0.990   6.393  -2.412  0.00  0.00    +0.126 A 
ATOM      3  C   UNL     1      -0.096   6.133  -1.646  0.00  0.00    +0.160 A 
ATOM      4  C   UNL     1      -1.252   6.369  -2.429  0.00  0.00    +0.135 A 
ATOM      5  C   UNL     1      -0.765   6.791  -3.748  0.00  0.00    +0.163 A 
ATOM      6  N   UNL     1      -1.626   7.081  -4.697  0.00  0.00    -0.226 NA
ATOM      7  C   UNL     1      -2.941   6.992  -4.455  0.00  0.00    +0.092 A 
ATOM      8  C   UNL     1      -3.870   7.301  -5.465  0.00  0.00    +0.030 A 
ATOM      9  C   UNL     1      -5.203   7.207  -5.212  0.00  0.00    +0.002 A 
ATOM     10  C   UNL     1      -5.668   6.806  -3.960  0.00  0.00    +0.002 A 
ATOM     11  C   UNL     1      -4.801   6.499  -2.958  0.00  0.00    +0.030 A 
ATOM     12  C   UNL     1      -3.413   6.584  -3.182  0.00  0.00    +0.090 A 
ATOM     13  N   UNL     1      -2.553   6.284  -2.203  0.00  0.00    -0.240 NA
ENDROOT
BRANCH   3  14
ATOM     14  S   UNL     1      -0.074   5.602   0.034  0.00  0.00    +0.030 S 
ATOM     15  O   UNL     1      -1.320   5.988   0.598  0.00  0.00    -0.164 OA
ATOM     16  O   UNL     1       1.171   6.022   0.576  0.00  0.00    -0.164 OA
BRANCH  14  17
ATOM     17  C   UNL     1      -0.050   3.840   0.023  0.00  0.00    +0.094 A 
ATOM     18  C   UNL     1       1.157   3.165   0.008  0.00  0.00    +0.027 A 
ATOM     19  C   UNL     1       1.175   1.783   0.000  0.00  0.00    +0.002 A 
ATOM     20  C   UNL     1      -0.013   1.076   0.008  0.00  0.00    +0.003 A 
ATOM     21  C   UNL     1      -1.219   1.750   0.017  0.00  0.00    -0.049 A 
ATOM     22  C   UNL     1      -1.238   3.133   0.029  0.00  0.00    +0.030 A 
ATOM     23  C   UNL     1      -2.514   0.979   0.019  0.00  0.00    +0.044 C 
ENDBRANCH  14  17
ENDBRANCH   3  14
BRANCH   2  24
ATOM     24  N   UNL     1       2.300   6.279  -1.984  0.00  0.00    -0.343 N 
ATOM     25  H   UNL     1       2.491   5.994  -1.077  0.00  0.00    +0.144 HD
ATOM     26  H   UNL     1       3.028   6.483  -2.592  0.00  0.00    +0.144 HD
ENDBRANCH   2  24
BRANCH   1  27
ATOM     27  C   UNL     1       1.524   7.136  -4.763  0.00  0.00    +0.125 C 
BRANCH  27  28
ATOM     28  C   UNL     1       1.828   8.634  -4.707  0.00  0.00    +0.022 C 
BRANCH  28  29
ATOM     29  C   UNL     1       2.781   9.004  -5.845  0.00  0.00    +0.001 C 
BRANCH  29  31
ATOM     30  C   UNL     1       4.037  10.873  -6.928  0.00  0.00    +0.004 C 
ATOM     31  C   UNL     1       3.084  10.503  -5.790  0.00  0.00    -0.003 C 
ENDBRANCH  29  31
ENDBRANCH  28  29
ENDBRANCH  27  28
ENDBRANCH   1  27
TORSDOF 7
