REMARK  Name = ZINC38980559
REMARK  5 active torsions:
REMARK  status: ('A' for Active; 'I' for Inactive)
REMARK    1  A    between atoms: C_1  and  C_2
REMARK    2  A    between atoms: C_4  and  C_8
REMARK    3  A    between atoms: C_12  and  S_25
REMARK    4  A    between atoms: N_14  and  N_15
REMARK    5  A    between atoms: C_16  and  C_17
REMARK                            x       y       z     vdW  Elec       q    Type
REMARK                         _______ _______ _______ _____ _____    ______ ____
ROOT
ATOM      1  C   UNL     1      -0.977  -2.967   1.053  0.00  0.00    +0.206 C 
ATOM      2  N   UNL     1      -2.444  -3.075   1.221  0.00  0.00    -0.231 NA
ATOM      3  N   UNL     1      -2.630  -4.285   2.038  0.00  0.00    -0.225 NA
ATOM      4  C   UNL     1      -1.584  -5.203   1.517  0.00  0.00    +0.231 C 
ATOM      5  N   UNL     1      -0.430  -4.322   1.242  0.00  0.00    -0.207 N 
ATOM      6  H   UNL     1      -2.815  -2.262   1.690  0.00  0.00    +0.143 HD
ATOM      7  H   UNL     1      -3.552  -4.673   1.903  0.00  0.00    +0.143 HD
ENDROOT
BRANCH   1  11
ATOM      8  C   UNL     1      -0.182   1.169  -1.073  0.00  0.00    +0.067 C 
ATOM      9  C   UNL     1      -0.143  -0.312  -0.797  0.00  0.00    +0.058 C 
ATOM     10  C   UNL     1      -1.218  -1.069  -0.569  0.00  0.00    +0.029 C 
ATOM     11  C   UNL     1      -0.646  -2.459  -0.352  0.00  0.00    +0.190 C 
ATOM     12  N   UNL     1       0.803  -2.249  -0.506  0.00  0.00    -0.177 NA
ATOM     13  N   UNL     1       0.986  -1.054  -0.752  0.00  0.00    -0.159 NA
ENDBRANCH   1  11
BRANCH   5  14
ATOM     14  N   UNL     1       0.917  -4.700   1.173  0.00  0.00    -0.188 NA
ATOM     15  C   UNL     1       1.244  -5.953   1.245  0.00  0.00    +0.139 C 
BRANCH  15  16
ATOM     16  C   UNL     1       2.665  -6.342   1.313  0.00  0.00    +0.013 A 
ATOM     17  C   UNL     1       3.021  -7.691   1.385  0.00  0.00    +0.012 A 
ATOM     18  C   UNL     1       4.351  -8.049   1.447  0.00  0.00    +0.021 A 
ATOM     19  C   UNL     1       5.335  -7.073   1.439  0.00  0.00    +0.042 A 
ATOM     20  C   UNL     1       4.990  -5.734   1.369  0.00  0.00    +0.040 A 
ATOM     21  C   UNL     1       3.662  -5.363   1.300  0.00  0.00    +0.051 A 
ATOM     22 CL   UNL     1       3.232  -3.684   1.204  0.00  0.00    -0.083 Cl
ATOM     23 CL   UNL     1       7.007  -7.532   1.519  0.00  0.00    -0.083 Cl
ENDBRANCH  15  16
ENDBRANCH   5  14
BRANCH   4  24
ATOM     24  S   UNL     1      -1.153  -6.447   2.765  0.00  0.00    -0.138 S 
ATOM     25  H   UNL     1      -2.303  -7.113   2.972  0.00  0.00    +0.105 HD
ENDBRANCH   4  24
TORSDOF 4
