REMARK  Name = ZINC09785817
REMARK  7 active torsions:
REMARK  status: ('A' for Active; 'I' for Inactive)
REMARK    1  A    between atoms: C_1  and  C_2
REMARK    2  A    between atoms: C_6  and  N_9
REMARK    3  A    between atoms: C_7  and  C_8
REMARK    4  A    between atoms: C_10  and  C_12
REMARK    5  A    between atoms: C_12  and  C_13
REMARK    6  A    between atoms: N_21  and  C_22
REMARK    7  A    between atoms: C_22  and  C_23
REMARK                            x       y       z     vdW  Elec       q    Type
REMARK                         _______ _______ _______ _____ _____    ______ ____
ROOT
ATOM      1  C   UNL     1       4.640   0.908  -0.047  0.00  0.00    +0.059 A 
ATOM      2  C   UNL     1       4.441  -0.432  -0.062  0.00  0.00    +0.072 A 
ATOM      3  S   UNL     1       2.656  -0.503  -0.041  0.00  0.00    -0.060 S 
ATOM      4  C   UNL     1       2.362   1.208  -0.015  0.00  0.00    +0.166 A 
ATOM      5  N   UNL     1       3.585   1.700  -0.029  0.00  0.00    -0.229 NA
ATOM      6  N   UNL     1       1.148   1.885   0.009  0.00  0.00    -0.248 N 
ATOM      7  C   UNL     1      -0.009   1.195   0.014  0.00  0.00    +0.306 C 
ATOM      8  O   UNL     1       0.009  -0.021  -0.002  0.00  0.00    -0.252 OA
ATOM      9  N   UNL     1      -1.186   1.851   0.032  0.00  0.00    -0.292 N 
ATOM     10  H   UNL     1       1.134   2.855   0.022  0.00  0.00    +0.158 HD
ATOM     11  H   UNL     1      -1.200   2.821   0.044  0.00  0.00    +0.151 HD
ENDROOT
BRANCH   1  12
ATOM     12  C   UNL     1       6.034   1.481  -0.057  0.00  0.00    +0.152 C 
BRANCH  12  14
ATOM     13  N   UNL     1       7.343   3.078  -1.418  0.00  0.00    -0.285 N 
ATOM     14  C   UNL     1       6.174   2.441  -1.210  0.00  0.00    +0.223 C 
ATOM     15  O   UNL     1       5.234   2.641  -1.951  0.00  0.00    -0.275 OA
ATOM     16  H   UNL     1       8.069   2.981  -0.782  0.00  0.00    +0.155 HD
BRANCH  13  22
ATOM     17  C   UNL     1       9.612   6.821  -3.658  0.00  0.00    +0.044 C 
ATOM     18  C   UNL     1       8.604   5.701  -3.666  0.00  0.00    -0.046 A 
ATOM     19  C   UNL     1       7.843   5.464  -4.797  0.00  0.00    +0.004 A 
ATOM     20  C   UNL     1       6.917   4.437  -4.808  0.00  0.00    +0.002 A 
ATOM     21  C   UNL     1       6.749   3.644  -3.690  0.00  0.00    +0.023 A 
ATOM     22  C   UNL     1       7.511   3.879  -2.553  0.00  0.00    +0.037 A 
ATOM     23  C   UNL     1       8.436   4.916  -2.543  0.00  0.00    -0.026 A 
ATOM     24  C   UNL     1       9.261   5.178  -1.309  0.00  0.00    +0.046 C 
ENDBRANCH  13  22
ENDBRANCH  12  14
ENDBRANCH   1  12
BRANCH   9  25
ATOM     25  C   UNL     1      -2.444   1.101   0.031  0.00  0.00    +0.180 C 
BRANCH  25  26
ATOM     26  C   UNL     1      -3.603   2.063   0.052  0.00  0.00    +0.122 A 
ATOM     27  C   UNL     1      -4.216   2.580  -1.028  0.00  0.00    +0.046 A 
ATOM     28  C   UNL     1      -5.242   3.428  -0.550  0.00  0.00    +0.041 A 
ATOM     29  C   UNL     1      -5.194   3.379   0.794  0.00  0.00    +0.195 A 
ATOM     30  O   UNL     1      -4.203   2.546   1.153  0.00  0.00    -0.466 OA
ENDBRANCH  25  26
ENDBRANCH   9  25
TORSDOF 5
