REMARK  Name = ZINC67550654
REMARK  5 active torsions:
REMARK  status: ('A' for Active; 'I' for Inactive)
REMARK    1  A    between atoms: C_6  and  N_7
REMARK    2  A    between atoms: N_10  and  C_11
REMARK    3  A    between atoms: C_11  and  C_12
REMARK    4  A    between atoms: N_17  and  C_18
REMARK    5  A    between atoms: C_18  and  C_19
REMARK                            x       y       z     vdW  Elec       q    Type
REMARK                         _______ _______ _______ _____ _____    ______ ____
ROOT
ATOM      1  N   UNL     1      -1.494  -0.273   0.040  0.00  0.00    -0.269 N 
ATOM      2  C   UNL     1      -2.727   0.261   0.140  0.00  0.00    +0.304 C 
ATOM      3  O   UNL     1      -2.868   1.468   0.138  0.00  0.00    -0.253 OA
ATOM      4  N   UNL     1      -3.804  -0.544   0.241  0.00  0.00    -0.301 N 
ATOM      5  H   UNL     1      -1.386  -1.235  -0.035  0.00  0.00    +0.156 HD
ATOM      6  H   UNL     1      -3.691  -1.507   0.242  0.00  0.00    +0.150 HD
ENDROOT
BRANCH   1  12
ATOM      7  C   UNL     1      -0.373   1.729   0.792  0.00  0.00    +0.024 A 
ATOM      8  C   UNL     1       0.737   2.555   0.798  0.00  0.00    +0.008 A 
ATOM      9  C   UNL     1       1.849   2.219   0.061  0.00  0.00    -0.018 A 
ATOM     10  C   UNL     1       1.869   1.046  -0.697  0.00  0.00    +0.043 A 
ATOM     11  C   UNL     1       0.749   0.214  -0.702  0.00  0.00    +0.036 A 
ATOM     12  C   UNL     1      -0.368   0.559   0.043  0.00  0.00    +0.035 A 
ATOM     13  C   UNL     1       3.178   0.952  -1.372  0.00  0.00    +0.245 C 
ATOM     14  O   UNL     1       3.517   0.047  -2.109  0.00  0.00    -0.270 OA
ATOM     15  N   UNL     1       3.942   2.011  -1.055  0.00  0.00    -0.307 N 
ATOM     16  C   UNL     1       3.189   2.882  -0.145  0.00  0.00    +0.140 C 
ATOM     17  H   UNL     1       4.844   2.174  -1.374  0.00  0.00    +0.149 HD
ENDBRANCH   1  12
BRANCH   4  18
ATOM     18  C   UNL     1      -5.144   0.037   0.350  0.00  0.00    +0.090 C 
BRANCH  18  19
ATOM     19  C   UNL     1      -6.179  -1.085   0.451  0.00  0.00    -0.051 C 
ATOM     20  C   UNL     1      -7.603  -0.493   0.396  0.00  0.00    -0.016 C 
ATOM     21  C   UNL     1      -7.997  -0.667  -1.095  0.00  0.00    -0.020 C 
ATOM     22  C   UNL     1      -7.319  -2.016  -1.442  0.00  0.00    -0.078 C 
ATOM     23  N   UNL     1      -6.039  -2.002  -0.695  0.00  0.00    +0.383 N 
ATOM     24  H   UNL     1      -5.297  -1.680  -1.299  0.00  0.00    -0.081 HD
BRANCH  23  25
ATOM     25  C   UNL     1      -5.730  -3.354  -0.212  0.00  0.00    -0.075 C 
BRANCH  25  26
ATOM     26  C   UNL     1      -5.445  -4.269  -1.405  0.00  0.00    -0.028 C 
ATOM     27  C   UNL     1      -5.262  -5.706  -0.913  0.00  0.00    +0.002 C 
ATOM     28  C   UNL     1      -4.978  -6.621  -2.106  0.00  0.00    +0.000 C 
ATOM     29  C   UNL     1      -3.702  -6.157  -2.812  0.00  0.00    +0.000 C 
ATOM     30  C   UNL     1      -3.885  -4.720  -3.304  0.00  0.00    +0.000 C 
ATOM     31  C   UNL     1      -4.170  -3.805  -2.111  0.00  0.00    +0.002 C 
ENDBRANCH  25  26
ENDBRANCH  23  25
ENDBRANCH  18  19
ENDBRANCH   4  18
TORSDOF 5
