REMARK  Name = ZINC09351711
REMARK  9 active torsions:
REMARK  status: ('A' for Active; 'I' for Inactive)
REMARK    1  A    between atoms: C_1  and  N_2
REMARK    2  A    between atoms: N_2  and  C_3
REMARK    3  A    between atoms: C_9  and  C_11
REMARK    4  A    between atoms: C_11  and  S_12
REMARK    5  A    between atoms: S_12  and  C_13
REMARK    6  A    between atoms: C_18  and  C_19
REMARK    7  A    between atoms: C_19  and  O_21
REMARK    8  A    between atoms: O_21  and  C_22
REMARK    9  A    between atoms: C_22  and  C_23
REMARK                            x       y       z     vdW  Elec       q    Type
REMARK                         _______ _______ _______ _____ _____    ______ ____
ROOT
ATOM      1  C   UNL     1      -0.253   1.257   4.881  0.00  0.00    +0.022 A 
ATOM      2  C   UNL     1      -0.864   1.678   6.057  0.00  0.00    +0.015 A 
ATOM      3  C   UNL     1      -1.999   2.458   6.005  0.00  0.00    +0.001 A 
ATOM      4  C   UNL     1      -2.542   2.829   4.784  0.00  0.00    +0.001 A 
ATOM      5  C   UNL     1      -1.949   2.427   3.608  0.00  0.00    +0.016 A 
ATOM      6  C   UNL     1      -0.800   1.631   3.642  0.00  0.00    +0.072 A 
ENDROOT
BRANCH   6   7
ATOM      7  C   UNL     1      -0.164   1.192   2.389  0.00  0.00    +0.341 C 
ATOM      8  O   UNL     1       0.837   0.505   2.423  0.00  0.00    -0.245 OA
BRANCH   7   9
ATOM      9  O   UNL     1      -0.692   1.554   1.203  0.00  0.00    -0.452 OA
BRANCH   9  10
ATOM     10  C   UNL     1      -0.013   1.086   0.008  0.00  0.00    +0.328 C 
BRANCH  10  11
ATOM     11  C   UNL     1      -0.742   1.585  -1.213  0.00  0.00    +0.258 C 
ATOM     12  O   UNL     1      -1.736   2.268  -1.089  0.00  0.00    -0.272 OA
ATOM     13  N   UNL     1      -0.288   1.272  -2.443  0.00  0.00    -0.238 N 
ATOM     14  C   UNL     1      -0.940   1.719  -3.535  0.00  0.00    +0.303 C 
ATOM     15  O   UNL     1      -1.937   2.403  -3.410  0.00  0.00    -0.253 OA
ATOM     16  N   UNL     1      -0.487   1.406  -4.765  0.00  0.00    -0.313 N 
ATOM     17  H   UNL     1       0.507   0.726  -2.543  0.00  0.00    +0.159 HD
ATOM     18  H   UNL     1       0.308   0.860  -4.865  0.00  0.00    +0.146 HD
ATOM     19  H   UNL     1      -0.956   1.727  -5.551  0.00  0.00    +0.146 HD
ENDBRANCH  10  11
ENDBRANCH   9  10
ENDBRANCH   7   9
ENDBRANCH   6   7
BRANCH   1  20
ATOM     20  S   UNL     1       1.199   0.260   4.944  0.00  0.00    -0.115 S 
BRANCH  20  21
ATOM     21  C   UNL     1       1.406   0.120   6.737  0.00  0.00    +0.170 C 
BRANCH  21  24
ATOM     22  C   UNL     1       2.176  -0.406   9.413  0.00  0.00    +0.132 C 
ATOM     23  N   UNL     1       2.976  -0.957   8.316  0.00  0.00    -0.301 N 
ATOM     24  C   UNL     1       2.624  -0.716   7.037  0.00  0.00    +0.226 C 
ATOM     25  O   UNL     1       3.286  -1.171   6.130  0.00  0.00    -0.275 OA
BRANCH  23  26
ATOM     26  C   UNL     1       4.160  -1.769   8.608  0.00  0.00    +0.076 C 
ATOM     27  C   UNL     1       3.747  -2.999   9.418  0.00  0.00    +0.022 C 
ATOM     28  C   UNL     1       4.983  -3.848   9.723  0.00  0.00    +0.002 C 
ATOM     29  C   UNL     1       5.984  -3.018  10.531  0.00  0.00    +0.000 C 
ATOM     30  C   UNL     1       6.397  -1.788   9.722  0.00  0.00    +0.002 C 
ATOM     31  C   UNL     1       5.161  -0.940   9.416  0.00  0.00    +0.022 C 
ENDBRANCH  23  26
ENDBRANCH  21  24
ENDBRANCH  20  21
ENDBRANCH   1  20
TORSDOF 8
