REMARK  Name = ZINC42159787
REMARK  9 active torsions:
REMARK  status: ('A' for Active; 'I' for Inactive)
REMARK    1  A    between atoms: C_1  and  C_2
REMARK    2  A    between atoms: C_2  and  C_3
REMARK    3  A    between atoms: N_11  and  C_15
REMARK    4  A    between atoms: C_15  and  C_16
REMARK    5  A    between atoms: N_18  and  C_19
REMARK    6  A    between atoms: C_19  and  C_20
REMARK    7  A    between atoms: C_20  and  C_21
REMARK    8  A    between atoms: C_20  and  C_22
REMARK    9  A    between atoms: C_20  and  N_23
REMARK                            x       y       z     vdW  Elec       q    Type
REMARK                         _______ _______ _______ _____ _____    ______ ____
ROOT
ATOM      1  C   UNL     1      -1.988  -4.475  -4.888  0.00  0.00    +0.213 C 
ENDROOT
BRANCH   1  10
ATOM      2  C   UNL     1       0.254  -0.606  -0.788  0.00  0.00    -0.011 C 
ATOM      3  C   UNL     1      -0.408  -0.208  -2.109  0.00  0.00    +0.006 C 
ATOM      4  C   UNL     1       0.402  -0.778  -3.276  0.00  0.00    +0.035 C 
ATOM      5  C   UNL     1       0.467  -2.296  -3.160  0.00  0.00    +0.113 C 
ATOM      6  C   UNL     1       1.102  -2.710  -1.836  0.00  0.00    +0.035 C 
ATOM      7  C   UNL     1       0.290  -2.132  -0.675  0.00  0.00    +0.006 C 
ATOM      8  C   UNL     1      -0.914  -2.896  -3.293  0.00  0.00    +0.247 C 
ATOM      9  O   UNL     1      -1.869  -2.705  -2.572  0.00  0.00    -0.273 OA
ATOM     10  N   UNL     1      -0.859  -3.689  -4.383  0.00  0.00    -0.215 N 
ATOM     11  C   UNL     1       0.355  -3.669  -4.947  0.00  0.00    +0.310 C 
ATOM     12  O   UNL     1       0.650  -4.303  -5.941  0.00  0.00    -0.252 OA
ATOM     13  N   UNL     1       1.214  -2.867  -4.288  0.00  0.00    -0.285 N 
ATOM     14  H   UNL     1       2.142  -2.699  -4.515  0.00  0.00    +0.151 HD
BRANCH   2  16
ATOM     15  C   UNL     1      -0.478   1.501   0.336  0.00  0.00    +0.004 C 
ATOM     16  C   UNL     1      -0.547  -0.026   0.379  0.00  0.00    -0.000 C 
ENDBRANCH   2  16
ENDBRANCH   1  10
BRANCH   1  17
ATOM     17  C   UNL     1      -2.772  -3.651  -5.876  0.00  0.00    +0.231 C 
ATOM     18  O   UNL     1      -2.422  -2.518  -6.133  0.00  0.00    -0.274 OA
ATOM     19  N   UNL     1      -3.862  -4.172  -6.473  0.00  0.00    -0.315 N 
ATOM     20  H   UNL     1      -4.141  -5.078  -6.267  0.00  0.00    +0.149 HD
BRANCH  19  21
ATOM     21  C   UNL     1      -4.624  -3.371  -7.434  0.00  0.00    +0.092 C 
BRANCH  21  22
ATOM     22  C   UNL     1      -5.724  -4.233  -8.057  0.00  0.00    -0.055 C 
ATOM     23  C   UNL     1      -6.736  -4.627  -6.979  0.00  0.00    -0.008 C 
ATOM     24  C   UNL     1      -6.434  -3.438  -9.155  0.00  0.00    -0.008 C 
BRANCH  22  25
ATOM     25  N   UNL     1      -5.128  -5.444  -8.636  0.00  0.00    +0.384 N 
ATOM     26  C   UNL     1      -4.127  -5.063  -9.640  0.00  0.00    -0.078 C 
ATOM     27  C   UNL     1      -3.446  -6.319 -10.188  0.00  0.00    -0.019 C 
ATOM     28  C   UNL     1      -4.499  -7.224 -10.833  0.00  0.00    -0.004 C 
ATOM     29  C   UNL     1      -5.578  -7.554  -9.798  0.00  0.00    -0.019 C 
ATOM     30  C   UNL     1      -6.180  -6.253  -9.264  0.00  0.00    -0.078 C 
ATOM     31  H   UNL     1      -4.683  -5.981  -7.907  0.00  0.00    -0.081 HD
ENDBRANCH  22  25
ENDBRANCH  21  22
ENDBRANCH  19  21
ENDBRANCH   1  17
TORSDOF 6
