REMARK  Name = ZINC28292664
REMARK  9 active torsions:
REMARK  status: ('A' for Active; 'I' for Inactive)
REMARK    1  A    between atoms: C_1  and  C_2
REMARK    2  A    between atoms: C_2  and  C_3
REMARK    3  A    between atoms: C_6  and  C_9
REMARK    4  A    between atoms: C_9  and  C_11
REMARK    5  A    between atoms: C_9  and  N_28
REMARK    6  A    between atoms: C_11  and  N_12
REMARK    7  A    between atoms: C_13  and  C_15
REMARK    8  A    between atoms: C_21  and  C_27
REMARK    9  A    between atoms: C_22  and  C_26
REMARK                            x       y       z     vdW  Elec       q    Type
REMARK                         _______ _______ _______ _____ _____    ______ ____
ROOT
ATOM      1  N   UNL     1      -1.182   2.147  -0.049  0.00  0.00    -0.310 N 
ATOM      2  C   UNL     1      -0.003   1.497  -0.111  0.00  0.00    +0.279 C 
ATOM      3  O   UNL     1       1.035   2.127  -0.162  0.00  0.00    -0.267 OA
ATOM      4  H   UNL     1      -2.123   1.577  -0.008  0.00  0.00    +0.149 HD
ENDROOT
BRANCH   2   5
ATOM      5  C   UNL     1       0.027   0.015  -0.123  0.00  0.00    +0.193 A 
ATOM      6  C   UNL     1       1.226  -0.610  -0.197  0.00  0.00    +0.103 A 
ATOM      7  C   UNL     1       1.258  -2.081  -0.204  0.00  0.00    +0.193 A 
ATOM      8  O   UNL     1       2.308  -2.696  -0.264  0.00  0.00    -0.287 OA
ATOM      9  C   UNL     1      -0.042  -2.775  -0.140  0.00  0.00    +0.064 A 
ATOM     10  C   UNL     1      -0.122  -4.167  -0.147  0.00  0.00    +0.019 A 
ATOM     11  C   UNL     1      -1.345  -4.775  -0.087  0.00  0.00    -0.047 A 
ATOM     12  C   UNL     1      -2.505  -4.015  -0.020  0.00  0.00    -0.044 A 
ATOM     13  C   UNL     1      -2.445  -2.638  -0.012  0.00  0.00    +0.050 A 
ATOM     14  C   UNL     1      -1.211  -1.998  -0.072  0.00  0.00    +0.140 A 
ATOM     15  O   UNL     1      -1.134  -0.653  -0.066  0.00  0.00    -0.450 OA
ATOM     16  C   UNL     1      -3.844  -4.703   0.045  0.00  0.00    +0.044 C 
ATOM     17  C   UNL     1      -1.436  -6.279  -0.095  0.00  0.00    +0.044 C 
ENDBRANCH   2   5
BRANCH   1  18
ATOM     18  C   UNL     1      -1.212   3.611  -0.037  0.00  0.00    +0.094 C 
BRANCH  18  19
ATOM     19  C   UNL     1      -2.663   4.091   0.037  0.00  0.00    -0.020 C 
BRANCH  19  23
ATOM     20  C   UNL     1      -2.738   8.345   0.423  0.00  0.00    -0.048 A 
ATOM     21  C   UNL     1      -1.762   7.609   1.069  0.00  0.00    +0.004 A 
ATOM     22  C   UNL     1      -1.738   6.233   0.944  0.00  0.00    +0.002 A 
ATOM     23  C   UNL     1      -2.690   5.592   0.173  0.00  0.00    -0.059 A 
ATOM     24  C   UNL     1      -3.663   6.328  -0.477  0.00  0.00    +0.002 A 
ATOM     25  C   UNL     1      -3.690   7.704  -0.348  0.00  0.00    +0.004 A 
BRANCH  20  27
ATOM     26  C   UNL     1      -1.918  10.472  -0.552  0.00  0.00    +0.009 C 
ATOM     27  C   UNL     1      -2.764   9.845   0.558  0.00  0.00    +0.032 C 
ENDBRANCH  20  27
ENDBRANCH  19  23
BRANCH  19  28
ATOM     28  N   UNL     1      -3.322   3.482   1.200  0.00  0.00    +0.385 N 
ATOM     29  C   UNL     1      -2.747   3.999   2.469  0.00  0.00    -0.078 C 
ATOM     30  C   UNL     1      -3.852   3.691   3.510  0.00  0.00    -0.020 C 
ATOM     31  C   UNL     1      -5.155   3.956   2.721  0.00  0.00    -0.020 C 
ATOM     32  C   UNL     1      -4.759   3.829   1.238  0.00  0.00    -0.078 C 
ATOM     33  H   UNL     1      -3.172   2.397   1.095  0.00  0.00    -0.081 HD
ENDBRANCH  19  28
ENDBRANCH  18  19
ENDBRANCH   1  18
TORSDOF 6
