REMARK  Name = ZINC36534568
REMARK  18 active torsions:
REMARK  status: ('A' for Active; 'I' for Inactive)
REMARK    1  A    between atoms: C_1  and  C_2
REMARK    2  A    between atoms: C_2  and  C_3
REMARK    3  A    between atoms: C_2  and  C_4
REMARK    4  A    between atoms: C_2  and  C_5
REMARK    5  A    between atoms: C_5  and  C_6
REMARK    6  A    between atoms: C_6  and  C_7
REMARK    7  A    between atoms: C_6  and  C_8
REMARK    8  A    between atoms: C_6  and  N_9
REMARK    9  A    between atoms: C_10  and  C_12
REMARK   10  A    between atoms: C_12  and  C_14
REMARK   11  A    between atoms: C_12  and  N_22
REMARK   12  A    between atoms: C_18  and  O_20
REMARK   13  A    between atoms: O_20  and  C_21
REMARK   14  A    between atoms: N_22  and  C_23
REMARK   15  A    between atoms: C_24  and  C_26
REMARK   16  A    between atoms: C_26  and  C_27
REMARK   17  A    between atoms: C_26  and  C_33
REMARK   18  A    between atoms: C_26  and  O_39
REMARK                            x       y       z     vdW  Elec       q    Type
REMARK                         _______ _______ _______ _____ _____    ______ ____
ROOT
ATOM      1  C   UNL     1       5.311  -0.351  -4.157  0.00  0.00    +0.192 C 
ENDROOT
BRANCH   1   2
ATOM      2  C   UNL     1       5.204  -1.840  -4.363  0.00  0.00    -0.015 A 
ATOM      3  C   UNL     1       4.713  -2.339  -5.555  0.00  0.00    +0.006 A 
ATOM      4  C   UNL     1       4.613  -3.704  -5.747  0.00  0.00    +0.004 A 
ATOM      5  C   UNL     1       5.005  -4.574  -4.748  0.00  0.00    +0.045 A 
ATOM      6  C   UNL     1       5.498  -4.076  -3.551  0.00  0.00    +0.120 A 
ATOM      7  C   UNL     1       5.603  -2.705  -3.363  0.00  0.00    +0.051 A 
BRANCH   6   8
ATOM      8  O   UNL     1       5.884  -4.929  -2.566  0.00  0.00    -0.495 OA
ATOM      9  C   UNL     1       5.754  -6.327  -2.832  0.00  0.00    +0.277 C 
ENDBRANCH   6   8
ENDBRANCH   1   2
BRANCH   1  11
ATOM     10  N   UNL     1       3.236  -0.208  -2.819  0.00  0.00    -0.308 N 
ATOM     11  C   UNL     1       4.557   0.039  -2.912  0.00  0.00    +0.238 C 
ATOM     12  O   UNL     1       5.140   0.576  -1.993  0.00  0.00    -0.273 OA
ATOM     13  H   UNL     1       2.770  -0.637  -3.553  0.00  0.00    +0.149 HD
BRANCH  10  14
ATOM     14  C   UNL     1       2.503   0.171  -1.608  0.00  0.00    +0.030 C 
ATOM     15  C   UNL     1       2.741   1.653  -1.311  0.00  0.00    +0.031 C 
ATOM     16  C   UNL     1       2.995  -0.671  -0.429  0.00  0.00    +0.031 C 
BRANCH  14  17
ATOM     17  C   UNL     1       1.008  -0.072  -1.820  0.00  0.00    +0.031 C 
BRANCH  17  19
ATOM     18  C   UNL     1       0.957  -0.627  -4.255  0.00  0.00    +0.010 C 
ATOM     19  C   UNL     1       0.601   0.429  -3.207  0.00  0.00    -0.036 C 
ATOM     20  C   UNL     1       1.346   1.728  -3.518  0.00  0.00    +0.010 C 
ATOM     21  C   UNL     1      -0.907   0.686  -3.234  0.00  0.00    +0.010 C 
ENDBRANCH  17  19
ENDBRANCH  14  17
ENDBRANCH  10  14
ENDBRANCH   1  11
BRANCH   1  22
ATOM     22  N   UNL     1       6.720   0.022  -4.012  0.00  0.00    -0.286 N 
ATOM     23  C   UNL     1       7.535  -0.590  -2.960  0.00  0.00    +0.133 C 
ATOM     24  C   UNL     1       7.267   0.928  -4.846  0.00  0.00    +0.257 C 
ATOM     25  O   UNL     1       6.575   1.491  -5.668  0.00  0.00    -0.272 OA
BRANCH  24  26
ATOM     26  C   UNL     1       8.738   1.244  -4.757  0.00  0.00    +0.192 C 
BRANCH  26  27
ATOM     27  C   UNL     1       9.216   1.786  -6.080  0.00  0.00    -0.003 A 
ATOM     28  C   UNL     1       9.249   3.151  -6.295  0.00  0.00    +0.007 A 
ATOM     29  C   UNL     1       9.688   3.648  -7.508  0.00  0.00    +0.000 A 
ATOM     30  C   UNL     1      10.094   2.781  -8.505  0.00  0.00    +0.000 A 
ATOM     31  C   UNL     1      10.062   1.416  -8.289  0.00  0.00    +0.000 A 
ATOM     32  C   UNL     1       9.627   0.919  -7.074  0.00  0.00    +0.007 A 
ENDBRANCH  26  27
BRANCH  26  33
ATOM     33  C   UNL     1       8.967   2.272  -3.680  0.00  0.00    -0.003 A 
ATOM     34  C   UNL     1       8.030   3.264  -3.461  0.00  0.00    +0.007 A 
ATOM     35  C   UNL     1       8.241   4.207  -2.472  0.00  0.00    +0.000 A 
ATOM     36  C   UNL     1       9.388   4.158  -1.703  0.00  0.00    +0.000 A 
ATOM     37  C   UNL     1      10.325   3.166  -1.922  0.00  0.00    +0.000 A 
ATOM     38  C   UNL     1      10.112   2.220  -2.907  0.00  0.00    +0.007 A 
ENDBRANCH  26  33
BRANCH  26  39
ATOM     39  O   UNL     1       9.462   0.053  -4.441  0.00  0.00    -0.371 OA
ATOM     40  H   UNL     1       9.360  -0.654  -5.093  0.00  0.00    +0.212 HD
ENDBRANCH  26  39
ENDBRANCH  24  26
ENDBRANCH   1  22
TORSDOF 11
