REMARK  Name = ZINC62874691
REMARK  3 active torsions:
REMARK  status: ('A' for Active; 'I' for Inactive)
REMARK    1  A    between atoms: C_1  and  C_2
REMARK    2  A    between atoms: C_2  and  C_19
REMARK    3  A    between atoms: N_6  and  C_8
REMARK                            x       y       z     vdW  Elec       q    Type
REMARK                         _______ _______ _______ _____ _____    ______ ____
ROOT
ATOM      1  C   UNL     1       2.751   0.596   2.190  0.00  0.00    +0.040 A 
ATOM      2  C   UNL     1       2.725   1.982   2.227  0.00  0.00    +0.041 A 
ATOM      3  C   UNL     1       3.334   2.652   3.279  0.00  0.00    +0.085 A 
ATOM      4  N   UNL     1       3.941   2.012   4.251  0.00  0.00    -0.361 N 
ATOM      5  C   UNL     1       4.004   0.676   4.280  0.00  0.00    +0.050 A 
ATOM      6  C   UNL     1       3.403  -0.083   3.247  0.00  0.00    +0.019 A 
ATOM      7  C   UNL     1       3.467  -1.483   3.285  0.00  0.00    +0.013 A 
ATOM      8  C   UNL     1       4.104  -2.100   4.319  0.00  0.00    +0.021 A 
ATOM      9  C   UNL     1       4.693  -1.357   5.341  0.00  0.00    +0.043 A 
ATOM     10  C   UNL     1       4.658   0.005   5.327  0.00  0.00    +0.046 A 
ATOM     11 CL   UNL     1       5.495  -2.179   6.643  0.00  0.00    -0.083 Cl
ATOM     12  H   UNL     1       4.353   2.520   4.967  0.00  0.00    +0.165 HD
ENDROOT
BRANCH   1  18
ATOM     13  C   UNL     1      -0.019   1.526   0.010  0.00  0.00    +0.024 C 
ATOM     14  C   UNL     1       0.002  -0.004   0.002  0.00  0.00    +0.085 C 
ATOM     15  C   UNL     1       0.722  -0.498  -1.255  0.00  0.00    +0.021 C 
ATOM     16  C   UNL     1       2.147   0.059  -1.281  0.00  0.00    +0.020 C 
ATOM     17  C   UNL     1       2.912  -0.448  -0.055  0.00  0.00    +0.105 C 
ATOM     18  N   UNL     1       2.151  -0.103   1.154  0.00  0.00    -0.328 N 
ATOM     19  C   UNL     1       0.743  -0.512   1.243  0.00  0.00    +0.123 C 
BRANCH  14  20
ATOM     20  C   UNL     1      -1.411  -0.526   0.011  0.00  0.00    +0.363 C 
ATOM     21  O   UNL     1      -2.174  -0.237  -0.895  0.00  0.00    -0.246 OA
ATOM     22  O   UNL     1      -1.793  -1.238   0.925  0.00  0.00    -0.246 OA
ENDBRANCH  14  20
ENDBRANCH   1  18
TORSDOF 2
