REMARK  Name = ZINC08390866
REMARK  9 active torsions:
REMARK  status: ('A' for Active; 'I' for Inactive)
REMARK    1  A    between atoms: C_1  and  C_2
REMARK    2  A    between atoms: C_2  and  C_3
REMARK    3  A    between atoms: C_2  and  N_4
REMARK    4  A    between atoms: C_5  and  C_7
REMARK    5  A    between atoms: N_9  and  N_10
REMARK    6  A    between atoms: C_11  and  C_13
REMARK    7  A    between atoms: C_13  and  N_14
REMARK    8  A    between atoms: C_15  and  C_17
REMARK    9  A    between atoms: C_17  and  C_18
REMARK                            x       y       z     vdW  Elec       q    Type
REMARK                         _______ _______ _______ _____ _____    ______ ____
ROOT
ATOM      1  C   UNL     1      -7.538  -2.430  -3.428  0.00  0.00    +0.201 C 
ENDROOT
BRANCH   1   3
ATOM      2  N   UNL     1      -5.446  -1.776  -2.281  0.00  0.00    -0.233 N 
ATOM      3  C   UNL     1      -6.124  -1.908  -3.438  0.00  0.00    +0.246 C 
ATOM      4  O   UNL     1      -5.597  -1.607  -4.488  0.00  0.00    -0.273 OA
ATOM      5  H   UNL     1      -5.867  -2.018  -1.442  0.00  0.00    +0.173 HD
BRANCH   2   8
ATOM      6  C   UNL     1      -3.453  -1.160  -1.134  0.00  0.00    +0.315 C 
ATOM      7  O   UNL     1      -3.980  -1.462  -0.084  0.00  0.00    -0.264 OA
ATOM      8  N   UNL     1      -4.131  -1.292  -2.291  0.00  0.00    -0.227 N 
ATOM      9  H   UNL     1      -3.710  -1.050  -3.131  0.00  0.00    +0.173 HD
BRANCH   6  11
ATOM     10  N   UNL     1      -1.372  -0.511   0.012  0.00  0.00    -0.305 N 
ATOM     11  C   UNL     1      -2.051  -0.643  -1.145  0.00  0.00    +0.301 C 
ATOM     12  O   UNL     1      -1.523  -0.341  -2.195  0.00  0.00    -0.265 OA
ATOM     13  H   UNL     1      -1.794  -0.752   0.852  0.00  0.00    +0.149 HD
BRANCH  10  15
ATOM     14  C   UNL     1      -0.019   1.526   0.010  0.00  0.00    +0.027 C 
ATOM     15  C   UNL     1       0.002  -0.004   0.002  0.00  0.00    +0.067 C 
ATOM     16  C   UNL     1       0.742  -0.511   1.242  0.00  0.00    +0.027 C 
ENDBRANCH  10  15
ENDBRANCH   6  11
ENDBRANCH   2   8
ENDBRANCH   1   3
BRANCH   1  17
ATOM     17  N   UNL     1      -8.051  -2.478  -4.799  0.00  0.00    -0.307 N 
ATOM     18  C   UNL     1      -9.304  -2.916  -5.035  0.00  0.00    +0.214 C 
ATOM     19  O   UNL     1     -10.007  -3.269  -4.111  0.00  0.00    -0.276 OA
ATOM     20  H   UNL     1      -7.489  -2.196  -5.537  0.00  0.00    +0.149 HD
BRANCH  18  21
ATOM     21  C   UNL     1      -9.832  -2.966  -6.445  0.00  0.00    +0.102 C 
BRANCH  21  22
ATOM     22  C   UNL     1     -11.267  -3.495  -6.434  0.00  0.00    -0.020 C 
ATOM     23  C   UNL     1     -11.287  -4.902  -5.832  0.00  0.00    +0.011 C 
ATOM     24  C   UNL     1     -12.723  -5.431  -5.821  0.00  0.00    -0.010 C 
ATOM     25  C   UNL     1     -13.258  -5.482  -7.254  0.00  0.00    +0.007 C 
ATOM     26  C   UNL     1     -13.238  -4.076  -7.856  0.00  0.00    -0.010 C 
ATOM     27  C   UNL     1     -11.803  -3.546  -7.867  0.00  0.00    +0.011 C 
ATOM     28  C   UNL     1     -14.117  -3.148  -7.015  0.00  0.00    +0.007 C 
ATOM     29  C   UNL     1     -13.582  -3.097  -5.583  0.00  0.00    -0.010 C 
ATOM     30  C   UNL     1     -13.602  -4.504  -4.981  0.00  0.00    +0.007 C 
ATOM     31  C   UNL     1     -12.146  -2.568  -5.594  0.00  0.00    +0.011 C 
ENDBRANCH  21  22
ENDBRANCH  18  21
ENDBRANCH   1  17
TORSDOF 7
