REMARK  Name = ZINC38975491
REMARK  7 active torsions:
REMARK  status: ('A' for Active; 'I' for Inactive)
REMARK    1  A    between atoms: C_1  and  C_2
REMARK    2  A    between atoms: C_4  and  C_8
REMARK    3  A    between atoms: C_12  and  S_29
REMARK    4  A    between atoms: N_14  and  N_15
REMARK    5  A    between atoms: C_16  and  C_17
REMARK    6  A    between atoms: C_26  and  O_27
REMARK    7  A    between atoms: O_27  and  C_28
REMARK                            x       y       z     vdW  Elec       q    Type
REMARK                         _______ _______ _______ _____ _____    ______ ____
ROOT
ATOM      1  C   UNL     1      -0.977  -2.967   1.052  0.00  0.00    +0.206 C 
ATOM      2  N   UNL     1      -2.444  -3.075   1.219  0.00  0.00    -0.231 NA
ATOM      3  N   UNL     1      -2.631  -4.285   2.034  0.00  0.00    -0.225 NA
ATOM      4  C   UNL     1      -1.585  -5.204   1.514  0.00  0.00    +0.231 C 
ATOM      5  N   UNL     1      -0.430  -4.322   1.241  0.00  0.00    -0.207 N 
ATOM      6  H   UNL     1      -2.816  -2.262   1.687  0.00  0.00    +0.143 HD
ATOM      7  H   UNL     1      -3.553  -4.674   1.899  0.00  0.00    +0.143 HD
ENDROOT
BRANCH   1  11
ATOM      8  C   UNL     1      -0.180   1.170  -1.071  0.00  0.00    +0.067 C 
ATOM      9  C   UNL     1      -0.141  -0.311  -0.796  0.00  0.00    +0.058 C 
ATOM     10  C   UNL     1      -1.216  -1.069  -0.569  0.00  0.00    +0.029 C 
ATOM     11  C   UNL     1      -0.645  -2.459  -0.352  0.00  0.00    +0.190 C 
ATOM     12  N   UNL     1       0.805  -2.248  -0.505  0.00  0.00    -0.177 NA
ATOM     13  N   UNL     1       0.988  -1.053  -0.750  0.00  0.00    -0.159 NA
ENDBRANCH   1  11
BRANCH   5  14
ATOM     14  N   UNL     1       0.917  -4.700   1.173  0.00  0.00    -0.188 NA
ATOM     15  C   UNL     1       1.245  -5.955   1.245  0.00  0.00    +0.142 C 
BRANCH  15  16
ATOM     16  C   UNL     1       2.662  -6.343   1.313  0.00  0.00    +0.044 A 
ATOM     17  C   UNL     1       3.047  -7.750   1.388  0.00  0.00    -0.006 A 
ATOM     18  C   UNL     1       2.089  -8.771   1.398  0.00  0.00    +0.009 A 
ATOM     19  C   UNL     1       2.491 -10.072   1.469  0.00  0.00    +0.001 A 
ATOM     20  C   UNL     1       3.844 -10.400   1.531  0.00  0.00    +0.001 A 
ATOM     21  C   UNL     1       4.801  -9.433   1.523  0.00  0.00    +0.008 A 
ATOM     22  C   UNL     1       4.423  -8.081   1.451  0.00  0.00    -0.017 A 
ATOM     23  C   UNL     1       5.384  -7.054   1.440  0.00  0.00    +0.012 A 
ATOM     24  C   UNL     1       5.007  -5.750   1.369  0.00  0.00    +0.047 A 
ATOM     25  C   UNL     1       3.666  -5.376   1.301  0.00  0.00    +0.129 A 
BRANCH  25  26
ATOM     26  O   UNL     1       3.335  -4.061   1.226  0.00  0.00    -0.494 OA
ATOM     27  C   UNL     1       4.412  -3.121   1.217  0.00  0.00    +0.277 C 
ENDBRANCH  25  26
ENDBRANCH  15  16
ENDBRANCH   5  14
BRANCH   4  28
ATOM     28  S   UNL     1      -1.154  -6.448   2.763  0.00  0.00    -0.138 S 
ATOM     29  H   UNL     1      -2.305  -7.114   2.968  0.00  0.00    +0.105 HD
ENDBRANCH   4  28
TORSDOF 5
