REMARK  Name = ZINC16022001
REMARK  8 active torsions:
REMARK  status: ('A' for Active; 'I' for Inactive)
REMARK    1  A    between atoms: C_1  and  C_2
REMARK    2  A    between atoms: C_2  and  C_3
REMARK    3  A    between atoms: C_3  and  C_5
REMARK    4  A    between atoms: C_3  and  N_6
REMARK    5  A    between atoms: C_20  and  C_25
REMARK    6  A    between atoms: C_27  and  C_29
REMARK    7  A    between atoms: C_29  and  C_30
REMARK    8  A    between atoms: C_29  and  C_31
REMARK                            x       y       z     vdW  Elec       q    Type
REMARK                         _______ _______ _______ _____ _____    ______ ____
ROOT
ATOM      1  N   UNL     1      -0.055  -0.114  -2.441  0.00  0.00    -0.239 N 
ATOM      2  C   UNL     1      -1.315  -0.515  -2.643  0.00  0.00    +0.227 C 
ATOM      3  O   UNL     1      -1.953  -1.225  -1.895  0.00  0.00    -0.275 OA
ATOM      4  C   UNL     1      -1.820   0.054  -3.950  0.00  0.00    +0.107 C 
ATOM      5  C   UNL     1      -0.607   0.872  -4.476  0.00  0.00    +0.122 C 
ATOM      6  C   UNL     1       0.440   0.671  -3.404  0.00  0.00    +0.228 C 
ATOM      7  O   UNL     1       1.555   1.145  -3.418  0.00  0.00    -0.275 OA
ATOM      8  C   UNL     1      -0.196   0.161  -5.771  0.00  0.00    +0.136 C 
ATOM      9  C   UNL     1       0.285   1.137  -6.807  0.00  0.00    +0.004 A 
ATOM     10  C   UNL     1      -0.294   2.221  -7.429  0.00  0.00    +0.008 A 
ATOM     11  C   UNL     1       0.421   2.943  -8.368  0.00  0.00    +0.001 A 
ATOM     12  C   UNL     1       1.717   2.574  -8.679  0.00  0.00    +0.005 A 
ATOM     13  C   UNL     1       2.301   1.490  -8.058  0.00  0.00    -0.029 A 
ATOM     14  C   UNL     1       1.588   0.757  -7.112  0.00  0.00    +0.042 A 
ATOM     15  N   UNL     1       1.954  -0.360  -6.357  0.00  0.00    -0.283 N 
ATOM     16  C   UNL     1       0.963  -0.770  -5.543  0.00  0.00    +0.243 C 
ATOM     17  O   UNL     1       0.998  -1.708  -4.775  0.00  0.00    -0.273 OA
ATOM     18  C   UNL     1       3.714   1.096  -8.405  0.00  0.00    +0.045 C 
ATOM     19  N   UNL     1      -1.392  -0.571  -6.229  0.00  0.00    -0.295 NA
ATOM     20  C   UNL     1      -2.012  -1.096  -4.962  0.00  0.00    +0.070 C 
ATOM     21  H   UNL     1       2.822  -0.790  -6.413  0.00  0.00    +0.155 HD
ATOM     22  H   UNL     1      -2.026   0.043  -6.717  0.00  0.00    +0.124 HD
ENDROOT
BRANCH  20  23
ATOM     23  C   UNL     1      -3.501  -1.376  -5.174  0.00  0.00    +0.001 C 
ATOM     24  C   UNL     1      -3.667  -2.517  -6.179  0.00  0.00    +0.009 C 
ATOM     25  C   UNL     1      -4.140  -1.772  -3.841  0.00  0.00    +0.009 C 
ENDBRANCH  20  23
BRANCH   1  26
ATOM     26  C   UNL     1       0.718  -0.497  -1.257  0.00  0.00    +0.081 C 
ATOM     27  C   UNL     1       0.849  -2.021  -1.205  0.00  0.00    +0.028 C 
BRANCH  26  29
ATOM     28  C   UNL     1      -0.019   1.526   0.010  0.00  0.00    +0.006 C 
ATOM     29  C   UNL     1       0.002  -0.004   0.002  0.00  0.00    +0.019 C 
ENDBRANCH  26  29
ENDBRANCH   1  26
TORSDOF 3
