REMARK  Name = ZINC35524036
REMARK  10 active torsions:
REMARK  status: ('A' for Active; 'I' for Inactive)
REMARK    1  A    between atoms: C_1  and  C_2
REMARK    2  A    between atoms: C_2  and  O_3
REMARK    3  A    between atoms: O_3  and  C_4
REMARK    4  A    between atoms: C_4  and  C_6
REMARK    5  A    between atoms: C_7  and  C_23
REMARK    6  A    between atoms: N_8  and  C_22
REMARK    7  A    between atoms: C_12  and  C_14
REMARK    8  A    between atoms: C_16  and  C_21
REMARK    9  A    between atoms: C_19  and  C_20
REMARK   10  A    between atoms: C_23  and  N_24
REMARK                            x       y       z     vdW  Elec       q    Type
REMARK                         _______ _______ _______ _____ _____    ______ ____
ROOT
ATOM      1  C   UNL     1      -2.837  -2.502   0.129  0.00  0.00    +0.080 C 
ATOM      2  C   UNL     1      -3.126  -3.816   0.020  0.00  0.00    +0.041 C 
ATOM      3  N   UNL     1      -4.352  -4.235  -0.410  0.00  0.00    -0.260 N 
ATOM      4  C   UNL     1      -5.344  -3.403  -0.751  0.00  0.00    +0.307 C 
ATOM      5  O   UNL     1      -6.402  -3.870  -1.123  0.00  0.00    -0.252 OA
ATOM      6  N   UNL     1      -5.207  -2.063  -0.696  0.00  0.00    -0.288 N 
ATOM      7  C   UNL     1      -3.921  -1.509  -0.237  0.00  0.00    +0.144 C 
ATOM      8  C   UNL     1      -4.596  -5.677  -0.504  0.00  0.00    +0.139 C 
ATOM      9  H   UNL     1      -5.938  -1.478  -0.948  0.00  0.00    +0.151 HD
ENDROOT
BRANCH   7  10
ATOM     10  C   UNL     1      -3.388  -0.620  -1.331  0.00  0.00    -0.019 A 
ATOM     11  C   UNL     1      -2.312  -1.034  -2.095  0.00  0.00    +0.009 A 
ATOM     12  C   UNL     1      -1.823  -0.219  -3.098  0.00  0.00    -0.050 A 
ATOM     13  C   UNL     1      -2.409   1.009  -3.339  0.00  0.00    +0.003 A 
ATOM     14  C   UNL     1      -3.486   1.423  -2.576  0.00  0.00    +0.004 A 
ATOM     15  C   UNL     1      -3.978   0.606  -1.575  0.00  0.00    -0.045 A 
ATOM     16  C   UNL     1      -5.154   1.054  -0.748  0.00  0.00    +0.044 C 
ATOM     17  C   UNL     1      -0.649  -0.670  -3.930  0.00  0.00    +0.044 C 
ENDBRANCH   7  10
BRANCH   1  18
ATOM     18  C   UNL     1      -1.567  -2.066   0.575  0.00  0.00    +0.339 C 
ATOM     19  O   UNL     1      -0.746  -2.878   0.958  0.00  0.00    -0.245 OA
BRANCH  18  20
ATOM     20  O   UNL     1      -1.267  -0.751   0.575  0.00  0.00    -0.462 OA
BRANCH  20  22
ATOM     21  C   UNL     1       0.248   1.120   0.790  0.00  0.00    +0.048 C 
ATOM     22  C   UNL     1       0.060  -0.388   0.963  0.00  0.00    +0.229 C 
ENDBRANCH  20  22
ENDBRANCH  18  20
ENDBRANCH   1  18
BRANCH   2  23
ATOM     23  C   UNL     1      -2.077  -4.838   0.379  0.00  0.00    +0.136 C 
BRANCH  23  24
ATOM     24  N   UNL     1      -2.048  -5.018   1.837  0.00  0.00    -0.300 NA
ATOM     25  C   UNL     1      -3.248  -5.728   2.304  0.00  0.00    +0.066 C 
ATOM     26  C   UNL     1      -3.208  -5.842   3.829  0.00  0.00    -0.067 C 
ATOM     27  N   UNL     1      -1.998  -6.571   4.234  0.00  0.00    +0.381 N 
ATOM     28  C   UNL     1      -0.808  -5.837   3.782  0.00  0.00    -0.067 C 
ATOM     29  C   UNL     1      -0.829  -5.723   2.256  0.00  0.00    +0.066 C 
ATOM     30  H   UNL     1      -1.978  -6.657   5.239  0.00  0.00    -0.086 HD
ATOM     31  H   UNL     1      -2.004  -7.490   3.818  0.00  0.00    -0.086 HD
ENDBRANCH  23  24
ENDBRANCH   2  23
TORSDOF 6
