REMARK  Name = ZINC16250059
REMARK  8 active torsions:
REMARK  status: ('A' for Active; 'I' for Inactive)
REMARK    1  A    between atoms: C_1  and  C_2
REMARK    2  A    between atoms: C_3  and  C_9
REMARK    3  A    between atoms: C_12  and  C_14
REMARK    4  A    between atoms: N_15  and  C_16
REMARK    5  A    between atoms: N_20  and  N_21
REMARK    6  A    between atoms: C_22  and  C_23
REMARK    7  A    between atoms: C_26  and  C_28
REMARK    8  A    between atoms: C_33  and  C_34
REMARK                            x       y       z     vdW  Elec       q    Type
REMARK                         _______ _______ _______ _____ _____    ______ ____
ROOT
ATOM      1  C   UNL     1      -2.703   2.727  -2.950  0.00  0.00    +0.273 A 
ATOM      2  N   UNL     1      -2.060   1.926  -2.123  0.00  0.00    -0.105 NA
ATOM      3  N   UNL     1      -2.709   1.822  -1.019  0.00  0.00    -0.110 NA
ATOM      4  C   UNL     1      -3.805   2.546  -1.066  0.00  0.00    +0.237 A 
ATOM      5  N   UNL     1      -3.840   3.153  -2.293  0.00  0.00    -0.164 N 
ATOM      6  N   UNL     1      -4.748   2.675  -0.059  0.00  0.00    -0.326 N 
ATOM      7  H   UNL     1      -4.628   2.203   0.780  0.00  0.00    +0.145 HD
ATOM      8  H   UNL     1      -5.527   3.236  -0.194  0.00  0.00    +0.145 HD
ENDROOT
BRANCH   1  10
ATOM      9  C   UNL     1      -1.204   3.735  -4.383  0.00  0.00    +0.161 C 
ATOM     10  N   UNL     1      -2.319   3.070  -4.199  0.00  0.00    -0.214 NA
BRANCH   9  14
ATOM     11  C   UNL     1       0.133   4.623  -1.198  0.00  0.00    +0.136 A 
ATOM     12  C   UNL     1       1.010   5.295  -2.001  0.00  0.00    +0.050 A 
ATOM     13  C   UNL     1       0.626   5.052  -3.323  0.00  0.00    +0.051 A 
ATOM     14  C   UNL     1      -0.484   4.231  -3.271  0.00  0.00    +0.147 A 
ATOM     15  O   UNL     1      -0.759   3.981  -1.974  0.00  0.00    -0.454 OA
BRANCH  11  18
ATOM     16  C   UNL     1      -2.286   5.179   0.290  0.00  0.00    +0.046 C 
ATOM     17  C   UNL     1      -0.998   4.867   1.007  0.00  0.00    -0.022 A 
ATOM     18  C   UNL     1       0.163   4.600   0.278  0.00  0.00    +0.022 A 
ATOM     19  C   UNL     1       1.353   4.312   0.951  0.00  0.00    +0.012 A 
ATOM     20  C   UNL     1       1.374   4.292   2.330  0.00  0.00    +0.002 A 
ATOM     21  C   UNL     1       0.221   4.556   3.047  0.00  0.00    +0.020 A 
ATOM     22  C   UNL     1      -0.961   4.849   2.387  0.00  0.00    +0.045 A 
ATOM     23 CL   UNL     1      -2.401   5.186   3.296  0.00  0.00    -0.083 Cl
ENDBRANCH  11  18
ENDBRANCH   9  14
ENDBRANCH   1  10
BRANCH   5  24
ATOM     24  N   UNL     1      -4.824   4.022  -2.781  0.00  0.00    -0.166 NA
ATOM     25  C   UNL     1      -5.852   3.547  -3.424  0.00  0.00    +0.179 C 
BRANCH  25  26
ATOM     26  C   UNL     1      -5.978   2.104  -3.637  0.00  0.00    +0.148 A 
ATOM     27  C   UNL     1      -7.006   1.472  -4.302  0.00  0.00    +0.051 A 
ATOM     28  C   UNL     1      -6.724   0.100  -4.270  0.00  0.00    +0.050 A 
ATOM     29  C   UNL     1      -5.549  -0.052  -3.595  0.00  0.00    +0.136 A 
ATOM     30  O   UNL     1      -5.106   1.163  -3.223  0.00  0.00    -0.454 OA
BRANCH  29  31
ATOM     31  C   UNL     1      -4.874  -1.336  -3.321  0.00  0.00    +0.022 A 
ATOM     32  C   UNL     1      -5.589  -2.403  -2.772  0.00  0.00    +0.012 A 
ATOM     33  C   UNL     1      -4.952  -3.600  -2.519  0.00  0.00    +0.002 A 
ATOM     34  C   UNL     1      -3.607  -3.746  -2.809  0.00  0.00    +0.020 A 
ATOM     35  C   UNL     1      -2.891  -2.694  -3.353  0.00  0.00    +0.045 A 
ATOM     36  C   UNL     1      -3.518  -1.492  -3.617  0.00  0.00    -0.022 A 
ATOM     37  C   UNL     1      -2.739  -0.349  -4.215  0.00  0.00    +0.046 C 
ATOM     38 CL   UNL     1      -1.204  -2.888  -3.713  0.00  0.00    -0.083 Cl
ENDBRANCH  29  31
ENDBRANCH  25  26
ENDBRANCH   5  24
TORSDOF 6
