REMARK  Name = ZINC27989669
REMARK  6 active torsions:
REMARK  status: ('A' for Active; 'I' for Inactive)
REMARK    1  A    between atoms: C_1  and  C_2
REMARK    2  A    between atoms: C_3  and  C_10
REMARK    3  A    between atoms: C_4  and  C_7
REMARK    4  A    between atoms: C_7  and  C_8
REMARK    5  A    between atoms: C_7  and  C_9
REMARK    6  A    between atoms: N_19  and  C_22
REMARK                            x       y       z     vdW  Elec       q    Type
REMARK                         _______ _______ _______ _____ _____    ______ ____
ROOT
ATOM      1  C   UNL     1      -2.015  -4.237   0.536  0.00  0.00    +0.255 C 
ATOM      2  O   UNL     1      -2.815  -3.346   0.751  0.00  0.00    -0.270 OA
ATOM      3  N   UNL     1      -0.746  -3.936   0.197  0.00  0.00    -0.261 N 
ATOM      4  C   UNL     1      -0.351  -2.608   0.093  0.00  0.00    +0.165 A 
ATOM      5  N   UNL     1       0.831  -2.117  -0.222  0.00  0.00    -0.229 NA
ATOM      6  C   UNL     1       1.060  -0.810  -0.283  0.00  0.00    +0.056 A 
ATOM      7  C   UNL     1       0.002  -0.004   0.002  0.00  0.00    +0.028 A 
ATOM      8  S   UNL     1      -1.290  -1.166   0.345  0.00  0.00    -0.055 S 
ATOM      9  C   UNL     1      -0.018   1.486   0.010  0.00  0.00    +0.128 C 
ATOM     10  N   UNL     1       1.379   1.964  -0.001  0.00  0.00    -0.300 NA
ATOM     11  C   UNL     1       2.154   1.276  -1.042  0.00  0.00    +0.090 C 
ATOM     12  C   UNL     1       2.401  -0.183  -0.646  0.00  0.00    +0.071 C 
ATOM     13  C   UNL     1       1.436   3.421  -0.178  0.00  0.00    +0.105 C 
ATOM     14  H   UNL     1      -0.022  -4.741   0.003  0.00  0.00    +0.157 HD
ENDROOT
BRANCH   1  17
ATOM     15  C   UNL     1      -3.263  -6.168  -1.836  0.00  0.00    +0.070 C 
ATOM     16  C   UNL     1      -2.991  -6.521  -0.396  0.00  0.00    +0.093 A 
ATOM     17  C   UNL     1      -2.434  -5.645   0.646  0.00  0.00    +0.102 A 
ATOM     18  C   UNL     1      -2.395  -6.467   1.747  0.00  0.00    +0.152 A 
ATOM     19  O   UNL     1      -2.882  -7.646   1.353  0.00  0.00    -0.358 OA
ATOM     20  N   UNL     1      -3.198  -7.663   0.189  0.00  0.00    -0.083 NA
BRANCH  18  21
ATOM     21  C   UNL     1      -1.903  -6.108   3.125  0.00  0.00    +0.052 C 
ATOM     22  C   UNL     1      -3.039  -6.286   4.135  0.00  0.00    +0.015 C 
ATOM     23  C   UNL     1      -0.735  -7.021   3.504  0.00  0.00    +0.015 C 
ENDBRANCH  18  21
ENDBRANCH   1  17
TORSDOF 2
