REMARK  Name = ZINC02294961
REMARK  8 active torsions:
REMARK  status: ('A' for Active; 'I' for Inactive)
REMARK    1  A    between atoms: C_1  and  C_2
REMARK    2  A    between atoms: C_4  and  C_31
REMARK    3  A    between atoms: C_5  and  N_9
REMARK    4  A    between atoms: C_6  and  C_8
REMARK    5  A    between atoms: C_10  and  C_11
REMARK    6  A    between atoms: C_17  and  C_25
REMARK    7  A    between atoms: C_19  and  C_23
REMARK    8  A    between atoms: C_20  and  N_22
REMARK                            x       y       z     vdW  Elec       q    Type
REMARK                         _______ _______ _______ _____ _____    ______ ____
ROOT
ATOM      1  C   UNL     1      -1.044  -6.279  -0.021  0.00  0.00    -0.006 A 
ATOM      2  C   UNL     1       0.175  -6.966  -0.043  0.00  0.00    +0.013 A 
ATOM      3  C   UNL     1       0.185  -8.342  -0.046  0.00  0.00    +0.047 A 
ATOM      4  C   UNL     1      -1.011  -9.054  -0.038  0.00  0.00    +0.134 A 
ATOM      5  C   UNL     1      -2.223  -8.376  -0.021  0.00  0.00    +0.008 A 
ATOM      6  C   UNL     1      -2.244  -6.998  -0.014  0.00  0.00    +0.017 A 
ATOM      7  C   UNL     1      -3.524  -9.135  -0.011  0.00  0.00    +0.098 C 
ATOM      8  C   UNL     1      -3.298 -10.561  -0.426  0.00  0.00    +0.098 C 
ATOM      9  C   UNL     1      -2.059 -11.107  -0.420  0.00  0.00    +0.199 C 
ATOM     10  O   UNL     1      -0.975 -10.409  -0.045  0.00  0.00    -0.441 OA
ENDROOT
BRANCH   7  11
ATOM     11  C   UNL     1      -4.108  -9.106   1.378  0.00  0.00    -0.035 A 
ATOM     12  C   UNL     1      -3.401  -9.647   2.436  0.00  0.00    +0.004 A 
ATOM     13  C   UNL     1      -3.935  -9.617   3.711  0.00  0.00    +0.000 A 
ATOM     14  C   UNL     1      -5.179  -9.054   3.926  0.00  0.00    +0.000 A 
ATOM     15  C   UNL     1      -5.888  -8.518   2.868  0.00  0.00    +0.000 A 
ATOM     16  C   UNL     1      -5.352  -8.544   1.593  0.00  0.00    +0.004 A 
ENDBRANCH   7  11
BRANCH   9  17
ATOM     17  N   UNL     1      -1.906 -12.415  -0.809  0.00  0.00    -0.328 N 
ATOM     18  H   UNL     1      -1.026 -12.821  -0.810  0.00  0.00    +0.145 HD
ATOM     19  H   UNL     1      -2.680 -12.933  -1.082  0.00  0.00    +0.145 HD
ENDBRANCH   9  17
BRANCH   1  21
ATOM     20  N   UNL     1       0.056  -4.142  -0.021  0.00  0.00    -0.254 NA
ATOM     21  C   UNL     1      -1.064  -4.808  -0.013  0.00  0.00    +0.119 C 
BRANCH  20  26
ATOM     22  C   UNL     1      -0.018   1.503   0.010  0.00  0.00    +0.044 C 
ATOM     23  C   UNL     1       0.002  -0.004   0.002  0.00  0.00    -0.050 A 
ATOM     24  C   UNL     1      -0.006  -0.686  -1.202  0.00  0.00    +0.008 A 
ATOM     25  C   UNL     1       0.018  -2.065  -1.217  0.00  0.00    -0.025 A 
ATOM     26  C   UNL     1       0.038  -2.773  -0.013  0.00  0.00    +0.070 A 
ATOM     27  C   UNL     1       0.041  -2.078   1.198  0.00  0.00    -0.025 A 
ATOM     28  C   UNL     1       0.023  -0.699   1.198  0.00  0.00    +0.008 A 
ATOM     29  C   UNL     1       0.062  -2.833   2.502  0.00  0.00    +0.046 C 
ATOM     30  C   UNL     1       0.015  -2.806  -2.529  0.00  0.00    +0.046 C 
ENDBRANCH  20  26
ENDBRANCH   1  21
BRANCH   8  31
ATOM     31  C   UNL     1      -4.414 -11.358  -0.836  0.00  0.00    +0.101 C 
ATOM     32  N   UNL     1      -5.300 -11.991  -1.162  0.00  0.00    -0.191 NA
ENDBRANCH   8  31
TORSDOF 5
