REMARK  Name = ZINC08962487
REMARK  7 active torsions:
REMARK  status: ('A' for Active; 'I' for Inactive)
REMARK    1  A    between atoms: C_1  and  C_2
REMARK    2  A    between atoms: C_4  and  S_11
REMARK    3  A    between atoms: C_6  and  C_10
REMARK    4  A    between atoms: C_7  and  O_8
REMARK    5  A    between atoms: O_8  and  C_9
REMARK    6  A    between atoms: S_11  and  N_14
REMARK    7  A    between atoms: N_14  and  C_15
REMARK                            x       y       z     vdW  Elec       q    Type
REMARK                         _______ _______ _______ _____ _____    ______ ____
ROOT
ATOM      1  N   UNL     1       1.157   3.486   0.009  0.00  0.00    -0.216 N 
ATOM      2  H   UNL     1       1.739   3.982  -0.588  0.00  0.00    +0.174 HD
ENDROOT
BRANCH   1   3
ATOM      3  C   UNL     1       1.177   2.087   0.002  0.00  0.00    +0.048 A 
ATOM      4  C   UNL     1      -0.017   1.376   0.010  0.00  0.00    +0.026 A 
ATOM      5  C   UNL     1       0.002  -0.004   0.002  0.00  0.00    +0.025 A 
ATOM      6  C   UNL     1       1.214  -0.682  -0.013  0.00  0.00    +0.037 A 
ATOM      7  C   UNL     1       2.407   0.029  -0.021  0.00  0.00    -0.024 A 
ATOM      8  C   UNL     1       2.389   1.409  -0.013  0.00  0.00    +0.030 A 
ATOM      9  C   UNL     1       3.720  -0.710  -0.038  0.00  0.00    +0.046 C 
ATOM     10  C   UNL     1       3.587  -2.007   0.761  0.00  0.00    +0.101 C 
ATOM     11  C   UNL     1       2.350  -2.749   0.332  0.00  0.00    +0.218 C 
ATOM     12  O   UNL     1       2.357  -3.961   0.305  0.00  0.00    -0.275 OA
ATOM     13  N   UNL     1       1.236  -2.082  -0.022  0.00  0.00    -0.285 N 
ATOM     14  H   UNL     1       0.443  -2.575  -0.285  0.00  0.00    +0.155 HD
ENDBRANCH   1   3
BRANCH   1  15
ATOM     15  S   UNL     1       0.142   4.295   1.037  0.00  0.00    +0.072 S 
ATOM     16  O   UNL     1       0.373   5.681   0.828  0.00  0.00    -0.150 OA
ATOM     17  O   UNL     1      -1.142   3.705   0.886  0.00  0.00    -0.150 OA
BRANCH  15  21
ATOM     18  C   UNL     1       3.041   5.356   5.253  0.00  0.00    +0.047 C 
ATOM     19  C   UNL     1       2.022   4.471   4.583  0.00  0.00    -0.007 A 
ATOM     20  C   UNL     1       1.606   4.749   3.295  0.00  0.00    +0.035 A 
ATOM     21  C   UNL     1       0.670   3.938   2.680  0.00  0.00    +0.109 A 
ATOM     22  C   UNL     1       0.144   2.851   3.353  0.00  0.00    +0.035 A 
ATOM     23  C   UNL     1       0.561   2.566   4.639  0.00  0.00    -0.007 A 
ATOM     24  C   UNL     1       1.500   3.378   5.258  0.00  0.00    +0.126 A 
ATOM     25  C   UNL     1      -0.008   1.377   5.370  0.00  0.00    +0.047 C 
BRANCH  24  26
ATOM     26  O   UNL     1       1.908   3.102   6.525  0.00  0.00    -0.495 OA
ATOM     27  C   UNL     1       1.167   3.702   7.590  0.00  0.00    +0.277 C 
ENDBRANCH  24  26
ENDBRANCH  15  21
ENDBRANCH   1  15
TORSDOF 4
