REMARK  Name = ZINC05018080
REMARK  10 active torsions:
REMARK  status: ('A' for Active; 'I' for Inactive)
REMARK    1  A    between atoms: C_1  and  C_2
REMARK    2  A    between atoms: C_5  and  C_30
REMARK    3  A    between atoms: C_9  and  C_10
REMARK    4  A    between atoms: C_9  and  N_57
REMARK    5  A    between atoms: C_11  and  C_26
REMARK    6  A    between atoms: C_12  and  C_18
REMARK    7  A    between atoms: C_21  and  O_24
REMARK    8  A    between atoms: O_24  and  C_25
REMARK    9  A    between atoms: C_26  and  O_28
REMARK   10  A    between atoms: O_28  and  C_29
REMARK                            x       y       z     vdW  Elec       q    Type
REMARK                         _______ _______ _______ _____ _____    ______ ____
ROOT
ATOM      1  C   UNL     1      -2.217   0.696   3.716  0.00  0.00    +0.008 C 
ATOM      2  C   UNL     1      -1.412   1.366   4.568  0.00  0.00    +0.076 C 
ATOM      3  C   UNL     1      -0.698   0.567   5.639  0.00  0.00    +0.143 C 
ATOM      4  N   UNL     1      -0.933  -0.887   5.655  0.00  0.00    -0.288 N 
ATOM      5  C   UNL     1      -1.762  -1.413   4.731  0.00  0.00    +0.304 C 
ATOM      6  O   UNL     1      -1.962  -2.612   4.736  0.00  0.00    -0.252 OA
ATOM      7  N   UNL     1      -2.372  -0.657   3.809  0.00  0.00    -0.274 N 
ATOM      8  H   UNL     1      -0.501  -1.453   6.314  0.00  0.00    +0.151 HD
ATOM      9  H   UNL     1      -2.957  -1.096   3.172  0.00  0.00    +0.156 HD
ENDROOT
BRANCH   3  10
ATOM     10  C   UNL     1       0.782   0.796   5.473  0.00  0.00    -0.022 A 
ATOM     11  C   UNL     1       1.512  -0.004   4.613  0.00  0.00    +0.009 A 
ATOM     12  C   UNL     1       2.868   0.208   4.455  0.00  0.00    +0.046 A 
ATOM     13  C   UNL     1       3.499   1.217   5.167  0.00  0.00    +0.120 A 
ATOM     14  C   UNL     1       2.766   2.015   6.034  0.00  0.00    +0.046 A 
ATOM     15  C   UNL     1       1.409   1.802   6.184  0.00  0.00    +0.009 A 
BRANCH  13  16
ATOM     16  O   UNL     1       4.834   1.425   5.017  0.00  0.00    -0.495 OA
ATOM     17  C   UNL     1       5.526   0.566   4.108  0.00  0.00    +0.277 C 
ENDBRANCH  13  16
ENDBRANCH   3  10
BRANCH   2  18
ATOM     18  C   UNL     1      -1.246   2.767   4.468  0.00  0.00    +0.338 C 
ATOM     19  O   UNL     1      -0.263   3.226   3.916  0.00  0.00    -0.245 OA
BRANCH  18  20
ATOM     20  O   UNL     1      -2.177   3.596   4.986  0.00  0.00    -0.465 OA
ATOM     21  C   UNL     1      -1.945   4.999   4.849  0.00  0.00    +0.280 C 
ENDBRANCH  18  20
ENDBRANCH   2  18
BRANCH   1  22
ATOM     22  C   UNL     1      -2.951   1.453   2.639  0.00  0.00    -0.026 C 
BRANCH  22  30
ATOM     23  C   UNL     1       0.896   1.196  -0.416  0.00  0.00    +0.005 C 
ATOM     24  C   UNL     1      -0.563   0.791  -0.197  0.00  0.00    -0.031 C 
ATOM     25  C   UNL     1      -1.419   1.319  -1.351  0.00  0.00    +0.003 C 
ATOM     26  C   UNL     1      -2.886   0.961  -1.094  0.00  0.00    -0.031 C 
ATOM     27  C   UNL     1      -3.322   1.552   0.249  0.00  0.00    -0.075 C 
ATOM     28  C   UNL     1      -1.066   1.387   1.120  0.00  0.00    -0.075 C 
ATOM     29  C   UNL     1      -3.756   1.536  -2.212  0.00  0.00    +0.005 C 
ATOM     30  N   UNL     1      -2.475   0.986   1.320  0.00  0.00    +0.384 N 
ATOM     31  H   UNL     1      -2.538  -0.039   1.288  0.00  0.00    -0.081 HD
ENDBRANCH  22  30
ENDBRANCH   1  22
TORSDOF 6
