REMARK  Name = ZINC38984855
REMARK  5 active torsions:
REMARK  status: ('A' for Active; 'I' for Inactive)
REMARK    1  A    between atoms: C_1  and  C_2
REMARK    2  A    between atoms: C_2  and  C_3
REMARK    3  A    between atoms: C_3  and  O_4
REMARK    4  A    between atoms: O_4  and  C_5
REMARK    5  A    between atoms: C_8  and  C_11
REMARK                            x       y       z     vdW  Elec       q    Type
REMARK                         _______ _______ _______ _____ _____    ______ ____
ROOT
ATOM      1  C   UNL     1       3.346  -4.486   5.542  0.00  0.00    +0.074 C 
ATOM      2  C   UNL     1       2.352  -5.397   6.276  0.00  0.00    +0.152 C 
ATOM      3  C   UNL     1       3.122  -6.374   7.129  0.00  0.00    +0.116 C 
ATOM      4  N   UNL     1       2.947  -6.450   8.416  0.00  0.00    -0.205 NA
ATOM      5  C   UNL     1       2.087  -5.659   9.068  0.00  0.00    +0.206 C 
ATOM      6  N   UNL     1       1.364  -4.743   8.441  0.00  0.00    -0.147 NA
ATOM      7  C   UNL     1       1.445  -4.565   7.136  0.00  0.00    +0.250 C 
ATOM      8  O   UNL     1       0.763  -3.703   6.618  0.00  0.00    -0.273 OA
ATOM      9  N   UNL     1       1.951  -5.801  10.422  0.00  0.00    -0.329 N 
ATOM     10  N   UNL     1       4.034  -7.190   6.504  0.00  0.00    -0.301 N 
ATOM     11  C   UNL     1       4.772  -6.588   5.496  0.00  0.00    +0.048 C 
ATOM     12  C   UNL     1       4.482  -5.337   5.023  0.00  0.00    +0.030 C 
ATOM     13  C   UNL     1       5.399  -4.993   3.999  0.00  0.00    +0.192 C 
ATOM     14  O   UNL     1       5.417  -3.954   3.369  0.00  0.00    -0.287 OA
ATOM     15  C   UNL     1       6.332  -6.129   3.838  0.00  0.00    +0.031 A 
ATOM     16  C   UNL     1       5.934  -7.119   4.774  0.00  0.00    +0.007 A 
ATOM     17  C   UNL     1       6.616  -8.320   4.876  0.00  0.00    +0.010 A 
ATOM     18  C   UNL     1       7.704  -8.506   4.018  0.00  0.00    +0.001 A 
ATOM     19  C   UNL     1       8.087  -7.546   3.111  0.00  0.00    +0.001 A 
ATOM     20  C   UNL     1       7.409  -6.326   2.996  0.00  0.00    +0.012 A 
ATOM     21  H   UNL     1       2.473  -6.467  10.895  0.00  0.00    +0.145 HD
ATOM     22  H   UNL     1       1.331  -5.235  10.909  0.00  0.00    +0.145 HD
ATOM     23  H   UNL     1       4.153  -8.121   6.750  0.00  0.00    +0.153 HD
ENDROOT
BRANCH   1  27
ATOM     24  C   UNL     1       1.385  -2.554   2.273  0.00  0.00    +0.121 A 
ATOM     25  C   UNL     1       1.962  -1.797   3.283  0.00  0.00    +0.046 A 
ATOM     26  C   UNL     1       2.595  -2.424   4.339  0.00  0.00    +0.008 A 
ATOM     27  C   UNL     1       2.654  -3.804   4.389  0.00  0.00    -0.038 A 
ATOM     28  C   UNL     1       2.081  -4.561   3.384  0.00  0.00    +0.008 A 
ATOM     29  C   UNL     1       1.442  -3.939   2.329  0.00  0.00    +0.046 A 
BRANCH  24  30
ATOM     30  O   UNL     1       0.761  -1.940   1.234  0.00  0.00    -0.492 OA
BRANCH  30  31
ATOM     31  C   UNL     1       0.742  -0.511   1.242  0.00  0.00    +0.229 C 
BRANCH  31  33
ATOM     32  C   UNL     1      -0.019   1.526   0.010  0.00  0.00    +0.007 C 
ATOM     33  C   UNL     1       0.002  -0.004   0.002  0.00  0.00    +0.038 C 
ENDBRANCH  31  33
ENDBRANCH  30  31
ENDBRANCH  24  30
ENDBRANCH   1  27
TORSDOF 4
