REMARK  Name = ZINC14876378
REMARK  12 active torsions:
REMARK  status: ('A' for Active; 'I' for Inactive)
REMARK    1  A    between atoms: C_1  and  C_2
REMARK    2  A    between atoms: C_5  and  C_33
REMARK    3  A    between atoms: C_6  and  N_8
REMARK    4  A    between atoms: C_9  and  C_32
REMARK    5  A    between atoms: C_10  and  C_28
REMARK    6  A    between atoms: C_11  and  C_16
REMARK    7  A    between atoms: C_19  and  O_26
REMARK    8  A    between atoms: C_20  and  O_22
REMARK    9  A    between atoms: O_22  and  C_23
REMARK   10  A    between atoms: O_26  and  C_27
REMARK   11  A    between atoms: C_28  and  O_30
REMARK   12  A    between atoms: O_30  and  C_31
REMARK                            x       y       z     vdW  Elec       q    Type
REMARK                         _______ _______ _______ _____ _____    ______ ____
ROOT
ATOM      1  N   UNL     1       3.025  -0.737  -6.673  0.00  0.00    -0.255 N 
ATOM      2  C   UNL     1       1.830  -0.082  -6.581  0.00  0.00    +0.027 C 
ATOM      3  C   UNL     1       1.491   0.595  -5.462  0.00  0.00    +0.078 C 
ATOM      4  C   UNL     1       2.480   0.603  -4.315  0.00  0.00    +0.141 C 
ATOM      5  N   UNL     1       3.740  -0.134  -4.515  0.00  0.00    -0.315 N 
ATOM      6  C   UNL     1       3.935  -0.763  -5.690  0.00  0.00    +0.142 C 
ATOM      7  S   UNL     1       5.395  -1.623  -5.936  0.00  0.00    -0.018 S 
ATOM      8  C   UNL     1       0.875  -0.116  -7.746  0.00  0.00    +0.062 C 
ATOM      9  H   UNL     1       4.413  -0.165  -3.817  0.00  0.00    +0.149 HD
ENDROOT
BRANCH   1  15
ATOM     10  C   UNL     1       4.963  -0.733 -11.192  0.00  0.00    +0.044 C 
ATOM     11  C   UNL     1       4.253  -1.441 -10.067  0.00  0.00    -0.049 A 
ATOM     12  C   UNL     1       3.888  -2.768 -10.208  0.00  0.00    +0.004 A 
ATOM     13  C   UNL     1       3.237  -3.421  -9.178  0.00  0.00    +0.005 A 
ATOM     14  C   UNL     1       2.950  -2.751  -8.005  0.00  0.00    -0.029 A 
ATOM     15  C   UNL     1       3.315  -1.420  -7.860  0.00  0.00    +0.043 A 
ATOM     16  C   UNL     1       3.965  -0.764  -8.899  0.00  0.00    +0.027 A 
ATOM     17  C   UNL     1       2.240  -3.464  -6.883  0.00  0.00    +0.045 C 
ENDBRANCH   1  15
BRANCH   4  18
ATOM     18  C   UNL     1       1.792   0.027  -3.104  0.00  0.00    -0.019 A 
ATOM     19  C   UNL     1       1.668  -1.343  -2.968  0.00  0.00    +0.009 A 
ATOM     20  C   UNL     1       1.038  -1.877  -1.859  0.00  0.00    +0.050 A 
ATOM     21  C   UNL     1       0.529  -1.038  -0.881  0.00  0.00    +0.162 A 
ATOM     22  C   UNL     1       0.654   0.341  -1.018  0.00  0.00    +0.169 A 
ATOM     23  C   UNL     1       1.282   0.870  -2.135  0.00  0.00    +0.055 A 
BRANCH  21  24
ATOM     24  O   UNL     1      -0.091  -1.561   0.210  0.00  0.00    -0.491 OA
ATOM     25  C   UNL     1      -0.182  -2.985   0.284  0.00  0.00    +0.277 C 
ENDBRANCH  21  24
BRANCH  22  26
ATOM     26  O   UNL     1       0.157   1.169  -0.060  0.00  0.00    -0.431 OA
BRANCH  26  27
ATOM     27  C   UNL     1       0.321   2.573  -0.267  0.00  0.00    +0.541 C 
ATOM     28  F   UNL     1       1.684   2.876  -0.354  0.00  0.00    -0.166 F 
ATOM     29  F   UNL     1      -0.316   2.947  -1.455  0.00  0.00    -0.166 F 
ENDBRANCH  26  27
ENDBRANCH  22  26
ENDBRANCH   4  18
BRANCH   3  30
ATOM     30  C   UNL     1       0.254   1.274  -5.365  0.00  0.00    +0.339 C 
ATOM     31  O   UNL     1      -0.472   1.358  -6.338  0.00  0.00    -0.245 OA
BRANCH  30  32
ATOM     32  O   UNL     1      -0.122   1.828  -4.193  0.00  0.00    -0.465 OA
ATOM     33  C   UNL     1      -1.384   2.498  -4.168  0.00  0.00    +0.280 C 
ENDBRANCH  30  32
ENDBRANCH   3  30
TORSDOF 7
