REMARK  Name = ZINC13147406
REMARK  9 active torsions:
REMARK  status: ('A' for Active; 'I' for Inactive)
REMARK    1  A    between atoms: C_1  and  C_2
REMARK    2  A    between atoms: C_2  and  O_3
REMARK    3  A    between atoms: O_3  and  C_4
REMARK    4  A    between atoms: C_6  and  C_12
REMARK    5  A    between atoms: C_9  and  O_10
REMARK    6  A    between atoms: C_22  and  C_28
REMARK    7  A    between atoms: C_24  and  C_27
REMARK    8  A    between atoms: C_28  and  O_30
REMARK    9  A    between atoms: O_30  and  C_31
REMARK                            x       y       z     vdW  Elec       q    Type
REMARK                         _______ _______ _______ _____ _____    ______ ____
ROOT
ATOM      1  C   UNL     1      -3.947   5.299   3.154  0.00  0.00    +0.063 C 
ATOM      2  C   UNL     1      -4.629   5.785   4.437  0.00  0.00    +0.109 C 
ATOM      3  C   UNL     1      -5.936   5.049   4.600  0.00  0.00    +0.218 C 
ATOM      4  O   UNL     1      -6.886   5.606   5.107  0.00  0.00    -0.275 OA
ATOM      5  N   UNL     1      -6.046   3.775   4.182  0.00  0.00    -0.289 N 
ATOM      6  C   UNL     1      -4.959   3.103   3.682  0.00  0.00    +0.018 C 
ATOM      7  C   UNL     1      -3.921   3.788   3.156  0.00  0.00    +0.021 C 
ATOM      8  C   UNL     1      -2.811   3.126   2.607  0.00  0.00    +0.175 C 
ATOM      9  O   UNL     1      -1.894   3.777   2.146  0.00  0.00    -0.291 OA
ATOM     10  C   UNL     1      -2.740   1.623   2.581  0.00  0.00    +0.171 C 
ATOM     11  C   UNL     1      -4.162   1.057   2.524  0.00  0.00    +0.013 C 
ATOM     12  C   UNL     1      -4.952   1.596   3.719  0.00  0.00    +0.055 C 
ATOM     13  C   UNL     1      -4.110  -0.471   2.590  0.00  0.00    +0.009 C 
ATOM     14  H   UNL     1      -6.904   3.326   4.235  0.00  0.00    +0.155 HD
ENDROOT
BRANCH   1  17
ATOM     15  C   UNL     1      -0.848   7.127   2.001  0.00  0.00    +0.163 A 
ATOM     16  C   UNL     1      -2.142   6.634   2.050  0.00  0.00    +0.053 A 
ATOM     17  C   UNL     1      -2.537   5.828   3.101  0.00  0.00    -0.034 A 
ATOM     18  C   UNL     1      -1.639   5.501   4.100  0.00  0.00    +0.028 A 
ATOM     19  C   UNL     1      -0.344   5.984   4.055  0.00  0.00    +0.086 A 
ATOM     20  C   UNL     1       0.056   6.798   3.006  0.00  0.00    +0.177 A 
ATOM     21 CL   UNL     1       0.781   5.571   5.311  0.00  0.00    -0.080 Cl
BRANCH  20  22
ATOM     22  O   UNL     1       1.330   7.274   2.960  0.00  0.00    -0.502 OA
ATOM     23  H   UNL     1       1.948   6.699   2.489  0.00  0.00    +0.292 HD
ENDBRANCH  20  22
BRANCH  15  24
ATOM     24  O   UNL     1      -0.460   7.924   0.970  0.00  0.00    -0.489 OA
BRANCH  24  26
ATOM     25  C   UNL     1      -0.825   9.123  -1.096  0.00  0.00    +0.048 C 
ATOM     26  C   UNL     1      -1.441   8.220  -0.025  0.00  0.00    +0.226 C 
ENDBRANCH  24  26
ENDBRANCH  15  24
ENDBRANCH   1  17
BRANCH  10  27
ATOM     27  C   UNL     1      -1.970   1.175   1.365  0.00  0.00    +0.318 C 
ATOM     28  O   UNL     1      -2.502   0.475   0.537  0.00  0.00    -0.250 OA
BRANCH  27  29
ATOM     29  O   UNL     1      -0.692   1.554   1.203  0.00  0.00    -0.467 OA
ATOM     30  C   UNL     1      -0.013   1.086   0.008  0.00  0.00    +0.280 C 
ENDBRANCH  27  29
ENDBRANCH  10  27
TORSDOF 6
