REMARK  Name = ZINC12528693
REMARK  7 active torsions:
REMARK  status: ('A' for Active; 'I' for Inactive)
REMARK    1  A    between atoms: C_3  and  C_6
REMARK    2  A    between atoms: C_9  and  C_28
REMARK    3  A    between atoms: C_12  and  C_14
REMARK    4  A    between atoms: C_14  and  S_15
REMARK    5  A    between atoms: S_15  and  C_16
REMARK    6  A    between atoms: N_20  and  C_21
REMARK    7  A    between atoms: C_24  and  O_27
REMARK                            x       y       z     vdW  Elec       q    Type
REMARK                         _______ _______ _______ _____ _____    ______ ____
ROOT
ATOM      1  C   UNL     1       2.491   1.308  -0.009  0.00  0.00    +0.173 C 
ATOM      2  C   UNL     1       3.424   2.536  -0.017  0.00  0.00    +0.090 C 
ATOM      3  C   UNL     1       2.475   3.713  -0.001  0.00  0.00    +0.069 C 
ATOM      4  N   UNL     1       1.260   3.287   0.008  0.00  0.00    -0.181 NA
ATOM      5  N   UNL     1       1.143   1.899   0.001  0.00  0.00    -0.181 N 
ATOM      6  C   UNL     1      -0.014   1.209   0.009  0.00  0.00    +0.246 C 
ATOM      7  O   UNL     1       0.002  -0.004   0.002  0.00  0.00    -0.273 OA
ENDROOT
BRANCH   3   8
ATOM      8  C   UNL     1       2.880   5.132   0.003  0.00  0.00    -0.002 A 
ATOM      9  C   UNL     1       4.234   5.475  -0.002  0.00  0.00    +0.011 A 
ATOM     10  C   UNL     1       4.605   6.803  -0.003  0.00  0.00    +0.020 A 
ATOM     11  C   UNL     1       3.639   7.795   0.013  0.00  0.00    +0.041 A 
ATOM     12  C   UNL     1       2.295   7.462   0.023  0.00  0.00    +0.020 A 
ATOM     13  C   UNL     1       1.910   6.137   0.019  0.00  0.00    +0.011 A 
ATOM     14 CL   UNL     1       4.115   9.465   0.018  0.00  0.00    -0.084 Cl
ENDBRANCH   3   8
BRANCH   1  17
ATOM     15  C   UNL     1       3.311  -1.114  -2.663  0.00  0.00    +0.041 A 
ATOM     16  C   UNL     1       3.360  -0.689  -1.315  0.00  0.00    +0.046 A 
ATOM     17  C   UNL     1       2.698   0.480  -1.251  0.00  0.00    +0.128 A 
ATOM     18  O   UNL     1       2.248   0.781  -2.480  0.00  0.00    -0.466 OA
ATOM     19  C   UNL     1       2.622  -0.179  -3.341  0.00  0.00    +0.195 A 
ENDBRANCH   1  17
BRANCH   6  20
ATOM     20  C   UNL     1      -1.330   1.945   0.019  0.00  0.00    +0.175 C 
BRANCH  20  21
ATOM     21  S   UNL     1      -2.689   0.750   0.019  0.00  0.00    -0.075 S 
BRANCH  21  22
ATOM     22  C   UNL     1      -4.064   1.851   0.031  0.00  0.00    +0.214 A 
ATOM     23  N   UNL     1      -4.013   3.166   0.044  0.00  0.00    -0.101 NA
ATOM     24  N   UNL     1      -5.198   3.662   0.048  0.00  0.00    -0.022 NA
ATOM     25  N   UNL     1      -6.079   2.721   0.046  0.00  0.00    -0.038 NA
ATOM     26  N   UNL     1      -5.376   1.504   0.036  0.00  0.00    -0.187 N 
BRANCH  26  27
ATOM     27  C   UNL     1      -5.915   0.208   0.030  0.00  0.00    +0.070 A 
ATOM     28  C   UNL     1      -5.278  -0.805  -0.674  0.00  0.00    +0.031 A 
ATOM     29  C   UNL     1      -5.806  -2.081  -0.675  0.00  0.00    +0.047 A 
ATOM     30  C   UNL     1      -6.978  -2.348   0.019  0.00  0.00    +0.117 A 
ATOM     31  C   UNL     1      -7.617  -1.334   0.718  0.00  0.00    +0.047 A 
ATOM     32  C   UNL     1      -7.087  -0.059   0.724  0.00  0.00    +0.031 A 
BRANCH  30  33
ATOM     33  O   UNL     1      -7.500  -3.603   0.013  0.00  0.00    -0.507 OA
ATOM     34  H   UNL     1      -8.123  -3.766  -0.709  0.00  0.00    +0.292 HD
ENDBRANCH  30  33
ENDBRANCH  26  27
ENDBRANCH  21  22
ENDBRANCH  20  21
ENDBRANCH   6  20
TORSDOF 7
