REMARK  Name = ZINC59267186
REMARK  4 active torsions:
REMARK  status: ('A' for Active; 'I' for Inactive)
REMARK    1  A    between atoms: C_1  and  O_2
REMARK    2  A    between atoms: O_2  and  C_3
REMARK    3  A    between atoms: C_6  and  N_25
REMARK    4  A    between atoms: C_10  and  C_19
REMARK                            x       y       z     vdW  Elec       q    Type
REMARK                         _______ _______ _______ _____ _____    ______ ____
ROOT
ATOM      1  C   UNL     1      -1.201  -0.638   0.012  0.00  0.00    +0.141 A 
ATOM      2  C   UNL     1      -2.359   0.082   0.247  0.00  0.00    +0.050 A 
ATOM      3  C   UNL     1      -3.585  -0.559   0.253  0.00  0.00    +0.037 A 
ATOM      4  C   UNL     1      -3.655  -1.919   0.016  0.00  0.00    +0.132 A 
ATOM      5  C   UNL     1      -2.508  -2.646  -0.224  0.00  0.00    +0.014 A 
ATOM      6  C   UNL     1      -1.264  -2.010  -0.224  0.00  0.00    +0.076 A 
ATOM      7  N   UNL     1      -0.075  -2.727  -0.428  0.00  0.00    -0.334 N 
ATOM      8  C   UNL     1      -0.094  -4.182  -0.695  0.00  0.00    +0.106 C 
ATOM      9  C   UNL     1      -1.258  -4.731   0.110  0.00  0.00    +0.029 C 
ATOM     10  C   UNL     1      -2.533  -4.098  -0.504  0.00  0.00    +0.051 C 
ATOM     11  C   UNL     1      -3.627  -4.974  -0.014  0.00  0.00    -0.023 C 
ATOM     12  C   UNL     1      -3.132  -6.186   0.207  0.00  0.00    -0.030 C 
ATOM     13  C   UNL     1      -1.616  -6.209  -0.098  0.00  0.00    +0.033 C 
ATOM     14  H   UNL     1       0.775  -2.260  -0.393  0.00  0.00    +0.147 HD
ENDROOT
BRANCH   8  15
ATOM     15  C   UNL     1       1.199  -4.811  -0.242  0.00  0.00    -0.009 A 
ATOM     16  C   UNL     1       1.806  -5.796  -1.007  0.00  0.00    +0.008 A 
ATOM     17  C   UNL     1       2.994  -6.346  -0.552  0.00  0.00    +0.020 A 
ATOM     18  C   UNL     1       3.530  -5.899   0.641  0.00  0.00    +0.111 A 
ATOM     19  N   UNL     1       2.924  -4.961   1.343  0.00  0.00    -0.263 NA
ATOM     20  C   UNL     1       1.797  -4.410   0.937  0.00  0.00    +0.116 A 
ENDBRANCH   8  15
BRANCH   4  21
ATOM     21  N   UNL     1      -4.970  -2.599   0.020  0.00  0.00    +0.057 N 
ATOM     22  O   UNL     1      -5.310  -3.262  -0.932  0.00  0.00    -0.126 OA
ATOM     23  O   UNL     1      -5.704  -2.491   0.975  0.00  0.00    -0.126 OA
ENDBRANCH   4  21
BRANCH   1  25
ATOM     24  C   UNL     1      -0.005   1.403   0.255  0.00  0.00    +0.277 C 
ATOM     25  O   UNL     1       0.002  -0.004   0.006  0.00  0.00    -0.493 OA
ENDBRANCH   1  25
TORSDOF 3
