REMARK  Name = ZINC00482186
REMARK  5 active torsions:
REMARK  status: ('A' for Active; 'I' for Inactive)
REMARK    1  A    between atoms: C_1  and  C_2
REMARK    2  A    between atoms: C_4  and  O_9
REMARK    3  A    between atoms: O_9  and  C_10
REMARK    4  A    between atoms: C_13  and  C_18
REMARK    5  A    between atoms: C_14  and  C_16
REMARK                            x       y       z     vdW  Elec       q    Type
REMARK                         _______ _______ _______ _____ _____    ______ ____
ROOT
ATOM      1  C   UNL     1      -0.054   4.208   0.048  0.00  0.00    +0.130 A 
ATOM      2  C   UNL     1      -0.415   3.501  -1.093  0.00  0.00    +0.047 A 
ATOM      3  C   UNL     1      -0.413   2.123  -1.089  0.00  0.00    +0.024 A 
ATOM      4  C   UNL     1      -0.048   1.428   0.064  0.00  0.00    +0.069 A 
ATOM      5  C   UNL     1       0.313   2.142   1.225  0.00  0.00    +0.073 A 
ATOM      6  C   UNL     1       0.312   3.534   1.204  0.00  0.00    +0.066 A 
ENDROOT
BRANCH   5   7
ATOM      7  C   UNL     1       0.683   1.440   2.417  0.00  0.00    +0.101 C 
ATOM      8  N   UNL     1       0.977   0.883   3.362  0.00  0.00    -0.191 NA
ENDBRANCH   5   7
BRANCH   4   9
ATOM      9  C   UNL     1      -0.046  -0.004   0.071  0.00  0.00    +0.100 C 
ATOM     10  N   UNL     1      -0.045  -1.140   0.076  0.00  0.00    -0.191 NA
ENDBRANCH   4   9
BRANCH   1  11
ATOM     11  O   UNL     1      -0.059   5.566   0.032  0.00  0.00    -0.456 OA
BRANCH  11  15
ATOM     12  C   UNL     1       2.422   9.747   0.467  0.00  0.00    +0.045 C 
ATOM     13  C   UNL     1       2.382   8.245   0.342  0.00  0.00    -0.029 A 
ATOM     14  C   UNL     1       1.169   7.592   0.244  0.00  0.00    +0.051 A 
ATOM     15  C   UNL     1       1.133   6.210   0.128  0.00  0.00    +0.129 A 
ATOM     16  C   UNL     1       2.317   5.486   0.117  0.00  0.00    +0.048 A 
ATOM     17  C   UNL     1       3.528   6.143   0.210  0.00  0.00    +0.024 A 
ATOM     18  C   UNL     1       3.562   7.522   0.325  0.00  0.00    +0.044 A 
ATOM     19 CL   UNL     1       5.085   8.345   0.449  0.00  0.00    -0.083 Cl
ENDBRANCH  11  15
ENDBRANCH   1  11
TORSDOF 4
