REMARK  Name = ZINC22577240
REMARK  9 active torsions:
REMARK  status: ('A' for Active; 'I' for Inactive)
REMARK    1  A    between atoms: C_1  and  C_2
REMARK    2  A    between atoms: C_2  and  C_3
REMARK    3  A    between atoms: C_2  and  C_4
REMARK    4  A    between atoms: C_2  and  N_5
REMARK    5  A    between atoms: N_8  and  C_9
REMARK    6  A    between atoms: C_9  and  C_10
REMARK    7  A    between atoms: C_10  and  C_12
REMARK    8  A    between atoms: C_10  and  N_21
REMARK    9  A    between atoms: N_24  and  C_27
REMARK                            x       y       z     vdW  Elec       q    Type
REMARK                         _______ _______ _______ _____ _____    ______ ____
ROOT
ATOM      1  C   UNL     1       1.149   3.586   0.015  0.00  0.00    +0.104 C 
ENDROOT
BRANCH   1   2
ATOM      2  C   UNL     1       1.279   2.086   0.071  0.00  0.00    -0.025 A 
ATOM      3  C   UNL     1       0.171   1.288  -0.146  0.00  0.00    +0.009 A 
ATOM      4  C   UNL     1       0.285  -0.088  -0.097  0.00  0.00    +0.050 A 
ATOM      5  C   UNL     1       1.512  -0.673   0.171  0.00  0.00    +0.166 A 
ATOM      6  C   UNL     1       2.629   0.130   0.390  0.00  0.00    +0.167 A 
ATOM      7  C   UNL     1       2.507   1.509   0.340  0.00  0.00    +0.054 A 
ATOM      8  O   UNL     1       3.705  -0.675   0.630  0.00  0.00    -0.453 OA
ATOM      9  C   UNL     1       3.324  -1.979   0.153  0.00  0.00    +0.466 C 
ATOM     10  O   UNL     1       1.889  -1.981   0.274  0.00  0.00    -0.453 OA
ENDBRANCH   1   2
BRANCH   1  11
ATOM     11  N   UNL     1       0.017   4.010   0.849  0.00  0.00    -0.297 NA
ATOM     12  C   UNL     1      -0.128   3.139   2.024  0.00  0.00    +0.066 C 
ATOM     13  C   UNL     1      -1.265   3.661   2.906  0.00  0.00    -0.064 C 
ATOM     14  N   UNL     1      -2.509   3.698   2.124  0.00  0.00    +0.379 N 
ATOM     15  C   UNL     1      -2.364   4.570   0.950  0.00  0.00    -0.064 C 
ATOM     16  C   UNL     1      -1.227   4.048   0.068  0.00  0.00    +0.066 C 
ATOM     17  C   UNL     1      -3.642   4.123   2.958  0.00  0.00    -0.096 C 
ATOM     18  H   UNL     1      -2.717   2.679   1.768  0.00  0.00    -0.082 HD
ENDBRANCH   1  11
BRANCH   1  19
ATOM     19  C   UNL     1       0.910   4.024  -1.431  0.00  0.00    +0.129 C 
BRANCH  19  23
ATOM     20  N   UNL     1       0.593   7.449  -2.730  0.00  0.00    -0.295 N 
ATOM     21  C   UNL     1       0.693   6.106  -2.678  0.00  0.00    +0.300 C 
ATOM     22  O   UNL     1       0.685   5.455  -3.705  0.00  0.00    -0.253 OA
ATOM     23  N   UNL     1       0.802   5.484  -1.488  0.00  0.00    -0.298 N 
ATOM     24  H   UNL     1       0.600   8.037  -1.801  0.00  0.00    +0.151 HD
ATOM     25  H   UNL     1       0.809   6.072  -0.558  0.00  0.00    +0.150 HD
BRANCH  20  27
ATOM     26  C   UNL     1      -0.782   7.633  -4.744  0.00  0.00    +0.031 C 
ATOM     27  C   UNL     1       0.475   8.125  -4.025  0.00  0.00    +0.028 C 
ATOM     28  C   UNL     1       0.378   9.636  -3.804  0.00  0.00    +0.031 C 
ATOM     29  C   UNL     1       1.706   7.812  -4.877  0.00  0.00    +0.031 C 
ENDBRANCH  20  27
ENDBRANCH  19  23
ENDBRANCH   1  19
TORSDOF 5
