REMARK  Name = ZINC22810951
REMARK  10 active torsions:
REMARK  status: ('A' for Active; 'I' for Inactive)
REMARK    1  A    between atoms: C_1  and  C_2
REMARK    2  A    between atoms: C_2  and  C_4
REMARK    3  A    between atoms: C_2  and  N_7
REMARK    4  A    between atoms: N_7  and  C_8
REMARK    5  A    between atoms: C_8  and  C_9
REMARK    6  A    between atoms: N_17  and  C_18
REMARK    7  A    between atoms: C_18  and  C_19
REMARK    8  A    between atoms: C_19  and  C_21
REMARK    9  A    between atoms: C_19  and  N_26
REMARK   10  A    between atoms: N_29  and  C_32
REMARK                            x       y       z     vdW  Elec       q    Type
REMARK                         _______ _______ _______ _____ _____    ______ ____
ROOT
ATOM      1  N   UNL     1       3.353  -5.428   2.500  0.00  0.00    -0.278 N 
ATOM      2  C   UNL     1       3.116  -4.102   2.551  0.00  0.00    +0.303 C 
ATOM      3  O   UNL     1       2.779  -3.584   3.598  0.00  0.00    -0.253 OA
ATOM      4  N   UNL     1       3.253  -3.350   1.441  0.00  0.00    -0.297 N 
ATOM      5  H   UNL     1       3.623  -3.806   0.510  0.00  0.00    +0.150 HD
ENDROOT
BRANCH   1   7
ATOM      6  C   UNL     1       5.213  -5.378   0.914  0.00  0.00    +0.028 C 
ATOM      7  C   UNL     1       3.878  -6.032   1.273  0.00  0.00    +0.078 C 
BRANCH   7   8
ATOM      8  C   UNL     1       2.881  -5.818   0.133  0.00  0.00    +0.009 C 
ATOM      9  C   UNL     1       2.151  -7.049  -0.409  0.00  0.00    +0.005 C 
ATOM     10  C   UNL     1       3.248  -6.382  -1.242  0.00  0.00    +0.005 C 
ENDBRANCH   7   8
ENDBRANCH   1   7
BRANCH   1  11
ATOM     11  C   UNL     1       3.085  -6.265   3.672  0.00  0.00    +0.144 C 
BRANCH  11  12
ATOM     12  C   UNL     1       1.710  -6.870   3.554  0.00  0.00    -0.030 A 
ATOM     13  C   UNL     1       0.603  -6.160   3.980  0.00  0.00    +0.005 A 
ATOM     14  C   UNL     1      -0.659  -6.713   3.866  0.00  0.00    +0.000 A 
ATOM     15  C   UNL     1      -0.813  -7.980   3.337  0.00  0.00    +0.000 A 
ATOM     16  C   UNL     1       0.294  -8.693   2.916  0.00  0.00    +0.000 A 
ATOM     17  C   UNL     1       1.556  -8.138   3.025  0.00  0.00    +0.005 A 
ENDBRANCH  11  12
ENDBRANCH   1  11
BRANCH   4  18
ATOM     18  C   UNL     1       2.909  -1.927   1.473  0.00  0.00    +0.130 C 
BRANCH  18  19
ATOM     19  C   UNL     1       3.075  -1.330   0.074  0.00  0.00    +0.110 C 
BRANCH  19  20
ATOM     20  N   UNL     1       4.415  -1.647  -0.438  0.00  0.00    -0.297 NA
ATOM     21  C   UNL     1       5.452  -1.263   0.530  0.00  0.00    +0.066 C 
ATOM     22  C   UNL     1       6.824  -1.681  -0.005  0.00  0.00    -0.064 C 
ATOM     23  N   UNL     1       7.057  -1.036  -1.305  0.00  0.00    +0.379 N 
ATOM     24  C   UNL     1       6.020  -1.420  -2.273  0.00  0.00    -0.064 C 
ATOM     25  C   UNL     1       4.648  -1.002  -1.738  0.00  0.00    +0.066 C 
ATOM     26  C   UNL     1       8.397  -1.353  -1.817  0.00  0.00    -0.096 C 
ATOM     27  H   UNL     1       7.001   0.052  -1.159  0.00  0.00    -0.082 HD
ENDBRANCH  19  20
BRANCH  19  28
ATOM     28  C   UNL     1       2.035  -1.913  -0.847  0.00  0.00    +0.008 A 
ATOM     29  C   UNL     1       0.860  -1.376  -1.256  0.00  0.00    +0.013 A 
ATOM     30  C   UNL     1       0.054  -2.102  -2.114  0.00  0.00    +0.008 A 
ATOM     31  C   UNL     1       0.462  -3.329  -2.520  0.00  0.00    +0.045 A 
ATOM     32  S   UNL     1       2.030  -3.492  -1.681  0.00  0.00    -0.100 S 
ENDBRANCH  19  28
ENDBRANCH  18  19
ENDBRANCH   4  18
TORSDOF 8
