REMARK  Name = ZINC39324458
REMARK  6 active torsions:
REMARK  status: ('A' for Active; 'I' for Inactive)
REMARK    1  A    between atoms: C_1  and  C_2
REMARK    2  A    between atoms: C_2  and  C_3
REMARK    3  A    between atoms: C_7  and  C_8
REMARK    4  A    between atoms: C_18  and  C_26
REMARK    5  A    between atoms: C_20  and  C_24
REMARK    6  A    between atoms: C_21  and  N_23
REMARK                            x       y       z     vdW  Elec       q    Type
REMARK                         _______ _______ _______ _____ _____    ______ ____
ROOT
ATOM      1  C   UNL     1       0.652  -0.632  -1.426  0.00  0.00    -0.003 C 
ATOM      2  C   UNL     1       2.057  -0.022  -1.313  0.00  0.00    +0.042 C 
ATOM      3  C   UNL     1       2.866  -0.565  -2.470  0.00  0.00    -0.004 C 
ATOM      4  C   UNL     1       3.700   0.232  -3.162  0.00  0.00    +0.015 C 
ATOM      5  C   UNL     1       2.717  -1.992  -2.819  0.00  0.00    +0.133 C 
ATOM      6  C   UNL     1       1.743  -2.724  -2.280  0.00  0.00    -0.014 C 
ATOM      7  C   UNL     1       0.759  -2.148  -1.293  0.00  0.00    +0.039 C 
ATOM      8  C   UNL     1       1.591  -4.181  -2.652  0.00  0.00    +0.094 C 
ATOM      9  C   UNL     1       2.322  -4.477  -3.930  0.00  0.00    +0.098 C 
ATOM     10  C   UNL     1       3.284  -3.636  -4.385  0.00  0.00    +0.199 C 
ATOM     11  O   UNL     1       3.602  -2.523  -3.701  0.00  0.00    -0.441 OA
ENDROOT
BRANCH   4  12
ATOM     12  C   UNL     1       3.965   1.604  -2.696  0.00  0.00    -0.024 A 
ATOM     13  C   UNL     1       3.974   1.891  -1.328  0.00  0.00    +0.011 A 
ATOM     14  C   UNL     1       4.222   3.177  -0.898  0.00  0.00    +0.039 A 
ATOM     15  C   UNL     1       4.461   4.185  -1.819  0.00  0.00    +0.123 A 
ATOM     16  C   UNL     1       4.453   3.907  -3.177  0.00  0.00    +0.039 A 
ATOM     17  C   UNL     1       4.213   2.623  -3.620  0.00  0.00    +0.011 A 
ATOM     18  F   UNL     1       4.703   5.443  -1.392  0.00  0.00    -0.205 F 
ENDBRANCH   4  12
BRANCH   8  19
ATOM     19  C   UNL     1       2.154  -5.037  -1.547  0.00  0.00    -0.035 A 
ATOM     20  C   UNL     1       3.483  -4.913  -1.187  0.00  0.00    +0.007 A 
ATOM     21  C   UNL     1       4.001  -5.698  -0.174  0.00  0.00    +0.038 A 
ATOM     22  C   UNL     1       3.188  -6.609   0.480  0.00  0.00    +0.123 A 
ATOM     23  C   UNL     1       1.857  -6.732   0.118  0.00  0.00    +0.038 A 
ATOM     24  C   UNL     1       1.341  -5.943  -0.892  0.00  0.00    +0.007 A 
ATOM     25  F   UNL     1       3.693  -7.377   1.470  0.00  0.00    -0.205 F 
ENDBRANCH   8  19
BRANCH  10  26
ATOM     26  N   UNL     1       3.941  -3.925  -5.555  0.00  0.00    -0.328 N 
ATOM     27  H   UNL     1       3.717  -4.728  -6.051  0.00  0.00    +0.145 HD
ATOM     28  H   UNL     1       4.630  -3.328  -5.885  0.00  0.00    +0.145 HD
ENDBRANCH  10  26
BRANCH   1  30
ATOM     29  C   UNL     1      -0.441   1.421  -0.515  0.00  0.00    +0.004 C 
ATOM     30  C   UNL     1      -0.239  -0.081  -0.311  0.00  0.00    +0.001 C 
ENDBRANCH   1  30
BRANCH   9  31
ATOM     31  C   UNL     1       2.001  -5.657  -4.674  0.00  0.00    +0.101 C 
ATOM     32  N   UNL     1       1.746  -6.594  -5.265  0.00  0.00    -0.191 NA
ENDBRANCH   9  31
TORSDOF 5
