REMARK  Name = ZINC10042455
REMARK  11 active torsions:
REMARK  status: ('A' for Active; 'I' for Inactive)
REMARK    1  A    between atoms: C_1  and  C_2
REMARK    2  A    between atoms: C_2  and  C_3
REMARK    3  A    between atoms: C_2  and  C_4
REMARK    4  A    between atoms: C_4  and  C_6
REMARK    5  A    between atoms: C_4  and  N_23
REMARK    6  A    between atoms: N_8  and  N_9
REMARK    7  A    between atoms: C_10  and  C_11
REMARK    8  A    between atoms: C_16  and  O_17
REMARK    9  A    between atoms: O_17  and  C_18
REMARK   10  A    between atoms: C_18  and  C_19
REMARK   11  A    between atoms: C_24  and  C_26
REMARK                            x       y       z     vdW  Elec       q    Type
REMARK                         _______ _______ _______ _____ _____    ______ ____
ROOT
ATOM      1  C   UNL     1      -4.776  -0.199   0.048  0.00  0.00    +0.253 C 
ATOM      2  O   UNL     1      -4.796   1.014   0.055  0.00  0.00    -0.272 OA
ATOM      3  N   UNL     1      -3.598  -0.853   0.033  0.00  0.00    -0.205 N 
ATOM      4  H   UNL     1      -3.582  -1.823   0.028  0.00  0.00    +0.177 HD
ENDROOT
BRANCH   3   5
ATOM      5  N   UNL     1      -2.396  -0.132   0.025  0.00  0.00    -0.188 NA
ATOM      6  C   UNL     1      -1.262  -0.762   0.011  0.00  0.00    +0.142 C 
BRANCH   6   7
ATOM      7  C   UNL     1       0.002  -0.004   0.002  0.00  0.00    +0.037 A 
ATOM      8  C   UNL     1       1.225  -0.678  -0.013  0.00  0.00    +0.028 A 
ATOM      9  C   UNL     1       2.405   0.038  -0.021  0.00  0.00    +0.019 A 
ATOM     10  C   UNL     1       2.381   1.423  -0.013  0.00  0.00    +0.019 A 
ATOM     11  C   UNL     1       1.176   2.101   0.002  0.00  0.00    +0.047 A 
ATOM     12  C   UNL     1      -0.017   1.397   0.010  0.00  0.00    +0.130 A 
ATOM     13 BR   UNL     1       4.061  -0.875  -0.041  0.00  0.00    -0.050 Br
BRANCH  12  14
ATOM     14  O   UNL     1      -1.201   2.063   0.019  0.00  0.00    -0.482 OA
BRANCH  14  15
ATOM     15  C   UNL     1      -1.142   3.491   0.026  0.00  0.00    +0.324 C 
BRANCH  15  16
ATOM     16  C   UNL     1      -2.541   4.051   0.036  0.00  0.00    +0.248 C 
ATOM     17  O   UNL     1      -3.494   3.301   0.036  0.00  0.00    -0.272 OA
ATOM     18  N   UNL     1      -2.733   5.385   0.044  0.00  0.00    -0.327 N 
ATOM     19  H   UNL     1      -1.970   5.984   0.044  0.00  0.00    +0.145 HD
ATOM     20  H   UNL     1      -3.633   5.745   0.051  0.00  0.00    +0.145 HD
ENDBRANCH  15  16
ENDBRANCH  14  15
ENDBRANCH  12  14
ENDBRANCH   6   7
ENDBRANCH   3   5
BRANCH   1  21
ATOM     21  C   UNL     1      -6.068  -0.974   0.057  0.00  0.00    +0.163 C 
BRANCH  21  22
ATOM     22  N   UNL     1      -7.197  -0.041   0.073  0.00  0.00    -0.300 N 
ATOM     23  C   UNL     1      -8.386  -0.430   0.576  0.00  0.00    +0.245 C 
ATOM     24  O   UNL     1      -8.521  -1.555   1.017  0.00  0.00    -0.270 OA
ATOM     25  H   UNL     1      -7.090   0.857  -0.278  0.00  0.00    +0.150 HD
BRANCH  23  26
ATOM     26  C   UNL     1      -9.525   0.511   0.593  0.00  0.00    +0.037 A 
ATOM     27  C   UNL     1      -9.372   1.806   0.093  0.00  0.00    +0.014 A 
ATOM     28  C   UNL     1     -10.440   2.678   0.105  0.00  0.00    +0.021 A 
ATOM     29  C   UNL     1     -11.660   2.275   0.623  0.00  0.00    +0.041 A 
ATOM     30  C   UNL     1     -11.816   0.994   1.126  0.00  0.00    +0.021 A 
ATOM     31  C   UNL     1     -10.757   0.112   1.113  0.00  0.00    +0.014 A 
ATOM     32 CL   UNL     1     -12.998   3.381   0.641  0.00  0.00    -0.084 Cl
ENDBRANCH  23  26
ENDBRANCH  21  22
BRANCH  21  34
ATOM     33  C   UNL     1      -7.459  -2.635  -1.187  0.00  0.00    +0.009 C 
ATOM     34  C   UNL     1      -6.147  -1.848  -1.196  0.00  0.00    +0.012 C 
ATOM     35  C   UNL     1      -6.093  -0.961  -2.441  0.00  0.00    +0.009 C 
ENDBRANCH  21  34
ENDBRANCH   1  21
TORSDOF 9
