REMARK  Name = ZINC63162356
REMARK  5 active torsions:
REMARK  status: ('A' for Active; 'I' for Inactive)
REMARK    1  A    between atoms: C_1  and  C_2
REMARK    2  A    between atoms: C_2  and  C_3
REMARK    3  A    between atoms: C_2  and  N_13
REMARK    4  A    between atoms: N_16  and  C_17
REMARK    5  A    between atoms: C_19  and  C_25
REMARK                            x       y       z     vdW  Elec       q    Type
REMARK                         _______ _______ _______ _____ _____    ______ ____
ROOT
ATOM      1  N   UNL     1       0.688  -0.634  -1.139  0.00  0.00    -0.293 N 
ATOM      2  C   UNL     1       2.031  -0.750  -1.164  0.00  0.00    +0.304 C 
ATOM      3  O   UNL     1       2.673  -0.610  -0.141  0.00  0.00    -0.252 OA
ATOM      4  N   UNL     1       2.662  -1.022  -2.324  0.00  0.00    -0.265 N 
ATOM      5  H   UNL     1       0.176  -0.745  -1.955  0.00  0.00    +0.151 HD
ATOM      6  H   UNL     1       2.147  -1.206  -3.125  0.00  0.00    +0.157 HD
ENDROOT
BRANCH   4   7
ATOM      7  C   UNL     1       4.063  -1.037  -2.373  0.00  0.00    +0.100 A 
ATOM      8  C   UNL     1       4.729  -2.163  -2.771  0.00  0.00    +0.042 A 
ATOM      9  C   UNL     1       6.131  -2.152  -2.811  0.00  0.00    +0.073 A 
ATOM     10  C   UNL     1       6.809  -1.036  -2.459  0.00  0.00    +0.098 A 
ATOM     11  N   UNL     1       6.149   0.084  -2.062  0.00  0.00    -0.327 N 
ATOM     12  H   UNL     1       6.653   0.875  -1.813  0.00  0.00    +0.168 HD
ATOM     13  C   UNL     1       4.803   0.111  -2.017  0.00  0.00    +0.270 A 
ATOM     14  O   UNL     1       4.224   1.126  -1.664  0.00  0.00    -0.266 OA
BRANCH   9  15
ATOM     15  C   UNL     1       6.882  -3.384  -3.247  0.00  0.00    +0.419 C 
ATOM     16  F   UNL     1       8.257  -3.130  -3.206  0.00  0.00    -0.166 F 
ATOM     17  F   UNL     1       6.577  -4.444  -2.388  0.00  0.00    -0.166 F 
ATOM     18  F   UNL     1       6.509  -3.720  -4.553  0.00  0.00    -0.166 F 
ENDBRANCH   9  15
ENDBRANCH   4   7
BRANCH   1  20
ATOM     19  C   UNL     1      -0.009   1.173   0.355  0.00  0.00    +0.033 C 
ATOM     20  C   UNL     1       0.003  -0.339   0.122  0.00  0.00    +0.102 C 
BRANCH  20  21
ATOM     21  C   UNL     1      -1.414  -0.847   0.054  0.00  0.00    -0.027 A 
ATOM     22  C   UNL     1      -2.144  -0.714  -1.113  0.00  0.00    +0.006 A 
ATOM     23  C   UNL     1      -3.441  -1.179  -1.167  0.00  0.00    +0.004 A 
ATOM     24  C   UNL     1      -4.021  -1.782  -0.058  0.00  0.00    -0.044 A 
ATOM     25  C   UNL     1      -3.294  -1.919   1.103  0.00  0.00    -0.044 A 
ATOM     26  C   UNL     1      -1.986  -1.451   1.154  0.00  0.00    +0.009 A 
ATOM     27  C   UNL     1      -3.853  -2.575   2.337  0.00  0.00    +0.035 C 
ATOM     28  C   UNL     1      -5.377  -2.640   2.268  0.00  0.00    +0.005 C 
ATOM     29  C   UNL     1      -5.775  -3.259   0.923  0.00  0.00    +0.005 C 
ATOM     30  C   UNL     1      -5.444  -2.259  -0.184  0.00  0.00    +0.035 C 
ENDBRANCH  20  21
ENDBRANCH   1  20
TORSDOF 4
