REMARK  Name = ZINC35196206
REMARK  9 active torsions:
REMARK  status: ('A' for Active; 'I' for Inactive)
REMARK    1  A    between atoms: C_1  and  C_2
REMARK    2  A    between atoms: C_5  and  C_8
REMARK    3  A    between atoms: C_11  and  C_22
REMARK    4  A    between atoms: C_15  and  C_17
REMARK    5  A    between atoms: N_24  and  C_25
REMARK    6  A    between atoms: C_25  and  C_26
REMARK    7  A    between atoms: C_26  and  C_27
REMARK    8  A    between atoms: C_27  and  C_28
REMARK    9  A    between atoms: C_27  and  C_29
REMARK                            x       y       z     vdW  Elec       q    Type
REMARK                         _______ _______ _______ _____ _____    ______ ____
ROOT
ATOM      1  C   UNL     1      -0.946  -4.633  -0.360  0.00  0.00    +0.248 C 
ATOM      2  O   UNL     1      -0.927  -5.377  -1.321  0.00  0.00    -0.270 OA
ATOM      3  N   UNL     1      -0.449  -5.046   0.823  0.00  0.00    -0.269 N 
ATOM      4  C   UNL     1       0.249  -6.321   0.965  0.00  0.00    +0.173 C 
ATOM      5  C   UNL     1       1.343  -6.233   2.070  0.00  0.00    +0.103 C 
ATOM      6  S   UNL     1       0.421  -5.180   3.279  0.00  0.00    -0.131 S 
ATOM      7  C   UNL     1      -0.573  -4.235   2.049  0.00  0.00    +0.169 C 
ENDROOT
BRANCH   1  12
ATOM      8  C   UNL     1      -3.157   0.656  -0.861  0.00  0.00    +0.044 C 
ATOM      9  C   UNL     1      -2.578  -0.729  -0.730  0.00  0.00    -0.050 A 
ATOM     10  C   UNL     1      -2.414  -1.516  -1.855  0.00  0.00    +0.004 A 
ATOM     11  C   UNL     1      -1.885  -2.785  -1.742  0.00  0.00    +0.013 A 
ATOM     12  C   UNL     1      -1.514  -3.274  -0.489  0.00  0.00    +0.037 A 
ATOM     13  C   UNL     1      -1.681  -2.474   0.643  0.00  0.00    +0.013 A 
ATOM     14  C   UNL     1      -2.207  -1.205   0.515  0.00  0.00    +0.004 A 
ENDBRANCH   1  12
BRANCH   7  15
ATOM     15  C   UNL     1      -2.013  -4.148   2.486  0.00  0.00    +0.021 A 
ATOM     16  C   UNL     1      -2.624  -3.066   3.160  0.00  0.00    +0.047 A 
ATOM     17  C   UNL     1      -3.911  -3.405   3.355  0.00  0.00    +0.195 A 
ATOM     18  O   UNL     1      -4.110  -4.629   2.838  0.00  0.00    -0.471 OA
ATOM     19  C   UNL     1      -2.964  -5.082   2.305  0.00  0.00    +0.201 A 
ENDBRANCH   7  15
BRANCH   4  20
ATOM     20  C   UNL     1       0.898  -6.680  -0.346  0.00  0.00    +0.234 C 
ATOM     21  O   UNL     1       1.329  -5.806  -1.069  0.00  0.00    -0.274 OA
ATOM     22  N   UNL     1       1.001  -7.971  -0.717  0.00  0.00    -0.314 N 
ATOM     23  H   UNL     1       0.656  -8.670  -0.139  0.00  0.00    +0.149 HD
BRANCH  22  24
ATOM     24  C   UNL     1       1.633  -8.320  -1.992  0.00  0.00    +0.104 C 
BRANCH  24  25
ATOM     25  C   UNL     1       1.620  -9.840  -2.168  0.00  0.00    +0.022 C 
BRANCH  25  26
ATOM     26  C   UNL     1       2.280 -10.204  -3.500  0.00  0.00    -0.016 C 
ATOM     27  C   UNL     1       2.380 -11.726  -3.620  0.00  0.00    +0.007 C 
ATOM     28  C   UNL     1       1.437  -9.656  -4.653  0.00  0.00    +0.007 C 
ENDBRANCH  25  26
ENDBRANCH  24  25
ENDBRANCH  22  24
ENDBRANCH   4  20
TORSDOF 6
