REMARK  Name = ZINC14010039
REMARK  6 active torsions:
REMARK  status: ('A' for Active; 'I' for Inactive)
REMARK    1  A    between atoms: C_1  and  C_2
REMARK    2  A    between atoms: C_6  and  N_8
REMARK    3  A    between atoms: C_20  and  C_22
REMARK    4  A    between atoms: C_22  and  C_23
REMARK    5  A    between atoms: N_25  and  C_26
REMARK    6  A    between atoms: C_26  and  C_27
REMARK                            x       y       z     vdW  Elec       q    Type
REMARK                         _______ _______ _______ _____ _____    ______ ____
ROOT
ATOM      1  N   UNL     1      -2.020  -2.212  -4.584  0.00  0.00    -0.214 N 
ATOM      2  C   UNL     1      -2.299  -1.427  -3.507  0.00  0.00    +0.171 A 
ATOM      3  C   UNL     1      -1.136  -1.392  -2.719  0.00  0.00    +0.103 A 
ATOM      4  C   UNL     1      -0.170  -2.186  -3.375  0.00  0.00    +0.150 A 
ATOM      5  N   UNL     1      -0.699  -2.662  -4.467  0.00  0.00    -0.172 NA
ATOM      6  C   UNL     1      -1.145  -0.640  -1.525  0.00  0.00    +0.266 A 
ATOM      7  O   UNL     1      -0.149  -0.595  -0.824  0.00  0.00    -0.267 OA
ATOM      8  N   UNL     1      -2.278   0.041  -1.154  0.00  0.00    -0.283 N 
ATOM      9  C   UNL     1      -3.361  -0.049  -1.980  0.00  0.00    +0.174 A 
ATOM     10  N   UNL     1      -3.372  -0.745  -3.095  0.00  0.00    -0.203 NA
ATOM     11  S   UNL     1      -4.654   0.927  -1.240  0.00  0.00    -0.085 S 
ATOM     12  C   UNL     1      -3.768   1.511   0.252  0.00  0.00    +0.103 C 
ATOM     13  C   UNL     1      -2.396   0.848   0.059  0.00  0.00    +0.112 C 
ENDROOT
BRANCH   1  19
ATOM     14  C   UNL     1      -2.780  -3.120  -9.357  0.00  0.00    +0.044 C 
ATOM     15  C   UNL     1      -3.298  -2.963  -7.950  0.00  0.00    -0.048 A 
ATOM     16  C   UNL     1      -4.647  -3.123  -7.688  0.00  0.00    +0.003 A 
ATOM     17  C   UNL     1      -5.126  -2.981  -6.399  0.00  0.00    +0.002 A 
ATOM     18  C   UNL     1      -4.257  -2.684  -5.367  0.00  0.00    +0.028 A 
ATOM     19  C   UNL     1      -2.903  -2.518  -5.627  0.00  0.00    +0.068 A 
ATOM     20  C   UNL     1      -2.425  -2.662  -6.923  0.00  0.00    +0.031 A 
ENDBRANCH   1  19
BRANCH  13  21
ATOM     21  C   UNL     1      -1.330   1.944   0.019  0.00  0.00    +0.121 C 
BRANCH  21  22
ATOM     22  C   UNL     1      -1.332   2.696   1.325  0.00  0.00    +0.215 C 
ATOM     23  O   UNL     1      -2.033   2.319   2.240  0.00  0.00    -0.276 OA
ATOM     24  N   UNL     1      -0.552   3.785   1.477  0.00  0.00    -0.311 N 
ATOM     25  H   UNL     1       0.008   4.087   0.745  0.00  0.00    +0.149 HD
BRANCH  24  26
ATOM     26  C   UNL     1      -0.550   4.513   2.749  0.00  0.00    +0.139 C 
BRANCH  26  27
ATOM     27  C   UNL     1       0.399   5.680   2.658  0.00  0.00    -0.027 A 
ATOM     28  C   UNL     1      -0.059   6.909   2.221  0.00  0.00    +0.009 A 
ATOM     29  C   UNL     1       0.807   7.982   2.136  0.00  0.00    +0.050 A 
ATOM     30  C   UNL     1       2.138   7.829   2.491  0.00  0.00    +0.166 A 
ATOM     31  C   UNL     1       2.599   6.591   2.932  0.00  0.00    +0.167 A 
ATOM     32  C   UNL     1       1.724   5.521   3.018  0.00  0.00    +0.054 A 
ATOM     33  O   UNL     1       3.930   6.697   3.217  0.00  0.00    -0.453 OA
ATOM     34  C   UNL     1       4.369   7.901   2.560  0.00  0.00    +0.466 C 
ATOM     35  O   UNL     1       3.180   8.711   2.500  0.00  0.00    -0.453 OA
ENDBRANCH  26  27
ENDBRANCH  24  26
ENDBRANCH  21  22
ENDBRANCH  13  21
TORSDOF 5
