REMARK  Name = ZINC16528960
REMARK  9 active torsions:
REMARK  status: ('A' for Active; 'I' for Inactive)
REMARK    1  A    between atoms: C_1  and  C_2
REMARK    2  A    between atoms: C_2  and  C_3
REMARK    3  A    between atoms: C_2  and  C_4
REMARK    4  A    between atoms: C_4  and  C_5
REMARK    5  A    between atoms: N_7  and  C_8
REMARK    6  A    between atoms: N_7  and  C_15
REMARK    7  A    between atoms: C_8  and  C_9
REMARK    8  A    between atoms: C_15  and  C_16
REMARK    9  A    between atoms: C_26  and  C_28
REMARK                            x       y       z     vdW  Elec       q    Type
REMARK                         _______ _______ _______ _____ _____    ______ ____
ROOT
ATOM      1  C   UNL     1      -2.218   1.403  -1.281  0.00  0.00    +0.234 C 
ATOM      2  O   UNL     1      -2.757   1.670  -0.228  0.00  0.00    -0.274 OA
ATOM      3  N   UNL     1      -0.887   1.193  -1.323  0.00  0.00    -0.289 N 
ATOM      4  C   UNL     1      -0.198   1.037  -2.612  0.00  0.00    +0.114 C 
ATOM      5  C   UNL     1       0.772   2.216  -2.786  0.00  0.00    +0.062 C 
ATOM      6  C   UNL     1       1.477   2.451  -1.490  0.00  0.00    -0.003 A 
ATOM      7  C   UNL     1       1.134   1.993  -0.256  0.00  0.00    -0.012 A 
ATOM      8  C   UNL     1       1.963   2.363   0.802  0.00  0.00    +0.013 A 
ATOM      9  C   UNL     1       3.047   3.138   0.573  0.00  0.00    +0.046 A 
ATOM     10  S   UNL     1       2.950   3.393  -1.193  0.00  0.00    -0.101 S 
ATOM     11  C   UNL     1      -0.106   1.117  -0.081  0.00  0.00    +0.139 C 
ENDROOT
BRANCH  11  12
ATOM     12  C   UNL     1      -0.930   1.624   1.074  0.00  0.00    -0.004 A 
ATOM     13  C   UNL     1      -1.010   2.981   1.323  0.00  0.00    +0.008 A 
ATOM     14  C   UNL     1      -1.766   3.447   2.382  0.00  0.00    +0.020 A 
ATOM     15  C   UNL     1      -2.443   2.554   3.194  0.00  0.00    +0.042 A 
ATOM     16  C   UNL     1      -2.363   1.196   2.946  0.00  0.00    +0.040 A 
ATOM     17  C   UNL     1      -1.610   0.731   1.882  0.00  0.00    +0.048 A 
ATOM     18 CL   UNL     1      -1.515  -0.973   1.565  0.00  0.00    -0.083 Cl
ATOM     19 CL   UNL     1      -3.393   3.139   4.524  0.00  0.00    -0.083 Cl
ENDBRANCH  11  12
BRANCH   1  20
ATOM     20  C   UNL     1      -3.037   1.305  -2.542  0.00  0.00    +0.203 C 
BRANCH  20  23
ATOM     21  C   UNL     1      -4.918   2.833  -2.292  0.00  0.00    +0.216 C 
ATOM     22  O   UNL     1      -4.180   3.745  -2.600  0.00  0.00    -0.276 OA
ATOM     23  N   UNL     1      -4.443   1.573  -2.234  0.00  0.00    -0.290 N 
BRANCH  21  24
ATOM     24  C   UNL     1      -6.365   3.109  -1.975  0.00  0.00    +0.099 C 
BRANCH  24  26
ATOM     25  C   UNL     1      -6.460   5.025  -3.576  0.00  0.00    +0.008 C 
ATOM     26  C   UNL     1      -6.641   4.608  -2.115  0.00  0.00    -0.008 C 
ATOM     27  C   UNL     1      -8.075   4.905  -1.673  0.00  0.00    +0.008 C 
ENDBRANCH  24  26
ENDBRANCH  21  24
BRANCH  23  28
ATOM     28  C   UNL     1      -5.335   0.471  -1.862  0.00  0.00    +0.139 C 
BRANCH  28  29
ATOM     29  C   UNL     1      -5.304   0.281  -0.344  0.00  0.00    +0.136 C 
ATOM     30  C   UNL     1      -6.145  -0.954   0.046  0.00  0.00    +0.035 C 
ATOM     31  C   UNL     1      -6.844  -0.476   1.349  0.00  0.00    +0.031 C 
ATOM     32  C   UNL     1      -7.048   1.029   1.040  0.00  0.00    +0.160 C 
ATOM     33  O   UNL     1      -5.881   1.422   0.301  0.00  0.00    -0.375 OA
ENDBRANCH  28  29
ENDBRANCH  23  28
ENDBRANCH  20  23
ENDBRANCH   1  20
TORSDOF 7
