REMARK  Name = ZINC40017014
REMARK  8 active torsions:
REMARK  status: ('A' for Active; 'I' for Inactive)
REMARK    1  A    between atoms: C_1  and  C_2
REMARK    2  A    between atoms: C_2  and  C_3
REMARK    3  A    between atoms: C_6  and  N_9
REMARK    4  A    between atoms: C_13  and  S_15
REMARK    5  A    between atoms: S_15  and  C_16
REMARK    6  A    between atoms: C_16  and  C_17
REMARK    7  A    between atoms: C_22  and  C_31
REMARK    8  A    between atoms: C_23  and  C_28
REMARK                            x       y       z     vdW  Elec       q    Type
REMARK                         _______ _______ _______ _____ _____    ______ ____
ROOT
ATOM      1  S   UNL     1      -9.018  -2.807  -4.342  0.00  0.00    -0.089 S 
ENDROOT
BRANCH   1   6
ATOM      2  N   UNL     1      -5.318  -1.968   0.042  0.00  0.00    -0.292 N 
ATOM      3  C   UNL     1      -6.016  -2.110  -1.152  0.00  0.00    +0.187 A 
ATOM      4  N   UNL     1      -5.597  -1.936  -2.390  0.00  0.00    -0.125 NA
ATOM      5  N   UNL     1      -6.464  -2.131  -3.440  0.00  0.00    -0.133 NA
ATOM      6  C   UNL     1      -7.711  -2.492  -3.203  0.00  0.00    +0.160 A 
ATOM      7  S   UNL     1      -7.718  -2.582  -1.419  0.00  0.00    -0.024 S 
ATOM      8  H   UNL     1      -5.738  -2.213   0.882  0.00  0.00    +0.154 HD
BRANCH   2  12
ATOM      9  C   UNL     1      -1.424  -0.494   0.016  0.00  0.00    -0.048 A 
ATOM     10  C   UNL     1      -2.289  -0.173  -1.013  0.00  0.00    +0.005 A 
ATOM     11  C   UNL     1      -3.582  -0.661  -1.008  0.00  0.00    +0.023 A 
ATOM     12  C   UNL     1      -4.011  -1.474   0.033  0.00  0.00    +0.033 A 
ATOM     13  C   UNL     1      -3.139  -1.794   1.066  0.00  0.00    +0.023 A 
ATOM     14  C   UNL     1      -1.846  -1.308   1.051  0.00  0.00    +0.005 A 
BRANCH   9  16
ATOM     15  C   UNL     1       0.898  -0.941  -0.732  0.00  0.00    +0.009 C 
ATOM     16  C   UNL     1      -0.014   0.040   0.007  0.00  0.00    +0.032 C 
ENDBRANCH   9  16
ENDBRANCH   2  12
ENDBRANCH   1   6
BRANCH   1  17
ATOM     17  C   UNL     1      -8.263  -2.522  -5.966  0.00  0.00    +0.150 C 
BRANCH  17  18
ATOM     18  C   UNL     1      -9.288  -2.760  -7.045  0.00  0.00    +0.134 C 
ATOM     19  N   UNL     1     -10.499  -3.110  -6.685  0.00  0.00    -0.160 NA
ATOM     20  C   UNL     1     -11.477  -3.344  -7.567  0.00  0.00    +0.271 C 
ATOM     21  O   UNL     1     -12.593  -3.668  -7.197  0.00  0.00    -0.268 OA
ATOM     22  C   UNL     1     -11.158  -3.195  -9.022  0.00  0.00    +0.071 C 
ATOM     23  C   UNL     1     -11.970  -3.375 -10.074  0.00  0.00    -0.034 C 
ATOM     24  C   UNL     1     -11.393  -3.157 -11.454  0.00  0.00    +0.192 C 
ATOM     25  S   UNL     1      -9.657  -2.693 -11.063  0.00  0.00    -0.086 S 
ATOM     26  C   UNL     1      -9.760  -2.797  -9.294  0.00  0.00    +0.112 C 
ATOM     27  N   UNL     1      -8.919  -2.600  -8.307  0.00  0.00    -0.227 NA
ATOM     28  C   UNL     1     -13.409  -3.781  -9.887  0.00  0.00    +0.041 C 
BRANCH  24  29
ATOM     29  C   UNL     1     -11.443  -4.425 -12.267  0.00  0.00    +0.373 C 
ATOM     30  O   UNL     1     -11.825  -4.392 -13.425  0.00  0.00    -0.245 OA
ATOM     31  O   UNL     1     -11.102  -5.483 -11.768  0.00  0.00    -0.245 OA
ENDBRANCH  24  29
ENDBRANCH  17  18
ENDBRANCH   1  17
TORSDOF 6
