REMARK  Name = ZINC29342098
REMARK  12 active torsions:
REMARK  status: ('A' for Active; 'I' for Inactive)
REMARK    1  A    between atoms: C_1  and  C_2
REMARK    2  A    between atoms: C_2  and  N_3
REMARK    3  A    between atoms: C_4  and  C_28
REMARK    4  A    between atoms: C_7  and  S_8
REMARK    5  A    between atoms: S_8  and  C_9
REMARK    6  A    between atoms: C_9  and  C_10
REMARK    7  A    between atoms: N_12  and  C_13
REMARK    8  A    between atoms: C_13  and  C_14
REMARK    9  A    between atoms: C_17  and  C_20
REMARK   10  A    between atoms: C_20  and  N_21
REMARK   11  A    between atoms: C_24  and  C_27
REMARK   12  A    between atoms: C_33  and  C_34
REMARK                            x       y       z     vdW  Elec       q    Type
REMARK                         _______ _______ _______ _____ _____    ______ ____
ROOT
ATOM      1  C   UNL     1      -3.151  -0.473  -5.110  0.00  0.00    +0.224 C 
ATOM      2  O   UNL     1      -2.167   0.127  -5.491  0.00  0.00    -0.275 OA
ATOM      3  N   UNL     1      -4.095  -0.849  -5.995  0.00  0.00    -0.311 N 
ATOM      4  H   UNL     1      -4.881  -1.329  -5.691  0.00  0.00    +0.149 HD
ENDROOT
BRANCH   1   5
ATOM      5  C   UNL     1      -3.316  -0.797  -3.648  0.00  0.00    +0.173 C 
BRANCH   5   6
ATOM      6  S   UNL     1      -1.890  -0.163  -2.723  0.00  0.00    -0.077 S 
BRANCH   6  11
ATOM      7  N   UNL     1      -1.442  -0.357   0.032  0.00  0.00    -0.302 N 
ATOM      8  C   UNL     1      -2.111  -0.889   1.110  0.00  0.00    +0.165 A 
ATOM      9  N   UNL     1      -3.218  -1.425   0.651  0.00  0.00    -0.128 NA
ATOM     10  N   UNL     1      -3.287  -1.267  -0.622  0.00  0.00    -0.122 NA
ATOM     11  C   UNL     1      -2.230  -0.615  -1.054  0.00  0.00    +0.192 A 
BRANCH   8  12
ATOM     12  C   UNL     1      -1.666  -0.863   2.520  0.00  0.00    +0.022 A 
ATOM     13  C   UNL     1      -0.364  -1.242   2.851  0.00  0.00    +0.012 A 
ATOM     14  C   UNL     1       0.045  -1.214   4.168  0.00  0.00    +0.001 A 
ATOM     15  C   UNL     1      -0.833  -0.813   5.160  0.00  0.00    +0.000 A 
ATOM     16  C   UNL     1      -2.124  -0.436   4.838  0.00  0.00    +0.004 A 
ATOM     17  C   UNL     1      -2.544  -0.453   3.524  0.00  0.00    -0.040 A 
ATOM     18  C   UNL     1      -3.949  -0.036   3.175  0.00  0.00    +0.044 C 
ENDBRANCH   8  12
BRANCH   7  20
ATOM     19  C   UNL     1      -0.394   1.837   0.297  0.00  0.00    +0.027 C 
ATOM     20  C   UNL     1      -0.157   0.346   0.046  0.00  0.00    +0.122 C 
ENDBRANCH   7  20
ENDBRANCH   6  11
ENDBRANCH   5   6
ENDBRANCH   1   5
BRANCH   3  21
ATOM     21  C   UNL     1      -3.934  -0.534  -7.417  0.00  0.00    +0.139 C 
BRANCH  21  22
ATOM     22  C   UNL     1      -5.118  -1.060  -8.185  0.00  0.00    -0.030 A 
ATOM     23  C   UNL     1      -5.094  -2.344  -8.699  0.00  0.00    +0.005 A 
ATOM     24  C   UNL     1      -6.181  -2.827  -9.404  0.00  0.00    +0.002 A 
ATOM     25  C   UNL     1      -7.292  -2.027  -9.595  0.00  0.00    -0.064 A 
ATOM     26  C   UNL     1      -7.316  -0.744  -9.081  0.00  0.00    +0.002 A 
ATOM     27  C   UNL     1      -6.231  -0.262  -8.372  0.00  0.00    +0.005 A 
BRANCH  25  28
ATOM     28  C   UNL     1      -8.476  -2.553 -10.364  0.00  0.00    -0.043 C 
BRANCH  28  29
ATOM     29  N   UNL     1      -9.410  -3.207  -9.438  0.00  0.00    +0.382 N 
ATOM     30  C   UNL     1      -9.953  -2.209  -8.508  0.00  0.00    -0.078 C 
ATOM     31  C   UNL     1     -10.864  -2.898  -7.490  0.00  0.00    -0.016 C 
ATOM     32  C   UNL     1     -12.014  -3.589  -8.229  0.00  0.00    -0.018 C 
ATOM     33  C   UNL     1     -11.435  -4.574  -9.248  0.00  0.00    -0.016 C 
ATOM     34  C   UNL     1     -10.502  -3.822 -10.201  0.00  0.00    -0.078 C 
ATOM     35  C   UNL     1     -12.886  -4.346  -7.224  0.00  0.00    +0.007 C 
ATOM     36  H   UNL     1      -8.922  -3.919  -8.917  0.00  0.00    -0.081 HD
ENDBRANCH  28  29
ENDBRANCH  25  28
ENDBRANCH  21  22
ENDBRANCH   3  21
TORSDOF 9
