REMARK  Name = ZINC39630296
REMARK  9 active torsions:
REMARK  status: ('A' for Active; 'I' for Inactive)
REMARK    1  A    between atoms: C_1  and  C_2
REMARK    2  A    between atoms: C_4  and  C_30
REMARK    3  A    between atoms: C_6  and  S_11
REMARK    4  A    between atoms: C_7  and  C_8
REMARK    5  A    between atoms: S_11  and  C_12
REMARK    6  A    between atoms: C_12  and  C_13
REMARK    7  A    between atoms: N_18  and  C_19
REMARK    8  A    between atoms: C_24  and  C_29
REMARK    9  A    between atoms: C_26  and  C_28
REMARK                            x       y       z     vdW  Elec       q    Type
REMARK                         _______ _______ _______ _____ _____    ______ ____
ROOT
ATOM      1  C   UNL     1       0.401  -5.715   3.241  0.00  0.00    +0.231 C 
ATOM      2  O   UNL     1       0.498  -5.255   4.358  0.00  0.00    -0.274 OA
ATOM      3  N   UNL     1       0.408  -7.051   3.060  0.00  0.00    -0.240 N 
ATOM      4  C   UNL     1       0.522  -7.874   4.122  0.00  0.00    +0.306 C 
ATOM      5  O   UNL     1       0.619  -7.412   5.241  0.00  0.00    -0.252 OA
ATOM      6  N   UNL     1       0.528  -9.210   3.941  0.00  0.00    -0.296 N 
ATOM      7  H   UNL     1       0.330  -7.420   2.167  0.00  0.00    +0.159 HD
ATOM      8  H   UNL     1       0.450  -9.579   3.047  0.00  0.00    +0.151 HD
ENDROOT
BRANCH   6   9
ATOM      9  C   UNL     1       0.652 -10.104   5.094  0.00  0.00    +0.078 C 
ATOM     10  C   UNL     1       2.131 -10.291   5.438  0.00  0.00    +0.022 C 
ATOM     11  C   UNL     1       2.260 -11.226   6.643  0.00  0.00    +0.002 C 
ATOM     12  C   UNL     1       1.640 -12.583   6.304  0.00  0.00    +0.003 C 
ATOM     13  C   UNL     1       0.161 -12.396   5.961  0.00  0.00    -0.009 C 
ATOM     14  C   UNL     1       0.031 -11.461   4.756  0.00  0.00    +0.009 C 
ATOM     15  C   UNL     1       0.760 -12.071   3.557  0.00  0.00    +0.009 C 
ATOM     16  C   UNL     1      -0.460 -13.753   5.623  0.00  0.00    +0.008 C 
ENDBRANCH   6   9
BRANCH   1  17
ATOM     17  C   UNL     1       0.274  -4.795   2.054  0.00  0.00    +0.172 C 
BRANCH  17  18
ATOM     18  S   UNL     1       0.297  -3.072   2.621  0.00  0.00    -0.096 S 
BRANCH  18  24
ATOM     19  C   UNL     1      -0.028   1.503   0.011  0.00  0.00    +0.045 C 
ATOM     20  C   UNL     1      -0.003  -0.004   0.003  0.00  0.00    -0.032 A 
ATOM     21  C   UNL     1      -0.102  -0.708  -1.184  0.00  0.00    +0.027 A 
ATOM     22  C   UNL     1      -0.075  -2.091  -1.161  0.00  0.00    +0.040 A 
ATOM     23  N   UNL     1       0.043  -2.755  -0.029  0.00  0.00    -0.245 NA
ATOM     24  C   UNL     1       0.141  -2.134   1.137  0.00  0.00    +0.112 A 
ATOM     25  C   UNL     1       0.128  -0.727   1.196  0.00  0.00    +0.098 A 
ATOM     26  C   UNL     1      -0.184  -2.854  -2.457  0.00  0.00    +0.065 C 
BRANCH  25  27
ATOM     27  C   UNL     1       0.243  -0.030   2.485  0.00  0.00    +0.389 C 
ATOM     28  O   UNL     1      -0.754   0.164   3.167  0.00  0.00    -0.240 OA
ATOM     29  O   UNL     1       1.337   0.356   2.876  0.00  0.00    -0.240 OA
ENDBRANCH  25  27
ENDBRANCH  18  24
ENDBRANCH  17  18
ENDBRANCH   1  17
TORSDOF 5
