REMARK  Name = ZINC37343706
REMARK  5 active torsions:
REMARK  status: ('A' for Active; 'I' for Inactive)
REMARK    1  A    between atoms: C_1  and  C_2
REMARK    2  A    between atoms: C_2  and  C_3
REMARK    3  A    between atoms: C_4  and  C_18
REMARK    4  A    between atoms: N_6  and  C_8
REMARK    5  A    between atoms: C_12  and  N_14
REMARK                            x       y       z     vdW  Elec       q    Type
REMARK                         _______ _______ _______ _____ _____    ______ ____
ROOT
ATOM      1  C   UNL     1       0.731  -0.503   1.223  0.00  0.00    +0.069 A 
ATOM      2  C   UNL     1       2.105  -0.753   1.311  0.00  0.00    +0.027 A 
ATOM      3  C   UNL     1       2.370  -1.188   2.566  0.00  0.00    +0.137 A 
ATOM      4  N   UNL     1       1.196  -1.212   3.249  0.00  0.00    -0.221 N 
ATOM      5  N   UNL     1       0.188  -0.772   2.383  0.00  0.00    -0.170 NA
ATOM      6 CL   UNL     1       3.928  -1.635   3.189  0.00  0.00    -0.062 Cl
ENDROOT
BRANCH   4   7
ATOM      7  C   UNL     1       1.026  -1.602   4.585  0.00  0.00    +0.069 A 
ATOM      8  C   UNL     1       1.806  -2.620   5.117  0.00  0.00    +0.028 A 
ATOM      9  C   UNL     1       1.635  -3.002   6.433  0.00  0.00    +0.004 A 
ATOM     10  C   UNL     1       0.689  -2.372   7.221  0.00  0.00    +0.033 A 
ATOM     11  C   UNL     1      -0.089  -1.358   6.694  0.00  0.00    +0.128 A 
ATOM     12  C   UNL     1       0.081  -0.967   5.380  0.00  0.00    +0.060 A 
BRANCH  11  13
ATOM     13  N   UNL     1      -1.101  -0.686   7.540  0.00  0.00    +0.056 N 
ATOM     14  O   UNL     1      -1.247  -1.025   8.691  0.00  0.00    -0.126 OA
ATOM     15  O   UNL     1      -1.781   0.201   7.080  0.00  0.00    -0.126 OA
ENDBRANCH  11  13
ENDBRANCH   4   7
BRANCH   1  17
ATOM     16  C   UNL     1      -0.019   1.526   0.010  0.00  0.00    +0.010 C 
ATOM     17  C   UNL     1       0.002  -0.004   0.002  0.00  0.00    +0.054 C 
ENDBRANCH   1  17
BRANCH   2  18
ATOM     18  C   UNL     1       3.111  -0.570   0.205  0.00  0.00    +0.148 C 
ATOM     19 CL   UNL     1       3.772   1.106   0.264  0.00  0.00    -0.120 Cl
ENDBRANCH   2  18
TORSDOF 4
