REMARK  Name = ZINC63383659
REMARK  11 active torsions:
REMARK  status: ('A' for Active; 'I' for Inactive)
REMARK    1  A    between atoms: C_1  and  C_2
REMARK    2  A    between atoms: C_2  and  C_3
REMARK    3  A    between atoms: C_3  and  C_5
REMARK    4  A    between atoms: C_3  and  C_6
REMARK    5  A    between atoms: C_6  and  C_8
REMARK    6  A    between atoms: C_6  and  N_16
REMARK    7  A    between atoms: N_10  and  C_11
REMARK    8  A    between atoms: C_11  and  C_13
REMARK    9  A    between atoms: C_11  and  C_14
REMARK   10  A    between atoms: C_14  and  C_15
REMARK   11  A    between atoms: C_17  and  C_19
REMARK                            x       y       z     vdW  Elec       q    Type
REMARK                         _______ _______ _______ _____ _____    ______ ____
ROOT
ATOM      1  C   UNL     1      -0.183  -2.905  -5.337  0.00  0.00    +0.167 C 
ATOM      2  C   UNL     1      -0.912  -2.149  -6.465  0.00  0.00    +0.065 C 
ATOM      3  C   UNL     1      -2.380  -2.476  -6.343  0.00  0.00    -0.034 C 
ATOM      4  C   UNL     1      -3.443  -1.682  -6.268  0.00  0.00    -0.001 A 
ATOM      5  C   UNL     1      -3.582  -0.220  -6.372  0.00  0.00    +0.010 A 
ATOM      6  C   UNL     1      -4.840   0.274  -6.226  0.00  0.00    +0.001 A 
ATOM      7  C   UNL     1      -5.960  -0.529  -5.992  0.00  0.00    +0.002 A 
ATOM      8  C   UNL     1      -5.926  -1.882  -5.892  0.00  0.00    +0.026 A 
ATOM      9  C   UNL     1      -4.659  -2.519  -6.034  0.00  0.00    +0.043 A 
ATOM     10  N   UNL     1      -4.344  -3.779  -6.003  0.00  0.00    -0.375 N 
ATOM     11  C   UNL     1      -2.908  -3.904  -6.265  0.00  0.00    +0.131 C 
ATOM     12  C   UNL     1      -2.177  -4.573  -5.096  0.00  0.00    +0.134 C 
ATOM     13  N   UNL     1      -0.734  -4.264  -5.250  0.00  0.00    -0.276 N 
ATOM     14  C   UNL     1      -0.044  -5.417  -5.308  0.00  0.00    +0.248 C 
ATOM     15  O   UNL     1       1.168  -5.500  -5.358  0.00  0.00    -0.270 OA
ATOM     16  C   UNL     1      -0.963  -6.556  -5.303  0.00  0.00    +0.042 A 
ATOM     17  C   UNL     1      -2.299  -6.060  -5.173  0.00  0.00    -0.013 A 
ATOM     18  C   UNL     1      -3.394  -6.894  -5.138  0.00  0.00    +0.006 A 
ATOM     19  C   UNL     1      -3.151  -8.261  -5.231  0.00  0.00    +0.000 A 
ATOM     20  C   UNL     1      -1.872  -8.766  -5.351  0.00  0.00    +0.001 A 
ATOM     21  C   UNL     1      -0.716  -7.929  -5.396  0.00  0.00    +0.013 A 
ATOM     22  H   UNL     1      -4.955  -4.513  -5.834  0.00  0.00    +0.160 HD
ENDROOT
BRANCH   1  24
ATOM     23  N   UNL     1       0.029  -0.916  -3.882  0.00  0.00    -0.302 N 
ATOM     24  C   UNL     1      -0.393  -2.188  -4.029  0.00  0.00    +0.235 C 
ATOM     25  O   UNL     1      -0.942  -2.755  -3.108  0.00  0.00    -0.274 OA
ATOM     26  H   UNL     1       0.468  -0.463  -4.618  0.00  0.00    +0.150 HD
BRANCH  23  27
ATOM     27  C   UNL     1      -0.176  -0.219  -2.610  0.00  0.00    +0.162 C 
BRANCH  27  28
ATOM     28  C   UNL     1      -0.209   1.268  -2.851  0.00  0.00    +0.234 C 
ATOM     29  O   UNL     1       0.282   1.729  -3.860  0.00  0.00    -0.274 OA
ATOM     30  N   UNL     1      -0.784   2.085  -1.947  0.00  0.00    -0.311 N 
ATOM     31  H   UNL     1      -1.106   1.727  -1.105  0.00  0.00    +0.149 HD
BRANCH  30  32
ATOM     32  C   UNL     1      -0.923   3.515  -2.235  0.00  0.00    +0.070 C 
ATOM     33  C   UNL     1       0.369   4.240  -1.851  0.00  0.00    +0.028 C 
BRANCH  32  34
ATOM     34  C   UNL     1      -2.089   4.087  -1.427  0.00  0.00    +0.018 C 
ATOM     35  C   UNL     1      -3.397   3.450  -1.898  0.00  0.00    +0.005 C 
ENDBRANCH  32  34
ENDBRANCH  30  32
ENDBRANCH  27  28
BRANCH  27  36
ATOM     36  C   UNL     1       0.971  -0.555  -1.654  0.00  0.00    +0.015 C 
ATOM     37  C   UNL     1       2.308  -0.262  -2.338  0.00  0.00    +0.010 C 
BRANCH  36  39
ATOM     38  C   UNL     1      -0.366  -2.302  -0.468  0.00  0.00    +0.004 C 
ATOM     39  C   UNL     1       0.904  -2.037  -1.279  0.00  0.00    +0.002 C 
ENDBRANCH  36  39
ENDBRANCH  27  36
ENDBRANCH  23  27
ENDBRANCH   1  24
TORSDOF 7
