REMARK  Name = ZINC65578682
REMARK  5 active torsions:
REMARK  status: ('A' for Active; 'I' for Inactive)
REMARK    1  A    between atoms: C_1  and  C_2
REMARK    2  A    between atoms: C_3  and  C_9
REMARK    3  A    between atoms: C_4  and  C_8
REMARK    4  A    between atoms: N_5  and  C_7
REMARK    5  A    between atoms: N_11  and  C_12
REMARK                            x       y       z     vdW  Elec       q    Type
REMARK                         _______ _______ _______ _____ _____    ______ ____
ROOT
ATOM      1  C   UNL     1      -0.006  -0.373  -2.548  0.00  0.00    +0.252 C 
ATOM      2  O   UNL     1       1.041  -0.163  -3.129  0.00  0.00    -0.270 OA
ATOM      3  N   UNL     1      -1.179  -0.184  -3.183  0.00  0.00    -0.281 N 
ATOM      4  H   UNL     1      -2.012  -0.415  -2.743  0.00  0.00    +0.155 HD
ENDROOT
BRANCH   1   7
ATOM      5  C   UNL     1      -0.031   1.490   0.022  0.00  0.00    +0.068 C 
ATOM      6  C   UNL     1      -0.004  -0.017   0.005  0.00  0.00    +0.072 A 
ATOM      7  C   UNL     1       0.008  -0.834  -1.148  0.00  0.00    +0.080 A 
ATOM      8  C   UNL     1       0.034  -2.146  -0.717  0.00  0.00    +0.048 A 
ATOM      9  N   UNL     1       0.038  -2.128   0.625  0.00  0.00    -0.271 N 
ATOM     10  N   UNL     1       0.019  -0.795   1.052  0.00  0.00    -0.176 NA
ATOM     11  C   UNL     1       0.063  -3.305   1.497  0.00  0.00    +0.172 C 
ATOM     12  C   UNL     1       0.054  -3.372  -1.593  0.00  0.00    +0.066 C 
ENDBRANCH   1   7
BRANCH   3  13
ATOM     13  C   UNL     1      -1.196   0.345  -4.478  0.00  0.00    +0.036 A 
ATOM     14  C   UNL     1      -2.222   1.195  -4.869  0.00  0.00    +0.043 A 
ATOM     15  C   UNL     1      -2.236   1.717  -6.149  0.00  0.00    +0.044 A 
ATOM     16  C   UNL     1      -1.230   1.392  -7.041  0.00  0.00    +0.040 A 
ATOM     17  C   UNL     1      -0.206   0.545  -6.654  0.00  0.00    +0.044 A 
ATOM     18  C   UNL     1      -0.184   0.025  -5.373  0.00  0.00    +0.043 A 
ATOM     19 CL   UNL     1       1.055   0.139  -7.776  0.00  0.00    -0.083 Cl
ATOM     20 CL   UNL     1      -3.518   2.780  -6.638  0.00  0.00    -0.083 Cl
ENDBRANCH   3  13
TORSDOF 2
