REMARK  Name = ZINC20696397
REMARK  6 active torsions:
REMARK  status: ('A' for Active; 'I' for Inactive)
REMARK    1  A    between atoms: C_1  and  C_2
REMARK    2  A    between atoms: C_2  and  C_3
REMARK    3  A    between atoms: C_2  and  O_4
REMARK    4  A    between atoms: O_4  and  C_5
REMARK    5  A    between atoms: C_12  and  C_21
REMARK    6  A    between atoms: C_26  and  O_27
REMARK                            x       y       z     vdW  Elec       q    Type
REMARK                         _______ _______ _______ _____ _____    ______ ____
ROOT
ATOM      1  C   UNL     1       3.390   2.785   0.068  0.00  0.00    +0.142 A 
ATOM      2  C   UNL     1       3.909   1.535   0.347  0.00  0.00    +0.047 A 
ATOM      3  C   UNL     1       3.086   0.424   0.341  0.00  0.00    +0.004 A 
ATOM      4  C   UNL     1       1.740   0.571   0.063  0.00  0.00    +0.006 A 
ATOM      5  C   UNL     1       1.211   1.816  -0.209  0.00  0.00    -0.016 A 
ATOM      6  C   UNL     1       2.030   2.946  -0.223  0.00  0.00    +0.074 A 
ATOM      7  N   UNL     1       1.583   4.231  -0.533  0.00  0.00    -0.334 N 
ATOM      8  C   UNL     1       0.135   4.398  -0.735  0.00  0.00    +0.109 C 
ATOM      9  C   UNL     1      -0.352   3.180  -1.492  0.00  0.00    +0.029 C 
ATOM     10  C   UNL     1      -0.232   2.007  -0.471  0.00  0.00    +0.049 C 
ATOM     11  C   UNL     1      -1.084   0.951  -1.071  0.00  0.00    -0.023 C 
ATOM     12  C   UNL     1      -2.033   1.534  -1.794  0.00  0.00    -0.030 C 
ATOM     13  C   UNL     1      -1.857   3.054  -1.758  0.00  0.00    +0.033 C 
ATOM     14  H   UNL     1       2.256   5.097  -0.628  0.00  0.00    +0.147 HD
ENDROOT
BRANCH   8  15
ATOM     15  C   UNL     1      -0.562   4.488   0.597  0.00  0.00    +0.015 A 
ATOM     16  C   UNL     1       0.011   3.917   1.717  0.00  0.00    +0.024 A 
ATOM     17  C   UNL     1      -0.627   4.002   2.942  0.00  0.00    +0.018 A 
ATOM     18  C   UNL     1      -1.845   4.651   3.046  0.00  0.00    +0.019 A 
ATOM     19  C   UNL     1      -2.423   5.219   1.928  0.00  0.00    +0.047 A 
ATOM     20  C   UNL     1      -1.783   5.139   0.700  0.00  0.00    +0.122 A 
ATOM     21 BR   UNL     1       0.162   3.224   4.474  0.00  0.00    -0.050 Br
BRANCH  20  22
ATOM     22  O   UNL     1      -2.351   5.696  -0.402  0.00  0.00    -0.506 OA
ATOM     23  H   UNL     1      -3.319   6.213  -0.320  0.00  0.00    +0.292 HD
ENDBRANCH  20  22
ENDBRANCH   8  15
BRANCH   1  24
ATOM     24  O   UNL     1       4.209   3.870   0.076  0.00  0.00    -0.488 OA
BRANCH  24  26
ATOM     25  C   UNL     1       6.407   4.789  -0.331  0.00  0.00    +0.051 C 
ATOM     26  C   UNL     1       5.606   3.628   0.261  0.00  0.00    +0.167 C 
ATOM     27  C   UNL     1       5.909   3.509   1.756  0.00  0.00    +0.051 C 
ENDBRANCH  24  26
ENDBRANCH   1  24
TORSDOF 4
