REMARK  Name = ZINC01769003
REMARK  3 active torsions:
REMARK  status: ('A' for Active; 'I' for Inactive)
REMARK    1  A    between atoms: C_13  and  N_47
REMARK    2  A    between atoms: N_16  and  N_19
REMARK    3  A    between atoms: C_20  and  C_21
REMARK                            x       y       z     vdW  Elec       q    Type
REMARK                         _______ _______ _______ _____ _____    ______ ____
ROOT
ATOM      1  C   UNL     1       6.047   3.039  -0.909  0.00  0.00    -0.057 C 
ATOM      2  C   UNL     1       5.174   3.579   0.228  0.00  0.00    +0.107 C 
ATOM      3  N   UNL     1       3.795   3.110   0.022  0.00  0.00    -0.259 N 
ATOM      4  C   UNL     1       3.575   1.672  -0.199  0.00  0.00    +0.107 C 
ATOM      5  C   UNL     1       4.512   1.208  -1.325  0.00  0.00    -0.057 C 
ATOM      6  N   UNL     1       5.900   1.568  -0.964  0.00  0.00    +0.389 N 
ATOM      7  H   UNL     1       6.115   1.177  -0.039  0.00  0.00    -0.080 HD
ENDROOT
BRANCH   6  20
ATOM      8  C   UNL     1       5.931   1.901  -6.011  0.00  0.00    +0.001 A 
ATOM      9  C   UNL     1       6.244   2.984  -5.209  0.00  0.00    +0.000 A 
ATOM     10  C   UNL     1       6.554   2.792  -3.874  0.00  0.00    +0.003 A 
ATOM     11  C   UNL     1       6.552   1.520  -3.341  0.00  0.00    -0.049 A 
ATOM     12  C   UNL     1       6.238   0.425  -4.140  0.00  0.00    -0.016 A 
ATOM     13  C   UNL     1       5.926   0.626  -5.486  0.00  0.00    +0.009 A 
ATOM     14  C   UNL     1       6.308  -0.815  -3.328  0.00  0.00    -0.016 A 
ATOM     15  C   UNL     1       6.083  -2.151  -3.667  0.00  0.00    +0.009 A 
ATOM     16  C   UNL     1       6.216  -3.136  -2.711  0.00  0.00    +0.001 A 
ATOM     17  C   UNL     1       6.572  -2.807  -1.415  0.00  0.00    +0.000 A 
ATOM     18  C   UNL     1       6.796  -1.486  -1.072  0.00  0.00    +0.003 A 
ATOM     19  C   UNL     1       6.666  -0.494  -2.022  0.00  0.00    -0.049 A 
ATOM     20  C   UNL     1       6.841   1.003  -1.953  0.00  0.00    -0.005 C 
ENDBRANCH   6  20
BRANCH   3  21
ATOM     21  N   UNL     1       2.720   4.007   0.041  0.00  0.00    -0.192 NA
ATOM     22  C   UNL     1       1.907   4.027   1.054  0.00  0.00    +0.145 C 
BRANCH  22  23
ATOM     23  C   UNL     1       2.210   3.236   2.253  0.00  0.00    +0.032 A 
ATOM     24  C   UNL     1       1.435   3.027   3.380  0.00  0.00    +0.017 A 
ATOM     25  C   UNL     1       1.942   2.236   4.386  0.00  0.00    +0.008 A 
ATOM     26  C   UNL     1       3.176   1.689   4.242  0.00  0.00    +0.046 A 
ATOM     27  S   UNL     1       3.675   2.291   2.638  0.00  0.00    -0.096 S 
ENDBRANCH  22  23
ENDBRANCH   3  21
TORSDOF 3
