REMARK  Name = ZINC12769487
REMARK  6 active torsions:
REMARK  status: ('A' for Active; 'I' for Inactive)
REMARK    1  A    between atoms: C_1  and  N_2
REMARK    2  A    between atoms: C_3  and  C_7
REMARK    3  A    between atoms: C_7  and  C_8
REMARK    4  A    between atoms: C_7  and  C_14
REMARK    5  A    between atoms: C_7  and  O_18
REMARK    6  A    between atoms: N_12  and  C_13
REMARK                            x       y       z     vdW  Elec       q    Type
REMARK                         _______ _______ _______ _____ _____    ______ ____
ROOT
ATOM      1  C   UNL     1       9.075  -2.372  -0.070  0.00  0.00    +0.279 C 
ENDROOT
BRANCH   1   4
ATOM      2  C   UNL     1      11.207  -4.547  -0.683  0.00  0.00    +0.174 C 
ATOM      3  N   UNL     1      11.413  -3.098  -0.751  0.00  0.00    -0.249 N 
ATOM      4  C   UNL     1      10.504  -2.143  -0.490  0.00  0.00    +0.176 A 
ATOM      5  N   UNL     1      11.076  -0.979  -0.665  0.00  0.00    -0.216 NA
ATOM      6  C   UNL     1      12.345  -1.151  -1.035  0.00  0.00    +0.245 A 
ATOM      7  N   UNL     1      12.598  -2.432  -1.102  0.00  0.00    -0.158 NA
ENDBRANCH   1   4
BRANCH   1   8
ATOM      8  C   UNL     1       8.355  -1.050   0.004  0.00  0.00    +0.176 A 
ATOM      9  N   UNL     1       7.891  -0.487   1.090  0.00  0.00    -0.216 NA
ATOM     10  C   UNL     1       7.314   0.675   0.787  0.00  0.00    +0.245 A 
ATOM     11  N   UNL     1       7.403   0.869  -0.503  0.00  0.00    -0.158 NA
ATOM     12  N   UNL     1       8.083  -0.240  -1.034  0.00  0.00    -0.249 N 
ATOM     13  C   UNL     1       8.424  -0.470  -2.440  0.00  0.00    +0.174 C 
ENDBRANCH   1   8
BRANCH   1  14
ATOM     14  C   UNL     1       9.049  -3.044   1.304  0.00  0.00    +0.433 C 
ATOM     15  F   UNL     1       9.683  -2.220   2.239  0.00  0.00    -0.167 F 
ATOM     16  F   UNL     1       7.722  -3.257   1.694  0.00  0.00    -0.167 F 
ATOM     17  F   UNL     1       9.717  -4.271   1.235  0.00  0.00    -0.167 F 
ENDBRANCH   1  14
BRANCH   1  18
ATOM     18  O   UNL     1       8.427  -3.214  -1.025  0.00  0.00    -0.367 OA
ATOM     19  H   UNL     1       8.481  -2.892  -1.935  0.00  0.00    +0.212 HD
ENDBRANCH   1  18
TORSDOF 4
