REMARK  Name = ZINC66274794
REMARK  7 active torsions:
REMARK  status: ('A' for Active; 'I' for Inactive)
REMARK    1  A    between atoms: C_1  and  C_2
REMARK    2  A    between atoms: N_11  and  N_12
REMARK    3  A    between atoms: C_13  and  C_15
REMARK    4  A    between atoms: C_15  and  C_16
REMARK    5  A    between atoms: C_16  and  C_18
REMARK    6  A    between atoms: C_16  and  N_19
REMARK    7  A    between atoms: C_20  and  C_22
REMARK                            x       y       z     vdW  Elec       q    Type
REMARK                         _______ _______ _______ _____ _____    ______ ____
ROOT
ATOM      1  N   UNL     1       0.024   0.043   2.383  0.00  0.00    -0.219 N 
ATOM      2  C   UNL     1      -1.098   0.115   3.126  0.00  0.00    +0.233 C 
ATOM      3  O   UNL     1      -2.108  -0.444   2.756  0.00  0.00    -0.274 OA
ATOM      4  H   UNL     1       0.832   0.490   2.679  0.00  0.00    +0.176 HD
ENDROOT
BRANCH   1  15
ATOM      5  C   UNL     1      -0.018   1.503   0.010  0.00  0.00    +0.088 C 
ATOM      6  C   UNL     1       0.002  -0.004   0.002  0.00  0.00    +0.129 A 
ATOM      7  N   UNL     1       0.005  -0.639  -1.139  0.00  0.00    -0.225 NA
ATOM      8  C   UNL     1       0.024  -1.968  -1.183  0.00  0.00    +0.115 A 
ATOM      9  C   UNL     1       0.040  -2.751  -0.015  0.00  0.00    +0.074 A 
ATOM     10  C   UNL     1       0.059  -4.185  -0.238  0.00  0.00    +0.023 A 
ATOM     11  C   UNL     1       0.059  -4.653  -1.496  0.00  0.00    +0.048 A 
ATOM     12  S   UNL     1       0.034  -3.171  -2.487  0.00  0.00    -0.077 S 
ATOM     13  C   UNL     1       0.036  -2.023   1.219  0.00  0.00    +0.279 A 
ATOM     14  O   UNL     1       0.050  -2.612   2.286  0.00  0.00    -0.265 OA
ATOM     15  N   UNL     1       0.022  -0.677   1.181  0.00  0.00    -0.210 N 
ENDBRANCH   1  15
BRANCH   2  16
ATOM     16  C   UNL     1      -1.097   0.890   4.419  0.00  0.00    +0.119 C 
BRANCH  16  17
ATOM     17  C   UNL     1      -2.483   0.812   5.061  0.00  0.00    +0.079 C 
ATOM     18  C   UNL     1      -2.450   1.492   6.431  0.00  0.00    +0.028 C 
BRANCH  17  19
ATOM     19  N   UNL     1      -3.458   1.491   4.203  0.00  0.00    -0.312 N 
ATOM     20  C   UNL     1      -4.760   1.150   4.261  0.00  0.00    +0.216 C 
ATOM     21  O   UNL     1      -5.126   0.280   5.024  0.00  0.00    -0.276 OA
ATOM     22  H   UNL     1      -3.165   2.187   3.593  0.00  0.00    +0.149 HD
BRANCH  20  23
ATOM     23  C   UNL     1      -5.762   1.848   3.379  0.00  0.00    +0.075 C 
ATOM     24  C   UNL     1      -5.759   3.346   3.689  0.00  0.00    +0.013 C 
ATOM     25  C   UNL     1      -6.776   4.055   2.793  0.00  0.00    +0.001 C 
ATOM     26  C   UNL     1      -8.171   3.484   3.054  0.00  0.00    +0.000 C 
ATOM     27  C   UNL     1      -8.175   1.986   2.744  0.00  0.00    +0.001 C 
ATOM     28  C   UNL     1      -7.157   1.276   3.639  0.00  0.00    +0.013 C 
ENDBRANCH  20  23
ENDBRANCH  17  19
ENDBRANCH  16  17
ENDBRANCH   2  16
TORSDOF 5
