REMARK  Name = ZINC14643057
REMARK  11 active torsions:
REMARK  status: ('A' for Active; 'I' for Inactive)
REMARK    1  A    between atoms: C_1  and  C_2
REMARK    2  A    between atoms: C_2  and  C_3
REMARK    3  A    between atoms: N_5  and  C_6
REMARK    4  A    between atoms: C_9  and  C_12
REMARK    5  A    between atoms: N_14  and  N_15
REMARK    6  A    between atoms: C_16  and  C_18
REMARK    7  A    between atoms: C_18  and  C_20
REMARK    8  A    between atoms: C_18  and  O_21
REMARK    9  A    between atoms: O_21  and  C_22
REMARK   10  A    between atoms: C_23  and  C_30
REMARK   11  A    between atoms: C_27  and  C_28
REMARK                            x       y       z     vdW  Elec       q    Type
REMARK                         _______ _______ _______ _____ _____    ______ ____
ROOT
ATOM      1  C   UNL     1      -1.336   0.176  -0.610  0.00  0.00    +0.260 C 
ATOM      2  O   UNL     1      -1.540   1.371  -0.516  0.00  0.00    -0.269 OA
ATOM      3  N   UNL     1      -0.090  -0.309  -0.448  0.00  0.00    -0.230 N 
ATOM      4  H   UNL     1       0.073  -1.262  -0.523  0.00  0.00    +0.173 HD
ENDROOT
BRANCH   1   8
ATOM      5  C   UNL     1      -4.552  -2.467  -1.449  0.00  0.00    +0.033 A 
ATOM      6  C   UNL     1      -4.787  -1.100  -1.343  0.00  0.00    +0.024 A 
ATOM      7  C   UNL     1      -3.747  -0.241  -1.071  0.00  0.00    +0.015 A 
ATOM      8  C   UNL     1      -2.454  -0.742  -0.902  0.00  0.00    +0.038 A 
ATOM      9  C   UNL     1      -2.220  -2.115  -1.016  0.00  0.00    +0.015 A 
ATOM     10  C   UNL     1      -3.266  -2.970  -1.282  0.00  0.00    +0.024 A 
BRANCH   5  13
ATOM     11  C   UNL     1      -6.831  -3.094  -1.211  0.00  0.00    +0.217 C 
ATOM     12  O   UNL     1      -7.033  -2.079  -0.578  0.00  0.00    -0.275 OA
ATOM     13  N   UNL     1      -5.608  -3.336  -1.724  0.00  0.00    -0.286 N 
ATOM     14  H   UNL     1      -5.463  -4.114  -2.286  0.00  0.00    +0.155 HD
BRANCH  11  16
ATOM     15  C   UNL     1      -9.218  -3.574  -0.743  0.00  0.00    +0.013 C 
ATOM     16  C   UNL     1      -7.946  -4.085  -1.423  0.00  0.00    +0.093 C 
ENDBRANCH  11  16
ENDBRANCH   5  13
ENDBRANCH   1   8
BRANCH   3  17
ATOM     17  N   UNL     1       0.972   0.564  -0.176  0.00  0.00    -0.231 N 
ATOM     18  C   UNL     1       2.220   0.079  -0.019  0.00  0.00    +0.270 C 
ATOM     19  O   UNL     1       2.424  -1.113  -0.113  0.00  0.00    -0.270 OA
ATOM     20  H   UNL     1       0.809   1.517  -0.102  0.00  0.00    +0.173 HD
BRANCH  18  21
ATOM     21  C   UNL     1       3.362   1.018   0.272  0.00  0.00    +0.257 C 
ATOM     22  C   UNL     1       3.578   1.945  -0.925  0.00  0.00    +0.062 C 
BRANCH  21  23
ATOM     23  O   UNL     1       4.551   0.262   0.510  0.00  0.00    -0.479 OA
BRANCH  23  24
ATOM     24  C   UNL     1       5.416   0.748   1.439  0.00  0.00    +0.127 A 
ATOM     25  C   UNL     1       6.497   1.522   1.044  0.00  0.00    -0.007 A 
ATOM     26  C   UNL     1       7.372   2.020   1.990  0.00  0.00    +0.022 A 
ATOM     27  C   UNL     1       7.176   1.737   3.331  0.00  0.00    +0.019 A 
ATOM     28  C   UNL     1       6.102   0.961   3.726  0.00  0.00    +0.022 A 
ATOM     29  C   UNL     1       5.222   0.466   2.784  0.00  0.00    -0.007 A 
ATOM     30  C   UNL     1       4.051  -0.380   3.215  0.00  0.00    +0.047 C 
ATOM     31 BR   UNL     1       8.379   2.413   4.623  0.00  0.00    -0.050 Br
ATOM     32  C   UNL     1       6.714   1.825  -0.416  0.00  0.00    +0.047 C 
ENDBRANCH  23  24
ENDBRANCH  21  23
ENDBRANCH  18  21
ENDBRANCH   3  17
TORSDOF 7
