REMARK  Name = ZINC16504260
REMARK  12 active torsions:
REMARK  status: ('A' for Active; 'I' for Inactive)
REMARK    1  A    between atoms: C_1  and  C_2
REMARK    2  A    between atoms: C_5  and  C_11
REMARK    3  A    between atoms: C_7  and  N_8
REMARK    4  A    between atoms: N_13  and  C_14
REMARK    5  A    between atoms: N_13  and  C_17
REMARK    6  A    between atoms: C_14  and  C_15
REMARK    7  A    between atoms: C_17  and  C_18
REMARK    8  A    between atoms: C_28  and  C_30
REMARK    9  A    between atoms: C_33  and  C_36
REMARK   10  A    between atoms: C_36  and  C_37
REMARK   11  A    between atoms: C_36  and  C_38
REMARK   12  A    between atoms: C_36  and  C_39
REMARK                            x       y       z     vdW  Elec       q    Type
REMARK                         _______ _______ _______ _____ _____    ______ ____
ROOT
ATOM      1  C   UNL     1       3.545   3.280  -2.247  0.00  0.00    +0.234 C 
ATOM      2  O   UNL     1       2.614   3.966  -1.880  0.00  0.00    -0.274 OA
ATOM      3  N   UNL     1       4.178   2.477  -1.369  0.00  0.00    -0.289 N 
ATOM      4  C   UNL     1       5.368   1.716  -1.777  0.00  0.00    +0.114 C 
ATOM      5  C   UNL     1       6.571   2.235  -0.974  0.00  0.00    +0.062 C 
ATOM      6  C   UNL     1       6.152   2.421   0.448  0.00  0.00    -0.003 A 
ATOM      7  C   UNL     1       4.887   2.482   0.948  0.00  0.00    -0.012 A 
ATOM      8  C   UNL     1       4.766   2.669   2.323  0.00  0.00    +0.013 A 
ATOM      9  C   UNL     1       5.873   2.773   3.092  0.00  0.00    +0.046 A 
ATOM     10  S   UNL     1       7.178   2.612   1.882  0.00  0.00    -0.101 S 
ATOM     11  C   UNL     1       3.688   2.349   0.011  0.00  0.00    +0.137 C 
ENDROOT
BRANCH  11  12
ATOM     12  C   UNL     1       2.690   3.440   0.301  0.00  0.00    -0.023 A 
ATOM     13  C   UNL     1       3.102   4.759   0.350  0.00  0.00    +0.006 A 
ATOM     14  C   UNL     1       2.188   5.760   0.621  0.00  0.00    +0.004 A 
ATOM     15  C   UNL     1       0.859   5.442   0.835  0.00  0.00    -0.042 A 
ATOM     16  C   UNL     1       0.447   4.124   0.785  0.00  0.00    +0.004 A 
ATOM     17  C   UNL     1       1.362   3.123   0.518  0.00  0.00    +0.006 A 
BRANCH  15  18
ATOM     18  C   UNL     1      -0.138   6.534   1.126  0.00  0.00    -0.013 C 
ATOM     19  C   UNL     1      -0.772   6.293   2.497  0.00  0.00    +0.015 C 
ATOM     20  C   UNL     1       0.573   7.889   1.123  0.00  0.00    +0.015 C 
ATOM     21  C   UNL     1      -1.228   6.528   0.052  0.00  0.00    +0.015 C 
ENDBRANCH  15  18
ENDBRANCH  11  12
BRANCH   1  22
ATOM     22  C   UNL     1       3.994   3.326  -3.684  0.00  0.00    +0.204 C 
BRANCH  22  25
ATOM     23  C   UNL     1       2.240   3.806  -5.307  0.00  0.00    +0.247 C 
ATOM     24  O   UNL     1       1.587   4.587  -5.971  0.00  0.00    -0.270 OA
ATOM     25  N   UNL     1       3.153   4.267  -4.429  0.00  0.00    -0.285 N 
BRANCH  23  30
ATOM     26  C   UNL     1       1.437  -1.860  -5.913  0.00  0.00    +0.046 C 
ATOM     27  C   UNL     1       1.647  -0.376  -5.754  0.00  0.00    -0.020 A 
ATOM     28  C   UNL     1       2.105   0.130  -4.550  0.00  0.00    +0.006 A 
ATOM     29  C   UNL     1       2.304   1.487  -4.400  0.00  0.00    +0.013 A 
ATOM     30  C   UNL     1       2.033   2.351  -5.462  0.00  0.00    +0.039 A 
ATOM     31  C   UNL     1       1.572   1.834  -6.674  0.00  0.00    +0.046 A 
ATOM     32  C   UNL     1       1.381   0.474  -6.812  0.00  0.00    +0.130 A 
BRANCH  32  33
ATOM     33  N   UNL     1       0.891  -0.075  -8.096  0.00  0.00    +0.057 N 
ATOM     34  O   UNL     1       0.684   0.669  -9.038  0.00  0.00    -0.126 OA
ATOM     35  O   UNL     1       0.694  -1.272  -8.211  0.00  0.00    -0.126 OA
ENDBRANCH  32  33
ENDBRANCH  23  30
BRANCH  25  36
ATOM     36  C   UNL     1       3.305   5.709  -4.219  0.00  0.00    +0.135 C 
BRANCH  36  37
ATOM     37  C   UNL     1       4.411   6.231  -5.099  0.00  0.00    -0.016 C 
ATOM     38  C   UNL     1       4.174   7.210  -5.937  0.00  0.00    +0.005 C 
ENDBRANCH  36  37
ENDBRANCH  25  36
ENDBRANCH  22  25
ENDBRANCH   1  22
TORSDOF 8
