REMARK  Name = ZINC09001700
REMARK  3 active torsions:
REMARK  status: ('A' for Active; 'I' for Inactive)
REMARK    1  A    between atoms: C_1  and  C_2
REMARK    2  A    between atoms: C_4  and  C_8
REMARK    3  A    between atoms: N_6  and  C_7
REMARK                            x       y       z     vdW  Elec       q    Type
REMARK                         _______ _______ _______ _____ _____    ______ ____
ROOT
ATOM      1  C   UNL     1      -3.606   2.565   3.008  0.00  0.00    +0.270 C 
ATOM      2  O   UNL     1      -3.751   2.935   4.157  0.00  0.00    -0.268 OA
ATOM      3  N   UNL     1      -4.670   2.488   2.186  0.00  0.00    -0.259 N 
ATOM      4  C   UNL     1      -5.934   2.831   2.651  0.00  0.00    +0.165 A 
ATOM      5  N   UNL     1      -6.291   3.243   3.850  0.00  0.00    -0.229 NA
ATOM      6  C   UNL     1      -7.552   3.542   4.150  0.00  0.00    +0.054 A 
ATOM      7  C   UNL     1      -8.456   3.384   3.149  0.00  0.00    +0.014 A 
ATOM      8  S   UNL     1      -7.451   2.818   1.803  0.00  0.00    -0.057 S 
ATOM      9  C   UNL     1      -9.926   3.632   3.195  0.00  0.00    +0.044 C 
ATOM     10  C   UNL     1     -10.347   3.753   4.669  0.00  0.00    +0.006 C 
ATOM     11  C   UNL     1      -9.373   4.694   5.383  0.00  0.00    +0.006 C 
ATOM     12  C   UNL     1      -8.003   4.028   5.523  0.00  0.00    +0.056 C 
ATOM     13  H   UNL     1      -4.555   2.193   1.269  0.00  0.00    +0.157 HD
ENDROOT
BRANCH   1  17
ATOM     14  C   UNL     1       1.374   1.674   2.697  0.00  0.00    +0.065 C 
ATOM     15  C   UNL     1      -0.095   1.817   2.393  0.00  0.00    +0.037 A 
ATOM     16  C   UNL     1      -1.056   2.230   3.253  0.00  0.00    +0.057 A 
ATOM     17  C   UNL     1      -2.263   2.201   2.514  0.00  0.00    +0.148 A 
ATOM     18  N   UNL     1      -1.959   1.791   1.298  0.00  0.00    -0.167 NA
ATOM     19  N   UNL     1      -0.698   1.558   1.213  0.00  0.00    -0.271 N 
ATOM     20  C   UNL     1      -0.013   1.086   0.008  0.00  0.00    +0.172 C 
ENDBRANCH   1  17
TORSDOF 1
