REMARK  Name = ZINC09835227
REMARK  3 active torsions:
REMARK  status: ('A' for Active; 'I' for Inactive)
REMARK    1  A    between atoms: C_1  and  C_2
REMARK    2  A    between atoms: C_5  and  C_7
REMARK    3  A    between atoms: C_7  and  N_8
REMARK                            x       y       z     vdW  Elec       q    Type
REMARK                         _______ _______ _______ _____ _____    ______ ____
ROOT
ATOM      1  N   UNL     1       0.707   3.079   0.011  0.00  0.00    -0.215 N 
ATOM      2  C   UNL     1      -0.634   3.231   0.024  0.00  0.00    +0.247 C 
ATOM      3  O   UNL     1      -1.255   4.272   0.035  0.00  0.00    -0.273 OA
ATOM      4  C   UNL     1      -1.199   1.829   0.017  0.00  0.00    +0.113 C 
ATOM      5  C   UNL     1      -2.026   1.585   1.274  0.00  0.00    +0.035 C 
ATOM      6  C   UNL     1      -2.558   0.149   1.265  0.00  0.00    +0.003 C 
ATOM      7  C   UNL     1      -3.417  -0.067   0.017  0.00  0.00    +0.000 C 
ATOM      8  C   UNL     1      -2.569   0.161  -1.235  0.00  0.00    +0.003 C 
ATOM      9  C   UNL     1      -2.038   1.597  -1.235  0.00  0.00    +0.035 C 
ATOM     10  N   UNL     1      -0.011   0.966   0.007  0.00  0.00    -0.285 N 
ATOM     11  C   UNL     1       1.056   1.787   0.002  0.00  0.00    +0.310 C 
ATOM     12  O   UNL     1       2.208   1.399  -0.011  0.00  0.00    -0.252 OA
ATOM     13  H   UNL     1       0.002  -0.004   0.002  0.00  0.00    +0.151 HD
ENDROOT
BRANCH   1  14
ATOM     14  C   UNL     1       1.661   4.191   0.007  0.00  0.00    +0.215 C 
BRANCH  14  19
ATOM     15  C   UNL     1       3.776   4.476  -4.553  0.00  0.00    +0.111 C 
ATOM     16  C   UNL     1       2.879   4.700  -3.363  0.00  0.00    +0.214 A 
ATOM     17  N   UNL     1       1.880   5.533  -3.297  0.00  0.00    -0.113 NA
ATOM     18  N   UNL     1       1.336   5.456  -2.134  0.00  0.00    -0.111 NA
ATOM     19  C   UNL     1       1.975   4.578  -1.415  0.00  0.00    +0.235 A 
ATOM     20  O   UNL     1       2.963   4.077  -2.176  0.00  0.00    -0.423 OA
ENDBRANCH  14  19
ENDBRANCH   1  14
TORSDOF 2
