REMARK  Name = ZINC18249707
REMARK  5 active torsions:
REMARK  status: ('A' for Active; 'I' for Inactive)
REMARK    1  A    between atoms: C_3  and  C_9
REMARK    2  A    between atoms: C_9  and  C_10
REMARK    3  A    between atoms: N_12  and  O_13
REMARK    4  A    between atoms: O_13  and  C_14
REMARK    5  A    between atoms: C_14  and  C_16
REMARK                            x       y       z     vdW  Elec       q    Type
REMARK                         _______ _______ _______ _____ _____    ______ ____
ROOT
ATOM      1  C   UNL     1       4.243   2.224   1.371  0.00  0.00    +0.114 C 
ATOM      2  N   UNL     1       3.925   3.188   2.175  0.00  0.00    -0.386 N 
ATOM      3  N   UNL     1       5.096   1.244   1.786  0.00  0.00    -0.205 N 
ATOM      4  H   UNL     1       4.293   3.213   3.072  0.00  0.00    +0.157 HD
ATOM      5  H   UNL     1       5.334   0.521   1.183  0.00  0.00    +0.209 HD
ATOM      6  H   UNL     1       3.318   3.885   1.881  0.00  0.00    +0.157 HD
ENDROOT
BRANCH   1   7
ATOM      7  C   UNL     1       3.671   2.185  -0.023  0.00  0.00    +0.111 C 
BRANCH   7  10
ATOM      8  C   UNL     1      -0.017   1.379   0.010  0.00  0.00    +0.020 A 
ATOM      9  C   UNL     1       1.171   2.087   0.002  0.00  0.00    +0.007 A 
ATOM     10  C   UNL     1       2.377   1.413  -0.013  0.00  0.00    -0.022 A 
ATOM     11  C   UNL     1       2.397   0.029  -0.021  0.00  0.00    +0.046 A 
ATOM     12  C   UNL     1       1.210  -0.679  -0.013  0.00  0.00    +0.040 A 
ATOM     13  C   UNL     1       0.002  -0.004   0.002  0.00  0.00    +0.042 A 
ATOM     14 CL   UNL     1      -1.489  -0.893   0.012  0.00  0.00    -0.083 Cl
ATOM     15 CL   UNL     1       3.913  -0.817  -0.041  0.00  0.00    -0.083 Cl
ENDBRANCH   7  10
ENDBRANCH   1   7
BRANCH   3  16
ATOM     16  O   UNL     1       5.633   1.280   3.095  0.00  0.00    -0.333 OA
BRANCH  16  17
ATOM     17  C   UNL     1       6.459   0.255   3.376  0.00  0.00    +0.399 C 
ATOM     18  O   UNL     1       6.683  -0.595   2.534  0.00  0.00    -0.239 OA
BRANCH  17  19
ATOM     19  C   UNL     1       7.089   0.163   4.695  0.00  0.00    +0.215 A 
ATOM     20  C   UNL     1       7.948  -0.817   5.108  0.00  0.00    +0.058 A 
ATOM     21  C   UNL     1       8.302  -0.511   6.431  0.00  0.00    +0.058 A 
ATOM     22  C   UNL     1       7.653   0.628   6.764  0.00  0.00    +0.171 A 
ATOM     23  O   UNL     1       6.928   1.034   5.714  0.00  0.00    -0.442 OA
ATOM     24 BR   UNL     1       7.758   1.506   8.436  0.00  0.00    -0.008 Br
ENDBRANCH  17  19
ENDBRANCH  16  17
ENDBRANCH   3  16
TORSDOF 5
