REMARK  Name = ZINC00974312
REMARK  9 active torsions:
REMARK  status: ('A' for Active; 'I' for Inactive)
REMARK    1  A    between atoms: C_1  and  C_2
REMARK    2  A    between atoms: C_4  and  N_19
REMARK    3  A    between atoms: C_5  and  C_18
REMARK    4  A    between atoms: C_6  and  S_9
REMARK    5  A    between atoms: C_7  and  O_8
REMARK    6  A    between atoms: S_9  and  C_12
REMARK    7  A    between atoms: C_20  and  C_22
REMARK    8  A    between atoms: C_25  and  O_28
REMARK    9  A    between atoms: O_28  and  C_29
REMARK                            x       y       z     vdW  Elec       q    Type
REMARK                         _______ _______ _______ _____ _____    ______ ____
ROOT
ATOM      1  C   UNL     1       1.144   1.547  -2.525  0.00  0.00    +0.047 C 
ATOM      2  C   UNL     1       1.837   1.850  -1.222  0.00  0.00    -0.005 A 
ATOM      3  C   UNL     1       3.095   2.422  -1.226  0.00  0.00    +0.030 A 
ATOM      4  C   UNL     1       3.733   2.702  -0.025  0.00  0.00    +0.039 A 
ATOM      5  C   UNL     1       3.107   2.406   1.179  0.00  0.00    -0.000 A 
ATOM      6  C   UNL     1       1.848   1.840   1.182  0.00  0.00    +0.140 A 
ATOM      7  C   UNL     1       1.213   1.556  -0.019  0.00  0.00    +0.145 A 
ATOM      8  C   UNL     1       3.800   2.710   2.483  0.00  0.00    +0.048 C 
ENDROOT
BRANCH   4   9
ATOM      9  N   UNL     1       5.008   3.282  -0.028  0.00  0.00    -0.281 N 
ATOM     10  C   UNL     1       5.891   2.962  -0.994  0.00  0.00    +0.248 C 
ATOM     11  O   UNL     1       5.555   2.234  -1.909  0.00  0.00    -0.270 OA
ATOM     12  H   UNL     1       5.255   3.914   0.665  0.00  0.00    +0.155 HD
BRANCH  10  13
ATOM     13  C   UNL     1       7.266   3.495  -0.943  0.00  0.00    +0.037 A 
ATOM     14  C   UNL     1       7.653   4.337   0.104  0.00  0.00    +0.016 A 
ATOM     15  C   UNL     1       8.939   4.827   0.152  0.00  0.00    +0.046 A 
ATOM     16  C   UNL     1       9.848   4.497  -0.846  0.00  0.00    +0.120 A 
ATOM     17  C   UNL     1       9.466   3.665  -1.892  0.00  0.00    +0.046 A 
ATOM     18  C   UNL     1       8.184   3.165  -1.944  0.00  0.00    +0.016 A 
BRANCH  16  19
ATOM     19  O   UNL     1      11.113   4.987  -0.798  0.00  0.00    -0.495 OA
ATOM     20  C   UNL     1      11.439   5.835   0.304  0.00  0.00    +0.277 C 
ENDBRANCH  16  19
ENDBRANCH  10  13
ENDBRANCH   4   9
BRANCH   6  21
ATOM     21  S   UNL     1       1.051   1.471   2.709  0.00  0.00    +0.029 S 
ATOM     22  O   UNL     1       1.623   2.332   3.684  0.00  0.00    -0.164 OA
ATOM     23  O   UNL     1      -0.344   1.443   2.443  0.00  0.00    -0.164 OA
BRANCH  21  24
ATOM     24  C   UNL     1       1.512  -0.170   3.155  0.00  0.00    +0.094 A 
ATOM     25  C   UNL     1       0.745  -1.241   2.737  0.00  0.00    +0.027 A 
ATOM     26  C   UNL     1       1.109  -2.529   3.083  0.00  0.00    +0.002 A 
ATOM     27  C   UNL     1       2.236  -2.745   3.854  0.00  0.00    +0.000 A 
ATOM     28  C   UNL     1       3.001  -1.674   4.276  0.00  0.00    +0.002 A 
ATOM     29  C   UNL     1       2.639  -0.386   3.926  0.00  0.00    +0.027 A 
ENDBRANCH  21  24
ENDBRANCH   6  21
BRANCH   7  30
ATOM     30  O   UNL     1      -0.025   0.993  -0.015  0.00  0.00    -0.505 OA
ATOM     31  H   UNL     1      -0.018   0.026  -0.022  0.00  0.00    +0.292 HD
ENDBRANCH   7  30
TORSDOF 6
