REMARK  Name = ZINC13095257
REMARK  15 active torsions:
REMARK  status: ('A' for Active; 'I' for Inactive)
REMARK    1  A    between atoms: C_1  and  C_2
REMARK    2  A    between atoms: C_4  and  C_31
REMARK    3  A    between atoms: C_6  and  O_8
REMARK    4  A    between atoms: O_8  and  C_9
REMARK    5  A    between atoms: C_9  and  C_10
REMARK    6  A    between atoms: N_12  and  C_13
REMARK    7  A    between atoms: N_12  and  C_17
REMARK    8  A    between atoms: C_13  and  C_14
REMARK    9  A    between atoms: C_14  and  O_15
REMARK   10  A    between atoms: O_15  and  C_16
REMARK   11  A    between atoms: C_18  and  N_30
REMARK   12  A    between atoms: N_19  and  C_26
REMARK   13  A    between atoms: C_26  and  C_27
REMARK   14  A    between atoms: C_27  and  C_28
REMARK   15  A    between atoms: C_27  and  C_29
REMARK                            x       y       z     vdW  Elec       q    Type
REMARK                         _______ _______ _______ _____ _____    ______ ____
ROOT
ATOM      1  C   UNL     1      -2.091  -0.822   0.977  0.00  0.00    +0.258 C 
ATOM      2  O   UNL     1      -3.190  -1.322   0.859  0.00  0.00    -0.272 OA
ATOM      3  N   UNL     1      -1.379  -0.491  -0.120  0.00  0.00    -0.259 N 
ENDROOT
BRANCH   3   4
ATOM      4  C   UNL     1      -1.949  -0.637  -1.402  0.00  0.00    +0.140 A 
ATOM      5  C   UNL     1      -1.432  -1.547  -2.301  0.00  0.00    +0.127 A 
ATOM      6  N   UNL     1      -2.010  -1.667  -3.543  0.00  0.00    -0.280 N 
ATOM      7  C   UNL     1      -3.068  -0.905  -3.878  0.00  0.00    +0.331 A 
ATOM      8  O   UNL     1      -3.565  -1.026  -4.981  0.00  0.00    -0.246 OA
ATOM      9  N   UNL     1      -3.584  -0.012  -3.015  0.00  0.00    -0.273 N 
ATOM     10  H   UNL     1      -4.368   0.545  -3.291  0.00  0.00    +0.173 HD
ATOM     11  C   UNL     1      -3.059   0.140  -1.784  0.00  0.00    +0.277 A 
ATOM     12  O   UNL     1      -3.538   0.949  -1.008  0.00  0.00    -0.266 OA
BRANCH   5  13
ATOM     13  N   UNL     1      -0.352  -2.325  -1.959  0.00  0.00    -0.343 N 
ATOM     14  H   UNL     1       0.094  -2.189  -1.109  0.00  0.00    +0.144 HD
ATOM     15  H   UNL     1      -0.036  -3.011  -2.568  0.00  0.00    +0.144 HD
ENDBRANCH   5  13
BRANCH   6  16
ATOM     16  C   UNL     1      -1.472  -2.629  -4.508  0.00  0.00    +0.131 C 
BRANCH  16  17
ATOM     17  C   UNL     1      -2.176  -3.976  -4.331  0.00  0.00    +0.003 C 
ATOM     18  C   UNL     1      -1.704  -4.944  -5.418  0.00  0.00    +0.009 C 
ATOM     19  C   UNL     1      -1.839  -4.551  -2.954  0.00  0.00    +0.009 C 
ENDBRANCH  16  17
ENDBRANCH   6  16
ENDBRANCH   3   4
BRANCH   1  20
ATOM     20  C   UNL     1      -1.522  -0.571   2.350  0.00  0.00    +0.325 C 
BRANCH  20  21
ATOM     21  O   UNL     1      -2.457  -1.003   3.340  0.00  0.00    -0.483 OA
BRANCH  21  27
ATOM     22  C   UNL     1       0.835   0.478   6.625  0.00  0.00    +0.044 C 
ATOM     23  C   UNL     1      -0.500  -0.129   6.280  0.00  0.00    -0.047 A 
ATOM     24  C   UNL     1      -1.359  -0.526   7.288  0.00  0.00    +0.007 A 
ATOM     25  C   UNL     1      -2.586  -1.083   6.975  0.00  0.00    -0.047 A 
ATOM     26  C   UNL     1      -2.955  -1.244   5.654  0.00  0.00    +0.049 A 
ATOM     27  C   UNL     1      -2.095  -0.846   4.641  0.00  0.00    +0.122 A 
ATOM     28  C   UNL     1      -0.863  -0.293   4.957  0.00  0.00    +0.049 A 
ATOM     29  C   UNL     1      -3.520  -1.514   8.076  0.00  0.00    +0.044 C 
ENDBRANCH  21  27
ENDBRANCH  20  21
ENDBRANCH   1  20
BRANCH   3  30
ATOM     30  C   UNL     1      -0.013   0.019   0.021  0.00  0.00    +0.142 C 
BRANCH  30  31
ATOM     31  C   UNL     1      -0.034   1.549  -0.011  0.00  0.00    +0.178 C 
BRANCH  31  32
ATOM     32  O   UNL     1      -0.740   2.039   1.130  0.00  0.00    -0.381 OA
ATOM     33  C   UNL     1      -0.818   3.464   1.197  0.00  0.00    +0.194 C 
ENDBRANCH  31  32
ENDBRANCH  30  31
ENDBRANCH   3  30
TORSDOF 10
