REMARK  Name = ZINC66887618
REMARK  10 active torsions:
REMARK  status: ('A' for Active; 'I' for Inactive)
REMARK    1  A    between atoms: C_1  and  C_2
REMARK    2  A    between atoms: C_2  and  C_4
REMARK    3  A    between atoms: C_2  and  N_15
REMARK    4  A    between atoms: C_7  and  S_10
REMARK    5  A    between atoms: S_10  and  N_13
REMARK    6  A    between atoms: N_13  and  C_14
REMARK    7  A    between atoms: C_16  and  C_17
REMARK    8  A    between atoms: C_21  and  O_24
REMARK    9  A    between atoms: C_22  and  O_23
REMARK   10  A    between atoms: O_24  and  C_25
REMARK                            x       y       z     vdW  Elec       q    Type
REMARK                         _______ _______ _______ _____ _____    ______ ____
ROOT
ATOM      1  C   UNL     1      -0.021   1.534   0.032  0.00  0.00    +0.035 C 
ATOM      2  C   UNL     1      -0.000   0.005   0.009  0.00  0.00    +0.106 C 
ENDROOT
BRANCH   2   3
ATOM      3  C   UNL     1       0.702  -0.470  -1.237  0.00  0.00    -0.025 A 
ATOM      4  C   UNL     1       0.029  -0.490  -2.444  0.00  0.00    +0.007 A 
ATOM      5  C   UNL     1       0.673  -0.926  -3.587  0.00  0.00    +0.029 A 
ATOM      6  C   UNL     1       1.990  -1.340  -3.523  0.00  0.00    +0.105 A 
ATOM      7  C   UNL     1       2.664  -1.319  -2.316  0.00  0.00    +0.029 A 
ATOM      8  C   UNL     1       2.021  -0.880  -1.173  0.00  0.00    +0.007 A 
BRANCH   6   9
ATOM      9  S   UNL     1       2.811  -1.897  -4.979  0.00  0.00    +0.058 S 
ATOM     10  O   UNL     1       3.869  -2.744  -4.551  0.00  0.00    -0.153 OA
ATOM     11  O   UNL     1       1.798  -2.335  -5.874  0.00  0.00    -0.153 OA
BRANCH   9  12
ATOM     12  N   UNL     1       3.519  -0.573  -5.678  0.00  0.00    -0.193 NA
ATOM     13  C   UNL     1       4.597   0.134  -4.983  0.00  0.00    +0.127 C 
ATOM     14  H   UNL     1       3.220  -0.265  -6.548  0.00  0.00    +0.148 HD
ENDBRANCH   9  12
ENDBRANCH   6   9
ENDBRANCH   2   3
BRANCH   2  15
ATOM     15  N   UNL     1      -1.375  -0.502   0.018  0.00  0.00    -0.383 N 
ATOM     16  C   UNL     1      -1.776  -1.266   0.983  0.00  0.00    +0.090 C 
ATOM     17  H   UNL     1      -1.984  -0.266  -0.699  0.00  0.00    +0.160 HD
BRANCH  16  18
ATOM     18  C   UNL     1      -3.187  -1.686   1.052  0.00  0.00    +0.036 A 
ATOM     19  C   UNL     1      -3.651  -2.413   2.152  0.00  0.00    +0.013 A 
ATOM     20  C   UNL     1      -4.971  -2.804   2.213  0.00  0.00    +0.004 A 
ATOM     21  C   UNL     1      -5.845  -2.479   1.188  0.00  0.00    +0.049 A 
ATOM     22  C   UNL     1      -5.400  -1.759   0.092  0.00  0.00    +0.162 A 
ATOM     23  C   UNL     1      -4.072  -1.353   0.019  0.00  0.00    +0.167 A 
BRANCH  23  24
ATOM     24  O   UNL     1      -3.634  -0.642  -1.052  0.00  0.00    -0.503 OA
ATOM     25  H   UNL     1      -3.303  -1.188  -1.778  0.00  0.00    +0.292 HD
ENDBRANCH  23  24
BRANCH  22  26
ATOM     26  O   UNL     1      -6.264  -1.444  -0.910  0.00  0.00    -0.491 OA
ATOM     27  C   UNL     1      -7.614  -1.889  -0.766  0.00  0.00    +0.277 C 
ENDBRANCH  22  26
ENDBRANCH  16  18
ENDBRANCH   2  15
TORSDOF 7
