REMARK  Name = ZINC39671432
REMARK  6 active torsions:
REMARK  status: ('A' for Active; 'I' for Inactive)
REMARK    1  A    between atoms: C_6  and  C_11
REMARK    2  A    between atoms: C_11  and  N_12
REMARK    3  A    between atoms: C_13  and  C_15
REMARK    4  A    between atoms: C_26  and  C_28
REMARK    5  A    between atoms: C_31  and  O_34
REMARK    6  A    between atoms: O_34  and  C_35
REMARK                            x       y       z     vdW  Elec       q    Type
REMARK                         _______ _______ _______ _____ _____    ______ ____
ROOT
ATOM      1  C   UNL     1      -8.312  -0.390   2.692  0.00  0.00    +0.100 C 
ATOM      2  C   UNL     1      -7.858  -1.589   3.554  0.00  0.00    +0.121 C 
ATOM      3  N   UNL     1      -9.033  -1.909   4.399  0.00  0.00    -0.296 N 
ATOM      4  C   UNL     1     -10.195  -1.733   3.496  0.00  0.00    +0.115 C 
ATOM      5  C   UNL     1      -9.847  -0.488   2.656  0.00  0.00    -0.004 C 
ATOM      6  C   UNL     1     -10.330  -0.669   1.220  0.00  0.00    -0.010 C 
ATOM      7  C   UNL     1     -11.861  -0.705   1.203  0.00  0.00    -0.082 C 
ATOM      8  N   UNL     1     -12.389   0.544   1.765  0.00  0.00    +0.379 N 
ATOM      9  C   UNL     1     -11.996   0.665   3.174  0.00  0.00    -0.082 C 
ATOM     10  C   UNL     1     -10.471   0.759   3.275  0.00  0.00    -0.010 C 
ATOM     11  C   UNL     1      -9.042  -2.277   5.696  0.00  0.00    +0.247 C 
ATOM     12  O   UNL     1      -8.013  -2.253   6.342  0.00  0.00    -0.270 OA
ATOM     13  H   UNL     1     -12.019   1.327   1.246  0.00  0.00    -0.086 HD
ATOM     14  H   UNL     1     -13.395   0.544   1.697  0.00  0.00    -0.086 HD
ENDROOT
BRANCH  11  15
ATOM     15  C   UNL     1     -10.303  -2.708   6.332  0.00  0.00    +0.037 A 
ATOM     16  C   UNL     1     -11.368  -3.154   5.544  0.00  0.00    +0.016 A 
ATOM     17  C   UNL     1     -12.542  -3.555   6.141  0.00  0.00    +0.047 A 
ATOM     18  C   UNL     1     -12.669  -3.517   7.525  0.00  0.00    +0.130 A 
ATOM     19  C   UNL     1     -11.612  -3.074   8.311  0.00  0.00    +0.047 A 
ATOM     20  C   UNL     1     -10.433  -2.676   7.722  0.00  0.00    +0.016 A 
BRANCH  18  21
ATOM     21  O   UNL     1     -13.828  -3.913   8.109  0.00  0.00    -0.406 OA
BRANCH  21  22
ATOM     22  C   UNL     1     -13.891  -3.848   9.535  0.00  0.00    +0.575 C 
ATOM     23  F   UNL     1     -13.692  -2.527   9.951  0.00  0.00    -0.133 F 
ATOM     24  F   UNL     1     -15.146  -4.289   9.967  0.00  0.00    -0.133 F 
ATOM     25  F   UNL     1     -12.895  -4.664  10.084  0.00  0.00    -0.133 F 
ENDBRANCH  21  22
ENDBRANCH  18  21
ENDBRANCH  11  15
BRANCH   1  27
ATOM     26  N   UNL     1      -7.479   0.615   0.591  0.00  0.00    -0.309 N 
ATOM     27  C   UNL     1      -7.746  -0.500   1.300  0.00  0.00    +0.219 C 
ATOM     28  O   UNL     1      -7.531  -1.592   0.818  0.00  0.00    -0.275 OA
ATOM     29  H   UNL     1      -7.651   1.488   0.977  0.00  0.00    +0.149 HD
BRANCH  26  30
ATOM     30  C   UNL     1      -6.929   0.507  -0.762  0.00  0.00    +0.157 C 
BRANCH  30  36
ATOM     31  C   UNL     1      -6.610   6.026  -3.308  0.00  0.00    +0.001 A 
ATOM     32  C   UNL     1      -5.378   6.059  -2.670  0.00  0.00    +0.002 A 
ATOM     33  C   UNL     1      -4.948   4.989  -1.916  0.00  0.00    +0.026 A 
ATOM     34  C   UNL     1      -5.756   3.863  -1.790  0.00  0.00    +0.047 A 
ATOM     35  N   UNL     1      -5.616   2.665  -1.127  0.00  0.00    -0.357 N 
ATOM     36  C   UNL     1      -6.723   1.887  -1.332  0.00  0.00    +0.034 A 
ATOM     37  H   UNL     1      -4.846   2.409  -0.594  0.00  0.00    +0.166 HD
ATOM     38  C   UNL     1      -7.599   2.536  -2.115  0.00  0.00    +0.032 A 
ATOM     39  C   UNL     1      -7.004   3.835  -2.438  0.00  0.00    -0.000 A 
ATOM     40  C   UNL     1      -7.422   4.933  -3.193  0.00  0.00    +0.010 A 
ENDBRANCH  30  36
ENDBRANCH  26  30
ENDBRANCH   1  27
TORSDOF 6
