REMARK  Name = ZINC39444269
REMARK  7 active torsions:
REMARK  status: ('A' for Active; 'I' for Inactive)
REMARK    1  A    between atoms: C_1  and  C_2
REMARK    2  A    between atoms: C_9  and  N_12
REMARK    3  A    between atoms: C_13  and  C_15
REMARK    4  A    between atoms: C_15  and  S_16
REMARK    5  A    between atoms: S_16  and  C_17
REMARK    6  A    between atoms: N_23  and  C_24
REMARK    7  A    between atoms: C_24  and  C_25
REMARK                            x       y       z     vdW  Elec       q    Type
REMARK                         _______ _______ _______ _____ _____    ______ ____
ROOT
ATOM      1  C   UNL     1       2.668  -7.165   2.945  0.00  0.00    +0.173 C 
ENDROOT
BRANCH   1   3
ATOM      2  N   UNL     1       1.291  -5.596   1.619  0.00  0.00    -0.288 N 
ATOM      3  C   UNL     1       1.415  -6.358   2.724  0.00  0.00    +0.225 C 
ATOM      4  O   UNL     1       0.518  -6.394   3.539  0.00  0.00    -0.275 OA
ATOM      5  H   UNL     1       2.008  -5.567   0.967  0.00  0.00    +0.151 HD
BRANCH   2  14
ATOM      6  C   UNL     1      -0.018   1.503   0.010  0.00  0.00    +0.044 C 
ATOM      7  C   UNL     1       0.002  -0.004   0.002  0.00  0.00    -0.049 A 
ATOM      8  C   UNL     1       0.006  -0.700  -1.193  0.00  0.00    +0.005 A 
ATOM      9  C   UNL     1       0.025  -2.075  -1.215  0.00  0.00    +0.024 A 
ATOM     10  C   UNL     1       0.040  -2.822  -0.023  0.00  0.00    +0.043 A 
ATOM     11  C   UNL     1       0.035  -2.090   1.168  0.00  0.00    +0.032 A 
ATOM     12  C   UNL     1       0.023  -0.714   1.191  0.00  0.00    +0.020 A 
ATOM     13  S   UNL     1       0.057  -3.310   2.462  0.00  0.00    -0.082 S 
ATOM     14  C   UNL     1       0.072  -4.811   1.404  0.00  0.00    +0.224 C 
ATOM     15  N   UNL     1       0.059  -4.213   0.062  0.00  0.00    -0.316 N 
ATOM     16  H   UNL     1       0.062  -4.766  -0.735  0.00  0.00    +0.149 HD
ENDBRANCH   2  14
ENDBRANCH   1   3
BRANCH   1  17
ATOM     17  S   UNL     1       2.531  -8.077   4.508  0.00  0.00    -0.077 S 
BRANCH  17  18
ATOM     18  C   UNL     1       4.053  -8.959   4.621  0.00  0.00    +0.193 A 
ATOM     19  H   UNL     1       6.894  -9.921   3.760  0.00  0.00    +0.194 HD
ATOM     20  N   UNL     1       5.020  -8.918   3.751  0.00  0.00    -0.145 NA
ATOM     21  N   UNL     1       6.048  -9.756   4.206  0.00  0.00    -0.226 N 
ATOM     22  C   UNL     1       5.645 -10.289   5.378  0.00  0.00    +0.345 A 
ATOM     23  O   UNL     1       6.278 -11.067   6.070  0.00  0.00    -0.245 OA
ATOM     24  N   UNL     1       4.418  -9.800   5.647  0.00  0.00    -0.266 N 
BRANCH  24  25
ATOM     25  C   UNL     1       3.611 -10.114   6.828  0.00  0.00    +0.164 C 
BRANCH  25  26
ATOM     26  C   UNL     1       2.750 -11.318   6.543  0.00  0.00    -0.028 A 
ATOM     27  C   UNL     1       1.488 -11.152   6.003  0.00  0.00    +0.005 A 
ATOM     28  C   UNL     1       0.699 -12.257   5.740  0.00  0.00    +0.000 A 
ATOM     29  C   UNL     1       1.171 -13.526   6.018  0.00  0.00    +0.000 A 
ATOM     30  C   UNL     1       2.433 -13.691   6.558  0.00  0.00    +0.000 A 
ATOM     31  C   UNL     1       3.224 -12.587   6.816  0.00  0.00    +0.005 A 
ENDBRANCH  25  26
ENDBRANCH  24  25
ENDBRANCH  17  18
ENDBRANCH   1  17
TORSDOF 6
