REMARK  Name = ZINC37155304
REMARK  4 active torsions:
REMARK  status: ('A' for Active; 'I' for Inactive)
REMARK    1  A    between atoms: C_4  and  C_21
REMARK    2  A    between atoms: C_6  and  S_10
REMARK    3  A    between atoms: S_10  and  C_11
REMARK    4  A    between atoms: N_15  and  C_16
REMARK                            x       y       z     vdW  Elec       q    Type
REMARK                         _______ _______ _______ _____ _____    ______ ____
ROOT
ATOM      1  S   UNL     1       2.945  -1.971   1.827  0.00  0.00    -0.080 S 
ENDROOT
BRANCH   1   6
ATOM      2  C   UNL     1      -0.018   1.451   0.010  0.00  0.00    +0.000 C 
ATOM      3  C   UNL     1       1.400   2.058  -0.000  0.00  0.00    +0.001 C 
ATOM      4  C   UNL     1       1.950   2.011   1.399  0.00  0.00    +0.019 C 
ATOM      5  C   UNL     1       2.801   0.753   1.656  0.00  0.00    +0.105 C 
ATOM      6  C   UNL     1       2.183  -0.521   1.050  0.00  0.00    +0.071 C 
ATOM      7  C   UNL     1       0.693  -0.589   1.251  0.00  0.00    +0.016 C 
ATOM      8  C   UNL     1       0.002  -0.004   0.002  0.00  0.00    +0.001 C 
BRANCH   5   9
ATOM      9  C   UNL     1       2.942   0.564   3.109  0.00  0.00    +0.067 C 
ATOM     10  N   UNL     1       3.051   0.418   4.231  0.00  0.00    -0.196 NA
ENDBRANCH   5   9
ENDBRANCH   1   6
BRANCH   1  11
ATOM     11  C   UNL     1       2.262  -3.336   0.946  0.00  0.00    +0.210 A 
ATOM     12  N   UNL     1       1.403  -3.273  -0.048  0.00  0.00    -0.102 NA
ATOM     13  N   UNL     1       1.110  -4.452  -0.464  0.00  0.00    -0.022 NA
ATOM     14  N   UNL     1       1.747  -5.340   0.219  0.00  0.00    -0.043 NA
ATOM     15  N   UNL     1       2.527  -4.646   1.161  0.00  0.00    -0.217 N 
BRANCH  15  16
ATOM     16  C   UNL     1       3.431  -5.218   2.162  0.00  0.00    +0.112 C 
ATOM     17  C   UNL     1       4.498  -6.092   1.472  0.00  0.00    +0.027 C 
ATOM     18  C   UNL     1       4.704  -7.280   2.444  0.00  0.00    +0.002 C 
ATOM     19  C   UNL     1       3.269  -7.550   2.962  0.00  0.00    +0.002 C 
ATOM     20  C   UNL     1       2.649  -6.145   3.109  0.00  0.00    +0.027 C 
ENDBRANCH  15  16
ENDBRANCH   1  11
TORSDOF 4
