REMARK  Name = ZINC35513580
REMARK  4 active torsions:
REMARK  status: ('A' for Active; 'I' for Inactive)
REMARK    1  A    between atoms: C_1  and  N_2
REMARK    2  A    between atoms: C_3  and  N_11
REMARK    3  A    between atoms: N_7  and  C_10
REMARK    4  A    between atoms: C_18  and  C_20
REMARK                            x       y       z     vdW  Elec       q    Type
REMARK                         _______ _______ _______ _____ _____    ______ ____
ROOT
ATOM      1  N   UNL     1      -2.271   0.142   0.010  0.00  0.00    -0.315 N 
ATOM      2  C   UNL     1      -3.560  -0.544   0.186  0.00  0.00    +0.108 C 
ATOM      3  C   UNL     1      -4.491   0.193   1.152  0.00  0.00    +0.038 C 
ATOM      4  C   UNL     1      -3.711   0.715   2.341  0.00  0.00    +0.109 C 
ATOM      5  N   UNL     1      -3.169   2.027   1.987  0.00  0.00    -0.298 N 
ATOM      6  C   UNL     1      -1.975   2.232   1.243  0.00  0.00    +0.126 C 
ATOM      7  C   UNL     1      -2.149   1.580  -0.150  0.00  0.00    +0.125 C 
ATOM      8  C   UNL     1      -3.850   3.117   2.393  0.00  0.00    +0.245 C 
ATOM      9  O   UNL     1      -4.874   2.990   3.030  0.00  0.00    -0.273 OA
ENDROOT
BRANCH   1  12
ATOM     10  C   UNL     1      -1.324  -0.820  -2.438  0.00  0.00    +0.155 C 
ATOM     11  N   UNL     1      -0.628  -1.105  -1.180  0.00  0.00    -0.285 N 
ATOM     12  C   UNL     1      -1.127  -0.614   0.002  0.00  0.00    +0.110 A 
ATOM     13  C   UNL     1      -0.471  -0.885   1.171  0.00  0.00    +0.112 A 
ATOM     14  C   UNL     1       0.698  -1.661   1.133  0.00  0.00    +0.258 A 
ATOM     15  O   UNL     1       1.299  -1.916   2.162  0.00  0.00    -0.267 OA
ATOM     16  N   UNL     1       1.152  -2.123  -0.049  0.00  0.00    -0.264 N 
ATOM     17  C   UNL     1       0.491  -1.852  -1.190  0.00  0.00    +0.333 A 
ATOM     18  O   UNL     1       0.915  -2.283  -2.244  0.00  0.00    -0.246 OA
ATOM     19  C   UNL     1       2.372  -2.933  -0.092  0.00  0.00    +0.157 C 
ENDBRANCH   1  12
BRANCH   8  20
ATOM     20  C   UNL     1      -3.338   4.494   2.056  0.00  0.00    +0.204 C 
ATOM     21  C   UNL     1      -3.404   4.733   0.526  0.00  0.00    +0.043 C 
ATOM     22  C   UNL     1      -3.480   6.283   0.473  0.00  0.00    +0.031 C 
ATOM     23  C   UNL     1      -4.300   6.614   1.739  0.00  0.00    +0.161 C 
ATOM     24  O   UNL     1      -4.190   5.497   2.631  0.00  0.00    -0.367 OA
ENDBRANCH   8  20
TORSDOF 2
