REMARK  Name = ZINC24747812
REMARK  8 active torsions:
REMARK  status: ('A' for Active; 'I' for Inactive)
REMARK    1  A    between atoms: C_1  and  C_2
REMARK    2  A    between atoms: C_4  and  C_15
REMARK    3  A    between atoms: C_5  and  C_14
REMARK    4  A    between atoms: N_6  and  C_7
REMARK    5  A    between atoms: C_7  and  C_8
REMARK    6  A    between atoms: C_15  and  C_17
REMARK    7  A    between atoms: C_17  and  S_18
REMARK    8  A    between atoms: S_18  and  C_19
REMARK                            x       y       z     vdW  Elec       q    Type
REMARK                         _______ _______ _______ _____ _____    ______ ____
ROOT
ATOM      1  C   UNL     1       0.043  -3.379  -1.448  0.00  0.00    +0.175 C 
ATOM      2  O   UNL     1       0.060  -4.471  -0.920  0.00  0.00    -0.291 OA
ENDROOT
BRANCH   1   6
ATOM      3  C   UNL     1      -0.018   1.503   0.010  0.00  0.00    +0.063 C 
ATOM      4  C   UNL     1       0.002  -0.004   0.002  0.00  0.00    +0.017 A 
ATOM      5  C   UNL     1       0.008  -0.777  -1.097  0.00  0.00    +0.034 A 
ATOM      6  C   UNL     1       0.030  -2.167  -0.625  0.00  0.00    +0.039 A 
ATOM      7  C   UNL     1       0.035  -2.098   0.755  0.00  0.00    +0.026 A 
ATOM      8  N   UNL     1       0.023  -0.801   1.110  0.00  0.00    -0.345 N 
ATOM      9  C   UNL     1       0.056  -3.273   1.700  0.00  0.00    +0.064 C 
BRANCH   8  10
ATOM     10  C   UNL     1       0.029  -0.312   2.491  0.00  0.00    +0.153 C 
BRANCH  10  11
ATOM     11  C   UNL     1      -1.411  -0.163   2.985  0.00  0.00    +0.138 C 
ATOM     12  C   UNL     1      -1.419   0.466   4.395  0.00  0.00    +0.035 C 
ATOM     13  C   UNL     1      -2.553  -0.325   5.102  0.00  0.00    +0.031 C 
ATOM     14  C   UNL     1      -2.394  -1.719   4.445  0.00  0.00    +0.160 C 
ATOM     15  O   UNL     1      -2.028  -1.452   3.080  0.00  0.00    -0.375 OA
ENDBRANCH  10  11
ENDBRANCH   8  10
ENDBRANCH   1   6
BRANCH   1  16
ATOM     16  C   UNL     1       0.035  -3.269  -2.951  0.00  0.00    +0.157 C 
BRANCH  16  17
ATOM     17  S   UNL     1       0.056  -4.930  -3.679  0.00  0.00    -0.078 S 
BRANCH  17  18
ATOM     18  C   UNL     1       0.044  -4.635  -5.416  0.00  0.00    +0.194 A 
ATOM     19  N   UNL     1       0.030  -3.379  -5.852  0.00  0.00    -0.183 NA
ATOM     20  C   UNL     1       0.022  -3.103  -7.148  0.00  0.00    +0.285 A 
ATOM     21  O   UNL     1       0.009  -1.821  -7.582  0.00  0.00    -0.265 OA
ATOM     22  C   UNL     1       0.028  -4.172  -8.063  0.00  0.00    +0.104 A 
ATOM     23  C   UNL     1       0.022  -4.271  -9.472  0.00  0.00    +0.149 A 
ATOM     24  N   UNL     1       0.033  -5.532  -9.797  0.00  0.00    -0.180 NA
ATOM     25  N   UNL     1       0.045  -6.319  -8.638  0.00  0.00    -0.260 N 
ATOM     26  H   UNL     1       0.054  -7.288  -8.609  0.00  0.00    +0.191 HD
ATOM     27  C   UNL     1       0.042  -5.488  -7.557  0.00  0.00    +0.164 A 
ATOM     28  N   UNL     1       0.055  -5.670  -6.239  0.00  0.00    -0.202 NA
ENDBRANCH  17  18
ENDBRANCH  16  17
ENDBRANCH   1  16
TORSDOF 6
