REMARK  Name = ZINC15410168
REMARK  7 active torsions:
REMARK  status: ('A' for Active; 'I' for Inactive)
REMARK    1  A    between atoms: C_1  and  C_2
REMARK    2  A    between atoms: C_5  and  N_11
REMARK    3  A    between atoms: C_7  and  N_8
REMARK    4  A    between atoms: C_12  and  C_14
REMARK    5  A    between atoms: C_16  and  S_21
REMARK    6  A    between atoms: S_21  and  N_24
REMARK    7  A    between atoms: N_24  and  C_25
REMARK                            x       y       z     vdW  Elec       q    Type
REMARK                         _______ _______ _______ _____ _____    ______ ____
ROOT
ATOM      1  C   UNL     1      -3.726   3.854  -0.244  0.00  0.00    +0.057 A 
ATOM      2  C   UNL     1      -4.349   2.663  -0.623  0.00  0.00    +0.043 A 
ATOM      3  C   UNL     1      -5.719   2.626  -0.782  0.00  0.00    +0.111 A 
ATOM      4  C   UNL     1      -6.475   3.765  -0.568  0.00  0.00    +0.030 A 
ATOM      5  C   UNL     1      -5.866   4.948  -0.193  0.00  0.00    +0.022 A 
ATOM      6  C   UNL     1      -4.495   4.998  -0.024  0.00  0.00    +0.053 A 
ATOM      7 CL   UNL     1      -3.732   6.482   0.455  0.00  0.00    -0.083 Cl
ENDROOT
BRANCH   1   9
ATOM      8  N   UNL     1      -1.520   2.793  -0.278  0.00  0.00    -0.281 N 
ATOM      9  C   UNL     1      -2.259   3.901  -0.070  0.00  0.00    +0.250 C 
ATOM     10  O   UNL     1      -1.719   4.939   0.259  0.00  0.00    -0.270 OA
ATOM     11  H   UNL     1      -2.015   1.833  -0.489  0.00  0.00    +0.155 HD
BRANCH   8  16
ATOM     12  C   UNL     1       4.141   3.064  -0.052  0.00  0.00    +0.046 C 
ATOM     13  C   UNL     1       2.637   2.994  -0.113  0.00  0.00    -0.020 A 
ATOM     14  C   UNL     1       2.022   2.203  -1.067  0.00  0.00    +0.007 A 
ATOM     15  C   UNL     1       0.644   2.136  -1.125  0.00  0.00    +0.024 A 
ATOM     16  C   UNL     1      -0.124   2.863  -0.225  0.00  0.00    +0.036 A 
ATOM     17  C   UNL     1       0.496   3.656   0.731  0.00  0.00    +0.056 A 
ATOM     18  C   UNL     1       1.875   3.719   0.784  0.00  0.00    +0.131 A 
BRANCH  18  19
ATOM     19  N   UNL     1       2.538   4.564   1.803  0.00  0.00    +0.057 N 
ATOM     20  O   UNL     1       1.871   5.283   2.526  0.00  0.00    -0.126 OA
ATOM     21  O   UNL     1       3.750   4.542   1.918  0.00  0.00    -0.126 OA
ENDBRANCH  18  19
ENDBRANCH   8  16
ENDBRANCH   1   9
BRANCH   3  22
ATOM     22  S   UNL     1      -6.507   1.124  -1.260  0.00  0.00    +0.092 S 
ATOM     23  O   UNL     1      -7.736   1.488  -1.872  0.00  0.00    -0.148 OA
ATOM     24  O   UNL     1      -5.524   0.344  -1.927  0.00  0.00    -0.148 OA
BRANCH  22  25
ATOM     25  N   UNL     1      -6.893   0.311   0.130  0.00  0.00    -0.095 NA
BRANCH  25  26
ATOM     26  C   UNL     1      -7.748   0.897   1.069  0.00  0.00    +0.109 A 
ATOM     27  C   UNL     1      -8.745   1.769   0.653  0.00  0.00    +0.029 A 
ATOM     28  C   UNL     1      -9.591   2.343   1.582  0.00  0.00    +0.002 A 
ATOM     29  C   UNL     1      -9.440   2.058   2.926  0.00  0.00    +0.003 A 
ATOM     30  C   UNL     1      -8.446   1.194   3.346  0.00  0.00    +0.040 A 
ATOM     31  C   UNL     1      -7.598   0.612   2.422  0.00  0.00    +0.148 A 
ATOM     32  F   UNL     1      -6.626  -0.232   2.832  0.00  0.00    -0.203 F 
ENDBRANCH  25  26
ENDBRANCH  22  25
ENDBRANCH   3  22
TORSDOF 6
