REMARK  Name = ZINC38634755
REMARK  7 active torsions:
REMARK  status: ('A' for Active; 'I' for Inactive)
REMARK    1  A    between atoms: C_1  and  O_2
REMARK    2  A    between atoms: O_2  and  C_3
REMARK    3  A    between atoms: C_5  and  N_11
REMARK    4  A    between atoms: C_7  and  O_9
REMARK    5  A    between atoms: O_9  and  C_10
REMARK    6  A    between atoms: N_20  and  S_24
REMARK    7  A    between atoms: S_24  and  C_27
REMARK                            x       y       z     vdW  Elec       q    Type
REMARK                         _______ _______ _______ _____ _____    ______ ____
ROOT
ATOM      1  N   UNL     1      -2.609  -4.050   0.019  0.00  0.00    -0.269 N 
ATOM      2  C   UNL     1      -3.788  -4.694   0.125  0.00  0.00    +0.306 C 
ATOM      3  O   UNL     1      -4.828  -4.064   0.130  0.00  0.00    -0.252 OA
ATOM      4  N   UNL     1      -3.815  -6.038   0.225  0.00  0.00    -0.285 N 
ATOM      5  C   UNL     1      -2.568  -6.806   0.338  0.00  0.00    +0.113 C 
ATOM      6  C   UNL     1      -2.650  -7.701   1.578  0.00  0.00    +0.072 C 
ATOM      7  C   UNL     1      -3.915  -8.557   1.502  0.00  0.00    +0.145 C 
ATOM      8  C   UNL     1      -5.153  -7.660   1.465  0.00  0.00    +0.072 C 
ATOM      9  C   UNL     1      -5.093  -6.763   0.230  0.00  0.00    +0.113 C 
ATOM     10  N   UNL     1      -3.874  -9.394   0.293  0.00  0.00    -0.143 NA
ATOM     11  C   UNL     1      -3.889 -10.796   0.765  0.00  0.00    +0.140 C 
ATOM     12  C   UNL     1      -3.391 -10.671   2.227  0.00  0.00    +0.179 C 
ATOM     13  O   UNL     1      -3.981  -9.419   2.649  0.00  0.00    -0.356 OA
ATOM     14  H   UNL     1      -1.785  -4.556  -0.058  0.00  0.00    +0.156 HD
ENDROOT
BRANCH   1  17
ATOM     15  C   UNL     1      -1.320  -0.602   0.021  0.00  0.00    +0.125 A 
ATOM     16  C   UNL     1      -1.355  -1.988   0.020  0.00  0.00    +0.069 A 
ATOM     17  C   UNL     1      -2.574  -2.651   0.021  0.00  0.00    +0.042 A 
ATOM     18  C   UNL     1      -3.758  -1.927   0.025  0.00  0.00    +0.069 A 
ATOM     19  C   UNL     1      -3.722  -0.541   0.026  0.00  0.00    +0.125 A 
ATOM     20  C   UNL     1      -2.503   0.122   0.030  0.00  0.00    +0.091 A 
BRANCH  15  22
ATOM     21  C   UNL     1      -0.166   1.477   0.028  0.00  0.00    +0.277 C 
ATOM     22  O   UNL     1      -0.127   0.048   0.020  0.00  0.00    -0.495 OA
ENDBRANCH  15  22
BRANCH  19  23
ATOM     23  O   UNL     1      -4.881   0.169   0.029  0.00  0.00    -0.495 OA
ATOM     24  C   UNL     1      -4.769   1.593   0.030  0.00  0.00    +0.277 C 
ENDBRANCH  19  23
ENDBRANCH   1  17
BRANCH  10  25
ATOM     25  S   UNL     1      -3.823  -8.872  -1.277  0.00  0.00    +0.070 S 
ATOM     26  O   UNL     1      -4.838  -9.581  -1.974  0.00  0.00    -0.152 OA
ATOM     27  O   UNL     1      -3.779  -7.452  -1.233  0.00  0.00    -0.152 OA
BRANCH  25  28
ATOM     28  C   UNL     1      -2.284  -9.403  -1.953  0.00  0.00    +0.143 A 
ATOM     29  C   UNL     1      -2.008 -10.515  -2.677  0.00  0.00    +0.036 A 
ATOM     30  C   UNL     1      -0.713 -10.729  -3.108  0.00  0.00    +0.010 A 
ATOM     31  C   UNL     1       0.243  -9.820  -2.795  0.00  0.00    +0.047 A 
ATOM     32  S   UNL     1      -0.686  -8.611  -1.867  0.00  0.00    -0.077 S 
ENDBRANCH  25  28
ENDBRANCH  10  25
TORSDOF 5
