REMARK  Name = ZINC27695938
REMARK  13 active torsions:
REMARK  status: ('A' for Active; 'I' for Inactive)
REMARK    1  A    between atoms: C_1  and  C_2
REMARK    2  A    between atoms: C_2  and  C_4
REMARK    3  A    between atoms: C_2  and  C_16
REMARK    4  A    between atoms: C_9  and  O_14
REMARK    5  A    between atoms: O_14  and  C_15
REMARK    6  A    between atoms: N_24  and  C_25
REMARK    7  A    between atoms: C_25  and  C_26
REMARK    8  A    between atoms: C_26  and  C_28
REMARK    9  A    between atoms: C_26  and  O_38
REMARK   10  A    between atoms: C_28  and  N_29
REMARK   11  A    between atoms: N_29  and  C_30
REMARK   12  A    between atoms: N_29  and  C_31
REMARK   13  A    between atoms: C_31  and  C_32
REMARK                            x       y       z     vdW  Elec       q    Type
REMARK                         _______ _______ _______ _____ _____    ______ ____
ROOT
ATOM      1  C   UNL     1       2.879  -0.123   1.100  0.00  0.00    +0.118 A 
ATOM      2  N   UNL     1       3.412  -0.339   2.267  0.00  0.00    -0.232 NA
ATOM      3  C   UNL     1       3.076   0.667   3.115  0.00  0.00    +0.089 A 
ATOM      4  C   UNL     1       3.367   0.934   4.455  0.00  0.00    +0.030 A 
ATOM      5  C   UNL     1       2.882   2.068   5.044  0.00  0.00    +0.002 A 
ATOM      6  C   UNL     1       2.090   2.954   4.327  0.00  0.00    +0.002 A 
ATOM      7  C   UNL     1       1.786   2.708   3.005  0.00  0.00    +0.028 A 
ATOM      8  C   UNL     1       2.277   1.565   2.388  0.00  0.00    +0.069 A 
ATOM      9  N   UNL     1       2.166   1.035   1.118  0.00  0.00    -0.325 N 
ENDROOT
BRANCH   1  11
ATOM     10  C   UNL     1       4.512  -1.143  -0.463  0.00  0.00    +0.020 C 
ATOM     11  C   UNL     1       3.031  -1.024  -0.099  0.00  0.00    +0.082 C 
BRANCH  11  12
ATOM     12  C   UNL     1       2.482  -2.390   0.228  0.00  0.00    -0.037 A 
ATOM     13  C   UNL     1       3.041  -3.122   1.274  0.00  0.00    +0.005 A 
ATOM     14  C   UNL     1       2.566  -4.355   1.598  0.00  0.00    +0.009 A 
ATOM     15  C   UNL     1       1.503  -4.907   0.860  0.00  0.00    -0.014 A 
ATOM     16  C   UNL     1       0.991  -6.179   1.162  0.00  0.00    +0.054 A 
ATOM     17  C   UNL     1      -0.041  -6.684   0.424  0.00  0.00    +0.121 A 
ATOM     18  C   UNL     1      -0.596  -5.950  -0.629  0.00  0.00    +0.046 A 
ATOM     19  C   UNL     1      -0.122  -4.715  -0.946  0.00  0.00    +0.012 A 
ATOM     20  C   UNL     1       0.939  -4.165  -0.207  0.00  0.00    -0.017 A 
ATOM     21  C   UNL     1       1.453  -2.892  -0.508  0.00  0.00    +0.012 A 
BRANCH  17  22
ATOM     22  O   UNL     1      -0.536  -7.915   0.717  0.00  0.00    -0.495 OA
ATOM     23  C   UNL     1      -1.616  -8.389  -0.090  0.00  0.00    +0.277 C 
ENDBRANCH  17  22
ENDBRANCH  11  12
ENDBRANCH   1  11
BRANCH   9  24
ATOM     24  C   UNL     1       1.423   1.615  -0.003  0.00  0.00    +0.153 C 
BRANCH  24  25
ATOM     25  C   UNL     1      -0.013   1.086   0.008  0.00  0.00    +0.118 C 
BRANCH  25  26
ATOM     26  O   UNL     1      -0.682   1.547   1.184  0.00  0.00    -0.392 OA
ATOM     27  H   UNL     1      -1.729   1.266   1.366  0.00  0.00    +0.210 HD
ENDBRANCH  25  26
BRANCH  25  28
ATOM     28  C   UNL     1      -0.753   1.593  -1.232  0.00  0.00    -0.045 C 
BRANCH  28  29
ATOM     29  N   UNL     1      -2.131   1.084  -1.221  0.00  0.00    +0.382 N 
ATOM     30  C   UNL     1      -2.154  -0.377  -1.373  0.00  0.00    -0.096 C 
ATOM     31  H   UNL     1      -2.575   1.329  -0.245  0.00  0.00    -0.082 HD
BRANCH  29  32
ATOM     32  C   UNL     1      -2.940   1.735  -2.260  0.00  0.00    -0.043 C 
BRANCH  32  33
ATOM     33  C   UNL     1      -4.391   1.377  -2.065  0.00  0.00    -0.064 A 
ATOM     34  C   UNL     1      -4.917   0.260  -2.687  0.00  0.00    +0.002 A 
ATOM     35  C   UNL     1      -6.247  -0.070  -2.504  0.00  0.00    +0.000 A 
ATOM     36  C   UNL     1      -7.052   0.721  -1.707  0.00  0.00    +0.000 A 
ATOM     37  C   UNL     1      -6.527   1.841  -1.089  0.00  0.00    +0.000 A 
ATOM     38  C   UNL     1      -5.197   2.168  -1.268  0.00  0.00    +0.002 A 
ENDBRANCH  32  33
ENDBRANCH  29  32
ENDBRANCH  28  29
ENDBRANCH  25  28
ENDBRANCH  24  25
ENDBRANCH   9  24
TORSDOF 10
