REMARK  Name = ZINC38634757
REMARK  7 active torsions:
REMARK  status: ('A' for Active; 'I' for Inactive)
REMARK    1  A    between atoms: C_1  and  O_2
REMARK    2  A    between atoms: O_2  and  C_3
REMARK    3  A    between atoms: C_7  and  N_11
REMARK    4  A    between atoms: C_8  and  O_9
REMARK    5  A    between atoms: O_9  and  C_10
REMARK    6  A    between atoms: N_20  and  S_24
REMARK    7  A    between atoms: S_24  and  C_27
REMARK                            x       y       z     vdW  Elec       q    Type
REMARK                         _______ _______ _______ _____ _____    ______ ____
ROOT
ATOM      1  N   UNL     1      -2.623  -4.052   0.020  0.00  0.00    -0.266 N 
ATOM      2  C   UNL     1      -3.806  -4.691   0.125  0.00  0.00    +0.307 C 
ATOM      3  O   UNL     1      -4.842  -4.055   0.128  0.00  0.00    -0.252 OA
ATOM      4  N   UNL     1      -3.839  -6.034   0.226  0.00  0.00    -0.285 N 
ATOM      5  C   UNL     1      -2.595  -6.808   0.340  0.00  0.00    +0.113 C 
ATOM      6  C   UNL     1      -2.682  -7.702   1.581  0.00  0.00    +0.072 C 
ATOM      7  C   UNL     1      -3.951  -8.552   1.505  0.00  0.00    +0.145 C 
ATOM      8  C   UNL     1      -5.185  -7.648   1.467  0.00  0.00    +0.072 C 
ATOM      9  C   UNL     1      -5.120  -6.753   0.231  0.00  0.00    +0.113 C 
ATOM     10  N   UNL     1      -3.914  -9.389   0.297  0.00  0.00    -0.143 NA
ATOM     11  C   UNL     1      -3.936 -10.792   0.770  0.00  0.00    +0.140 C 
ATOM     12  C   UNL     1      -3.438 -10.668   2.232  0.00  0.00    +0.179 C 
ATOM     13  O   UNL     1      -4.022  -9.413   2.652  0.00  0.00    -0.356 OA
ATOM     14  H   UNL     1      -1.802  -4.562  -0.056  0.00  0.00    +0.156 HD
ENDROOT
BRANCH   1  19
ATOM     15  C   UNL     1      -1.321  -0.602   0.021  0.00  0.00    +0.163 A 
ATOM     16  C   UNL     1      -2.505   0.121   0.024  0.00  0.00    +0.049 A 
ATOM     17  C   UNL     1      -3.720  -0.538   0.025  0.00  0.00    +0.006 A 
ATOM     18  C   UNL     1      -3.761  -1.920   0.023  0.00  0.00    +0.027 A 
ATOM     19  C   UNL     1      -2.581  -2.651   0.021  0.00  0.00    +0.080 A 
ATOM     20  C   UNL     1      -1.357  -1.990   0.014  0.00  0.00    +0.183 A 
BRANCH  15  22
ATOM     21  C   UNL     1      -0.166   1.477   0.028  0.00  0.00    +0.277 C 
ATOM     22  O   UNL     1      -0.127   0.049   0.020  0.00  0.00    -0.491 OA
ENDBRANCH  15  22
BRANCH  20  23
ATOM     23  O   UNL     1      -0.197  -2.703   0.006  0.00  0.00    -0.490 OA
ATOM     24  C   UNL     1       0.360  -3.049   1.275  0.00  0.00    +0.277 C 
ENDBRANCH  20  23
ENDBRANCH   1  19
BRANCH  10  25
ATOM     25  S   UNL     1      -3.859  -8.869  -1.274  0.00  0.00    +0.070 S 
ATOM     26  O   UNL     1      -4.877  -9.574  -1.971  0.00  0.00    -0.152 OA
ATOM     27  O   UNL     1      -3.808  -7.450  -1.231  0.00  0.00    -0.152 OA
BRANCH  25  28
ATOM     28  C   UNL     1      -2.322  -9.407  -1.948  0.00  0.00    +0.143 A 
ATOM     29  C   UNL     1      -2.051 -10.521  -2.671  0.00  0.00    +0.036 A 
ATOM     30  C   UNL     1      -0.756 -10.742  -3.102  0.00  0.00    +0.010 A 
ATOM     31  C   UNL     1       0.204  -9.838  -2.788  0.00  0.00    +0.047 A 
ATOM     32  S   UNL     1      -0.721  -8.623  -1.862  0.00  0.00    -0.077 S 
ENDBRANCH  25  28
ENDBRANCH  10  25
TORSDOF 5
