REMARK  Name = ZINC35926864
REMARK  5 active torsions:
REMARK  status: ('A' for Active; 'I' for Inactive)
REMARK    1  A    between atoms: C_3  and  C_8
REMARK    2  A    between atoms: C_8  and  N_9
REMARK    3  A    between atoms: C_21  and  C_23
REMARK    4  A    between atoms: C_23  and  N_24
REMARK    5  A    between atoms: N_27  and  C_30
REMARK                            x       y       z     vdW  Elec       q    Type
REMARK                         _______ _______ _______ _____ _____    ______ ____
ROOT
ATOM      1  N   UNL     1       4.033   2.281   1.422  0.00  0.00    +0.384 N 
ATOM      2  C   UNL     1       4.237   1.085   2.250  0.00  0.00    -0.059 C 
ATOM      3  C   UNL     1       4.659   1.509   3.661  0.00  0.00    +0.089 C 
ATOM      4  N   UNL     1       5.838   2.381   3.553  0.00  0.00    -0.305 N 
ATOM      5  C   UNL     1       5.778   3.515   2.618  0.00  0.00    +0.089 C 
ATOM      6  C   UNL     1       5.304   2.998   1.256  0.00  0.00    -0.059 C 
ATOM      7  C   UNL     1       6.960   2.145   4.302  0.00  0.00    +0.198 A 
ATOM      8  N   UNL     1       7.986   3.037   4.268  0.00  0.00    -0.295 N 
ATOM      9  H   UNL     1       7.921   3.833   3.718  0.00  0.00    +0.172 HD
ATOM     10  C   UNL     1       9.095   2.810   5.004  0.00  0.00    +0.253 A 
ATOM     11  O   UNL     1      10.025   3.600   4.986  0.00  0.00    -0.268 OA
ATOM     12  C   UNL     1       9.158   1.647   5.792  0.00  0.00    +0.094 A 
ATOM     13  C   UNL     1       8.097   0.789   5.786  0.00  0.00    +0.064 A 
ATOM     14  N   UNL     1       7.024   1.059   5.047  0.00  0.00    -0.219 NA
ATOM     15  H   UNL     1       3.363   2.887   1.870  0.00  0.00    -0.081 HD
ENDROOT
BRANCH   1  16
ATOM     16  C   UNL     1       3.524   1.880   0.103  0.00  0.00    -0.043 C 
BRANCH  16  19
ATOM     17  C   UNL     1      -0.222   1.469   0.345  0.00  0.00    +0.003 A 
ATOM     18  C   UNL     1       1.028   2.042   0.202  0.00  0.00    +0.002 A 
ATOM     19  C   UNL     1       2.162   1.254   0.260  0.00  0.00    -0.061 A 
ATOM     20  C   UNL     1       2.048  -0.109   0.462  0.00  0.00    +0.040 A 
ATOM     21  C   UNL     1       0.797  -0.684   0.606  0.00  0.00    +0.124 A 
ATOM     22  C   UNL     1      -0.339   0.107   0.547  0.00  0.00    +0.038 A 
ATOM     23  F   UNL     1       0.683  -2.016   0.802  0.00  0.00    -0.205 F 
ENDBRANCH  16  19
ENDBRANCH   1  16
BRANCH  13  24
ATOM     24  C   UNL     1       8.139  -0.465   6.621  0.00  0.00    +0.140 C 
BRANCH  24  25
ATOM     25  N   UNL     1       7.107  -0.393   7.665  0.00  0.00    -0.300 NA
ATOM     26  C   UNL     1       7.408   0.675   8.629  0.00  0.00    +0.066 C 
ATOM     27  C   UNL     1       6.282   0.756   9.663  0.00  0.00    -0.063 C 
ATOM     28  N   UNL     1       6.159  -0.533  10.355  0.00  0.00    +0.383 N 
ATOM     29  C   UNL     1       5.835  -1.585   9.382  0.00  0.00    -0.063 C 
ATOM     30  C   UNL     1       6.957  -1.686   8.347  0.00  0.00    +0.066 C 
ATOM     31  H   UNL     1       7.031  -0.755  10.811  0.00  0.00    -0.081 HD
BRANCH  28  32
ATOM     32  C   UNL     1       5.090  -0.450  11.360  0.00  0.00    -0.068 C 
ATOM     33  C   UNL     1       5.428   0.644  12.374  0.00  0.00    -0.015 C 
ATOM     34  C   UNL     1       4.315   0.732  13.420  0.00  0.00    -0.002 C 
ATOM     35  C   UNL     1       4.187  -0.611  14.142  0.00  0.00    -0.000 C 
ATOM     36  C   UNL     1       3.848  -1.705  13.127  0.00  0.00    -0.002 C 
ATOM     37  C   UNL     1       4.962  -1.792  12.081  0.00  0.00    -0.015 C 
ENDBRANCH  28  32
ENDBRANCH  24  25
ENDBRANCH  13  24
TORSDOF 5
