REMARK  Name = ZINC11865552
REMARK  12 active torsions:
REMARK  status: ('A' for Active; 'I' for Inactive)
REMARK    1  A    between atoms: C_1  and  C_2
REMARK    2  A    between atoms: C_6  and  O_27
REMARK    3  A    between atoms: C_7  and  C_26
REMARK    4  A    between atoms: C_12  and  C_13
REMARK    5  A    between atoms: C_13  and  C_14
REMARK    6  A    between atoms: C_14  and  C_15
REMARK    7  A    between atoms: N_17  and  CA_18
REMARK    8  A    between atoms: CA_18  and  CB_20
REMARK    9  A    between atoms: CA_18  and  C_24
REMARK   10  A    between atoms: CB_20  and  CG_21
REMARK   11  A    between atoms: CG_21  and  CD1_22
REMARK   12  A    between atoms: CG_21  and  CD2_23
REMARK                            x       y       z     vdW  Elec       q    Type
REMARK                         _______ _______ _______ _____ _____    ______ ____
ROOT
ATOM      1  C   UNK A   0      -6.963   0.106   3.163  0.00  0.00    +0.045 C 
ATOM      2  C   UNK A   0      -6.650  -1.367   3.122  0.00  0.00    -0.030 A 
ATOM      3  C   UNK A   0      -7.717  -2.366   3.207  0.00  0.00    +0.021 A 
ATOM      4  C   UNK A   0      -9.057  -1.980   3.330  0.00  0.00    +0.015 A 
ATOM      5  C   UNK A   0     -10.032  -2.931   3.414  0.00  0.00    +0.046 A 
ATOM      6  C   UNK A   0      -9.702  -4.285   3.378  0.00  0.00    +0.123 A 
ATOM      7  C   UNK A   0      -8.381  -4.684   3.257  0.00  0.00    +0.034 A 
ATOM      8  C   UNK A   0      -7.378  -3.731   3.171  0.00  0.00    +0.146 A 
ATOM      9  O   UNK A   0      -6.085  -4.099   3.052  0.00  0.00    -0.422 OA
ATOM     10  C   UNK A   0      -5.102  -3.189   2.968  0.00  0.00    +0.341 A 
ATOM     11  O   UNK A   0      -3.949  -3.568   2.861  0.00  0.00    -0.245 OA
ATOM     12  C   UNK A   0      -5.370  -1.805   2.998  0.00  0.00    +0.041 A 
ATOM     13  C   UNK A   0      -8.036  -6.151   3.219  0.00  0.00    +0.051 C 
ENDROOT
BRANCH   6  14
ATOM     14  O   UNK A   0     -10.683  -5.219   3.463  0.00  0.00    -0.506 OA
ATOM     15  H   UNK A   0     -10.888  -5.494   4.367  0.00  0.00    +0.292 HD
ENDBRANCH   6  14
BRANCH  12  16
ATOM     16  C   UNK A   0      -4.238  -0.814   2.901  0.00  0.00    +0.052 C 
BRANCH  16  17
ATOM     17  C   UNK A   0      -3.985  -0.472   1.431  0.00  0.00    +0.100 C 
BRANCH  17  18
ATOM     18  C   UNK A   0      -2.854   0.518   1.334  0.00  0.00    +0.214 C 
ATOM     19  O   UNK A   0      -2.304   0.912   2.341  0.00  0.00    -0.276 OA
ATOM     20  N   LEU A   1      -2.453   0.967   0.128  0.00  0.00    -0.302 N 
ATOM     21  H   LEU A   1      -2.892   0.652  -0.678  0.00  0.00    +0.150 HD
BRANCH  20  22
ATOM     22  CA  LEU A   1      -1.353   1.930   0.033  0.00  0.00    +0.186 C 
BRANCH  22  23
ATOM     23  C   LEU A   1      -0.038   1.193   0.035  0.00  0.00    +0.376 C 
ATOM     24  O   LEU A   1      -0.022  -0.013   0.108  0.00  0.00    -0.244 OA
ATOM     25  OXT LEU A   1       1.114   1.876  -0.050  0.00  0.00    -0.244 OA
ENDBRANCH  22  23
BRANCH  22  26
ATOM     26  CB  LEU A   1      -1.486   2.731  -1.264  0.00  0.00    +0.037 C 
BRANCH  26  27
ATOM     27  CG  LEU A   1      -2.764   3.572  -1.215  0.00  0.00    -0.015 C 
ATOM     28  CD1 LEU A   1      -2.635   4.631  -0.118  0.00  0.00    +0.007 C 
ATOM     29  CD2 LEU A   1      -2.974   4.259  -2.566  0.00  0.00    +0.007 C 
ENDBRANCH  26  27
ENDBRANCH  22  26
ENDBRANCH  20  22
ENDBRANCH  17  18
ENDBRANCH  16  17
ENDBRANCH  12  16
TORSDOF 8
