REMARK  Name = ZINC37176583
REMARK  6 active torsions:
REMARK  status: ('A' for Active; 'I' for Inactive)
REMARK    1  A    between atoms: C_1  and  N_2
REMARK    2  A    between atoms: N_2  and  C_3
REMARK    3  A    between atoms: C_13  and  C_15
REMARK    4  A    between atoms: N_18  and  C_21
REMARK    5  A    between atoms: C_22  and  C_31
REMARK    6  A    between atoms: C_24  and  C_26
REMARK                            x       y       z     vdW  Elec       q    Type
REMARK                         _______ _______ _______ _____ _____    ______ ____
ROOT
ATOM      1  C   UNL     1      -0.259   0.078  -2.454  0.00  0.00    +0.078 C 
ATOM      2  C   UNL     1       0.975   0.963  -2.647  0.00  0.00    +0.032 C 
ATOM      3  C   UNL     1       0.833   1.753  -3.952  0.00  0.00    +0.109 C 
ATOM      4  N   UNL     1       0.589   0.810  -5.052  0.00  0.00    -0.299 N 
ATOM      5  C   UNL     1      -0.518  -0.148  -4.928  0.00  0.00    +0.109 C 
ATOM      6  C   UNL     1      -0.361  -0.917  -3.612  0.00  0.00    +0.032 C 
ENDROOT
BRANCH   4   7
ATOM      7  C   UNL     1       1.383   0.824  -6.177  0.00  0.00    +0.228 A 
ATOM      8  C   UNL     1       1.226   1.635  -7.291  0.00  0.00    +0.201 A 
ATOM      9  N   UNL     1       2.225   1.318  -8.156  0.00  0.00    -0.194 NA
ATOM     10  C   UNL     1       2.958   0.372  -7.620  0.00  0.00    +0.266 A 
ATOM     11  O   UNL     1       2.465   0.056  -6.406  0.00  0.00    -0.417 OA
BRANCH  10  12
ATOM     12  C   UNL     1       4.137  -0.244  -8.244  0.00  0.00    +0.189 A 
ATOM     13  C   UNL     1       4.654   0.071  -9.466  0.00  0.00    +0.055 A 
ATOM     14  C   UNL     1       5.773  -0.760  -9.659  0.00  0.00    +0.042 A 
ATOM     15  C   UNL     1       5.885  -1.535  -8.561  0.00  0.00    +0.196 A 
ATOM     16  O   UNL     1       4.900  -1.217  -7.706  0.00  0.00    -0.458 OA
ENDBRANCH  10  12
BRANCH   8  17
ATOM     17  C   UNL     1       0.205   2.619  -7.491  0.00  0.00    +0.124 C 
ATOM     18  N   UNL     1      -0.605   3.400  -7.650  0.00  0.00    -0.189 NA
ENDBRANCH   8  17
ENDBRANCH   4   7
BRANCH   1  21
ATOM     19  C   UNL     1      -0.039   1.464   0.008  0.00  0.00    +0.132 C 
ATOM     20  N   UNL     1      -0.034  -0.001   0.008  0.00  0.00    -0.297 N 
ATOM     21  C   UNL     1      -0.138  -0.675  -1.154  0.00  0.00    +0.219 C 
ATOM     22  O   UNL     1      -0.134  -1.888  -1.154  0.00  0.00    -0.275 OA
BRANCH  20  23
ATOM     23  C   UNL     1       0.083  -0.733   1.272  0.00  0.00    +0.106 C 
ATOM     24  C   UNL     1      -1.107  -0.401   2.196  0.00  0.00    +0.032 C 
ATOM     25  C   UNL     1      -0.559   0.775   3.033  0.00  0.00    +0.037 C 
ATOM     26  C   UNL     1       0.943   0.588   3.042  0.00  0.00    -0.042 A 
ATOM     27  C   UNL     1       1.313  -0.280   2.029  0.00  0.00    -0.024 A 
ATOM     28  C   UNL     1       2.648  -0.601   1.846  0.00  0.00    +0.006 A 
ATOM     29  C   UNL     1       3.613  -0.058   2.672  0.00  0.00    +0.000 A 
ATOM     30  C   UNL     1       3.246   0.808   3.685  0.00  0.00    +0.000 A 
ATOM     31  C   UNL     1       1.909   1.133   3.870  0.00  0.00    +0.004 A 
ENDBRANCH  20  23
ENDBRANCH   1  21
TORSDOF 5
