REMARK  Name = ZINC60330716
REMARK  4 active torsions:
REMARK  status: ('A' for Active; 'I' for Inactive)
REMARK    1  A    between atoms: C_8  and  C_11
REMARK    2  A    between atoms: C_12  and  C_13
REMARK    3  A    between atoms: C_13  and  C_15
REMARK    4  A    between atoms: C_19  and  N_21
REMARK                            x       y       z     vdW  Elec       q    Type
REMARK                         _______ _______ _______ _____ _____    ______ ____
ROOT
ATOM      1  C   UNL     1       2.615  -4.125   0.289  0.00  0.00    +0.011 C 
ATOM      2  C   UNL     1       3.806  -4.701   0.609  0.00  0.00    +0.052 C 
ENDROOT
BRANCH   1  10
ATOM      3  C   UNL     1      -0.017   1.375   0.010  0.00  0.00    +0.001 A 
ATOM      4  C   UNL     1       1.170   2.092   0.002  0.00  0.00    +0.004 A 
ATOM      5  C   UNL     1       2.388   1.438  -0.014  0.00  0.00    +0.046 A 
ATOM      6  C   UNL     1       2.428   0.056  -0.022  0.00  0.00    +0.128 A 
ATOM      7  C   UNL     1       1.226  -0.675  -0.013  0.00  0.00    +0.017 A 
ATOM      8  C   UNL     1       0.002  -0.004   0.002  0.00  0.00    +0.011 A 
ATOM      9  C   UNL     1       1.297  -2.142  -0.020  0.00  0.00    +0.018 C 
ATOM     10  C   UNL     1       2.487  -2.723   0.299  0.00  0.00    -0.010 C 
ATOM     11  C   UNL     1       3.665  -1.857   0.662  0.00  0.00    +0.264 C 
ATOM     12  O   UNL     1       3.607  -0.614  -0.040  0.00  0.00    -0.487 OA
ENDBRANCH   1  10
BRANCH   2  13
ATOM     13  C   UNL     1       3.935  -6.108   0.600  0.00  0.00    +0.186 C 
ATOM     14  O   UNL     1       2.980  -6.805   0.306  0.00  0.00    -0.287 OA
BRANCH  13  15
ATOM     15  C   UNL     1       5.230  -6.734   0.947  0.00  0.00    +0.024 A 
ATOM     16  C   UNL     1       6.324  -5.938   1.290  0.00  0.00    +0.012 A 
ATOM     17  C   UNL     1       7.528  -6.529   1.613  0.00  0.00    +0.003 A 
ATOM     18  C   UNL     1       7.653  -7.907   1.597  0.00  0.00    +0.033 A 
ATOM     19  C   UNL     1       6.572  -8.701   1.258  0.00  0.00    +0.127 A 
ATOM     20  C   UNL     1       5.361  -8.124   0.938  0.00  0.00    +0.044 A 
BRANCH  19  21
ATOM     21  N   UNL     1       6.714 -10.175   1.243  0.00  0.00    +0.056 N 
ATOM     22  O   UNL     1       7.774 -10.682   1.527  0.00  0.00    -0.126 OA
ATOM     23  O   UNL     1       5.771 -10.870   0.948  0.00  0.00    -0.126 OA
ENDBRANCH  19  21
ENDBRANCH  13  15
ENDBRANCH   2  13
TORSDOF 4
