REMARK  Name = ZINC66635865
REMARK  9 active torsions:
REMARK  status: ('A' for Active; 'I' for Inactive)
REMARK    1  A    between atoms: C_1  and  O_2
REMARK    2  A    between atoms: O_2  and  C_3
REMARK    3  A    between atoms: C_6  and  C_9
REMARK    4  A    between atoms: C_12  and  C_14
REMARK    5  A    between atoms: N_16  and  C_17
REMARK    6  A    between atoms: C_21  and  C_24
REMARK    7  A    between atoms: C_22  and  O_23
REMARK    8  A    between atoms: C_24  and  O_26
REMARK    9  A    between atoms: O_26  and  C_27
REMARK                            x       y       z     vdW  Elec       q    Type
REMARK                         _______ _______ _______ _____ _____    ______ ____
ROOT
ATOM      1  C   UNL     1       0.302  -3.677   4.809  0.00  0.00    +0.221 C 
ATOM      2  O   UNL     1      -0.161  -3.087   3.856  0.00  0.00    -0.275 OA
ATOM      3  N   UNL     1      -0.479  -4.503   5.534  0.00  0.00    -0.282 N 
ATOM      4  H   UNL     1      -0.092  -5.036   6.246  0.00  0.00    +0.155 HD
ENDROOT
BRANCH   3   5
ATOM      5  C   UNL     1      -1.850  -4.592   5.259  0.00  0.00    +0.076 A 
ATOM      6  C   UNL     1      -2.506  -3.532   4.651  0.00  0.00    +0.027 A 
ATOM      7  C   UNL     1      -3.860  -3.613   4.376  0.00  0.00    +0.003 A 
ATOM      8  C   UNL     1      -4.571  -4.747   4.704  0.00  0.00    +0.019 A 
ATOM      9  C   UNL     1      -3.926  -5.824   5.318  0.00  0.00    +0.102 A 
ATOM     10  C   UNL     1      -2.554  -5.747   5.591  0.00  0.00    +0.152 A 
BRANCH  10  11
ATOM     11  O   UNL     1      -1.916  -6.788   6.182  0.00  0.00    -0.504 OA
ATOM     12  H   UNL     1      -1.913  -6.751   7.148  0.00  0.00    +0.292 HD
ENDBRANCH  10  11
BRANCH   9  13
ATOM     13  C   UNL     1      -4.684  -7.039   5.670  0.00  0.00    +0.343 C 
ATOM     14  O   UNL     1      -4.119  -7.973   6.204  0.00  0.00    -0.245 OA
BRANCH  13  15
ATOM     15  O   UNL     1      -6.002  -7.112   5.401  0.00  0.00    -0.464 OA
ATOM     16  C   UNL     1      -6.673  -8.318   5.770  0.00  0.00    +0.280 C 
ENDBRANCH  13  15
ENDBRANCH   9  13
ENDBRANCH   3   5
BRANCH   1  19
ATOM     17  C   UNL     1       2.583  -2.536   4.322  0.00  0.00    +0.032 C 
ATOM     18  C   UNL     1       2.806  -4.047   4.229  0.00  0.00    +0.022 C 
ATOM     19  C   UNL     1       1.749  -3.487   5.184  0.00  0.00    +0.083 C 
BRANCH  17  23
ATOM     20  C   UNL     1       0.629  -0.624   1.037  0.00  0.00    +0.120 A 
ATOM     21  C   UNL     1       1.196   0.139   2.048  0.00  0.00    +0.046 A 
ATOM     22  C   UNL     1       1.826  -0.482   3.109  0.00  0.00    +0.007 A 
ATOM     23  C   UNL     1       1.893  -1.862   3.164  0.00  0.00    -0.043 A 
ATOM     24  C   UNL     1       1.330  -2.624   2.157  0.00  0.00    +0.007 A 
ATOM     25  C   UNL     1       0.693  -2.009   1.097  0.00  0.00    +0.046 A 
BRANCH  20  27
ATOM     26  C   UNL     1      -0.020   1.413  -0.003  0.00  0.00    +0.277 C 
ATOM     27  O   UNL     1       0.007  -0.016  -0.007  0.00  0.00    -0.495 OA
ENDBRANCH  20  27
ENDBRANCH  17  23
ENDBRANCH   1  19
TORSDOF 7
