REMARK  Name = ZINC10001451
REMARK  11 active torsions:
REMARK  status: ('A' for Active; 'I' for Inactive)
REMARK    1  A    between atoms: C_1  and  C_2
REMARK    2  A    between atoms: C_2  and  C_3
REMARK    3  A    between atoms: C_2  and  C_4
REMARK    4  A    between atoms: C_4  and  C_6
REMARK    5  A    between atoms: C_4  and  N_29
REMARK    6  A    between atoms: N_8  and  N_9
REMARK    7  A    between atoms: C_10  and  C_11
REMARK    8  A    between atoms: C_20  and  O_21
REMARK    9  A    between atoms: O_21  and  C_22
REMARK   10  A    between atoms: C_22  and  C_23
REMARK   11  A    between atoms: C_30  and  C_32
REMARK                            x       y       z     vdW  Elec       q    Type
REMARK                         _______ _______ _______ _____ _____    ______ ____
ROOT
ATOM      1  C   UNL     1      -6.001  -0.767  -0.037  0.00  0.00    +0.253 C 
ATOM      2  O   UNL     1      -5.812  -1.962   0.051  0.00  0.00    -0.272 OA
ATOM      3  N   UNL     1      -4.974   0.060  -0.317  0.00  0.00    -0.205 N 
ATOM      4  H   UNL     1      -5.137   1.006  -0.455  0.00  0.00    +0.177 HD
ENDROOT
BRANCH   3   5
ATOM      5  N   UNL     1      -3.672  -0.448  -0.409  0.00  0.00    -0.188 NA
ATOM      6  C   UNL     1      -2.681   0.349  -0.679  0.00  0.00    +0.142 C 
BRANCH   6   7
ATOM      7  C   UNL     1      -1.315  -0.183  -0.776  0.00  0.00    +0.044 A 
ATOM      8  C   UNL     1      -0.189   0.699  -1.079  0.00  0.00    -0.006 A 
ATOM      9  C   UNL     1      -0.372   2.071  -1.286  0.00  0.00    +0.009 A 
ATOM     10  C   UNL     1       0.704   2.860  -1.567  0.00  0.00    +0.001 A 
ATOM     11  C   UNL     1       1.985   2.318  -1.650  0.00  0.00    +0.001 A 
ATOM     12  C   UNL     1       2.198   0.988  -1.454  0.00  0.00    +0.008 A 
ATOM     13  C   UNL     1       1.111   0.145  -1.163  0.00  0.00    -0.017 A 
ATOM     14  C   UNL     1       1.293  -1.234  -0.955  0.00  0.00    +0.012 A 
ATOM     15  C   UNL     1       0.235  -2.040  -0.674  0.00  0.00    +0.047 A 
ATOM     16  C   UNL     1      -1.064  -1.541  -0.581  0.00  0.00    +0.130 A 
BRANCH  16  17
ATOM     17  O   UNL     1      -2.091  -2.383  -0.298  0.00  0.00    -0.487 OA
BRANCH  17  18
ATOM     18  C   UNL     1      -1.766  -3.762  -0.109  0.00  0.00    +0.264 C 
BRANCH  18  19
ATOM     19  C   UNL     1      -3.023  -4.537   0.193  0.00  0.00    -0.010 A 
ATOM     20  C   UNL     1      -3.436  -4.699   1.502  0.00  0.00    +0.007 A 
ATOM     21  C   UNL     1      -4.591  -5.406   1.780  0.00  0.00    +0.000 A 
ATOM     22  C   UNL     1      -5.328  -5.959   0.749  0.00  0.00    +0.000 A 
ATOM     23  C   UNL     1      -4.911  -5.801  -0.560  0.00  0.00    +0.000 A 
ATOM     24  C   UNL     1      -3.759  -5.090  -0.838  0.00  0.00    +0.007 A 
ENDBRANCH  18  19
ENDBRANCH  17  18
ENDBRANCH  16  17
ENDBRANCH   6   7
ENDBRANCH   3   5
BRANCH   1  25
ATOM     25  C   UNL     1      -7.385  -0.206   0.167  0.00  0.00    +0.163 C 
BRANCH  25  26
ATOM     26  N   UNL     1      -8.380  -1.229  -0.165  0.00  0.00    -0.300 N 
ATOM     27  C   UNL     1      -9.620  -0.864  -0.548  0.00  0.00    +0.245 C 
ATOM     28  O   UNL     1      -9.912   0.314  -0.619  0.00  0.00    -0.270 OA
ATOM     29  H   UNL     1      -8.147  -2.169  -0.109  0.00  0.00    +0.150 HD
BRANCH  27  30
ATOM     30  C   UNL     1     -10.622  -1.895  -0.883  0.00  0.00    +0.040 A 
ATOM     31  C   UNL     1     -10.286  -3.249  -0.809  0.00  0.00    +0.017 A 
ATOM     32  C   UNL     1     -11.225  -4.209  -1.116  0.00  0.00    +0.050 A 
ATOM     33  C   UNL     1     -12.502  -3.837  -1.512  0.00  0.00    +0.166 A 
ATOM     34  C   UNL     1     -12.842  -2.486  -1.594  0.00  0.00    +0.167 A 
ATOM     35  C   UNL     1     -11.907  -1.518  -1.281  0.00  0.00    +0.062 A 
ATOM     36  O   UNL     1     -14.142  -2.388  -2.002  0.00  0.00    -0.453 OA
ATOM     37  C   UNL     1     -14.466  -3.674  -2.562  0.00  0.00    +0.466 C 
ATOM     38  O   UNL     1     -13.588  -4.581  -1.869  0.00  0.00    -0.453 OA
ENDBRANCH  27  30
ENDBRANCH  25  26
BRANCH  25  40
ATOM     39  C   UNL     1      -7.232  -0.970   2.541  0.00  0.00    +0.009 C 
ATOM     40  C   UNL     1      -7.555   0.214   1.629  0.00  0.00    +0.012 C 
ATOM     41  C   UNL     1      -6.604   1.372   1.940  0.00  0.00    +0.009 C 
ENDBRANCH  25  40
ENDBRANCH   1  25
TORSDOF 9
