REMARK  Name = ZINC28307442
REMARK  10 active torsions:
REMARK  status: ('A' for Active; 'I' for Inactive)
REMARK    1  A    between atoms: C_1  and  C_2
REMARK    2  A    between atoms: C_5  and  C_8
REMARK    3  A    between atoms: C_8  and  C_10
REMARK    4  A    between atoms: C_15  and  C_16
REMARK    5  A    between atoms: N_18  and  C_19
REMARK    6  A    between atoms: C_19  and  C_29
REMARK    7  A    between atoms: C_20  and  C_21
REMARK    8  A    between atoms: C_24  and  N_26
REMARK    9  A    between atoms: N_31  and  C_32
REMARK   10  A    between atoms: C_35  and  C_38
REMARK                            x       y       z     vdW  Elec       q    Type
REMARK                         _______ _______ _______ _____ _____    ______ ____
ROOT
ATOM      1  C   UNL     1      -3.914   2.393  -0.420  0.00  0.00    +0.100 C 
ATOM      2  C   UNL     1      -3.942   3.705  -0.062  0.00  0.00    +0.075 C 
ENDROOT
BRANCH   2   3
ATOM      3  C   UNL     1      -5.128   4.269   0.467  0.00  0.00    +0.133 A 
ATOM      4  C   UNL     1      -5.329   5.599   0.774  0.00  0.00    +0.052 A 
ATOM      5  C   UNL     1      -6.641   5.701   1.264  0.00  0.00    +0.076 A 
ATOM      6  C   UNL     1      -7.173   4.460   1.247  0.00  0.00    +0.280 A 
ATOM      7  O   UNL     1      -6.261   3.600   0.768  0.00  0.00    -0.434 OA
BRANCH   6   8
ATOM      8  N   UNL     1      -8.542   4.104   1.688  0.00  0.00    +0.093 N 
ATOM      9  O   UNL     1      -9.321   4.979   2.022  0.00  0.00    -0.123 OA
ATOM     10  O   UNL     1      -8.889   2.937   1.716  0.00  0.00    -0.123 OA
ENDBRANCH   6   8
ENDBRANCH   2   3
BRANCH   1  13
ATOM     11  C   UNL     1      -2.709   0.544  -1.309  0.00  0.00    +0.249 C 
ATOM     12  O   UNL     1      -3.726  -0.120  -1.275  0.00  0.00    -0.270 OA
ATOM     13  N   UNL     1      -2.715   1.810  -0.846  0.00  0.00    -0.277 N 
ATOM     14  H   UNL     1      -1.778   2.385  -0.804  0.00  0.00    +0.155 HD
BRANCH  11  20
ATOM     15  C   UNL     1      -1.436  -1.378  -2.283  0.00  0.00    +0.034 A 
ATOM     16  C   UNL     1      -0.255  -1.913  -2.793  0.00  0.00    +0.012 A 
ATOM     17  C   UNL     1       0.878  -1.127  -2.879  0.00  0.00    +0.001 A 
ATOM     18  C   UNL     1       0.850   0.192  -2.462  0.00  0.00    +0.001 A 
ATOM     19  C   UNL     1      -0.312   0.740  -1.954  0.00  0.00    +0.014 A 
ATOM     20  C   UNL     1      -1.465  -0.036  -1.859  0.00  0.00    +0.048 A 
BRANCH  15  21
ATOM     21  C   UNL     1      -2.651  -2.214  -2.188  0.00  0.00    +0.194 C 
ATOM     22  O   UNL     1      -2.728  -3.080  -1.339  0.00  0.00    -0.287 OA
BRANCH  21  27
ATOM     23  C   UNL     1      -7.017  -1.371  -5.840  0.00  0.00    +0.044 C 
ATOM     24  C   UNL     1      -5.874  -1.591  -4.883  0.00  0.00    -0.050 A 
ATOM     25  C   UNL     1      -6.002  -2.512  -3.858  0.00  0.00    +0.004 A 
ATOM     26  C   UNL     1      -4.959  -2.719  -2.979  0.00  0.00    +0.012 A 
ATOM     27  C   UNL     1      -3.772  -1.997  -3.126  0.00  0.00    +0.022 A 
ATOM     28  C   UNL     1      -3.652  -1.066  -4.160  0.00  0.00    +0.012 A 
ATOM     29  C   UNL     1      -4.700  -0.873  -5.035  0.00  0.00    +0.004 A 
ENDBRANCH  21  27
ENDBRANCH  15  21
ENDBRANCH  11  20
ENDBRANCH   1  13
BRANCH   1  30
ATOM     30  C   UNL     1      -5.138   1.591  -0.360  0.00  0.00    +0.263 C 
ATOM     31  O   UNL     1      -5.869   1.522  -1.331  0.00  0.00    -0.268 OA
ATOM     32  N   UNL     1      -5.455   0.930   0.771  0.00  0.00    -0.280 N 
ATOM     33  H   UNL     1      -4.857   1.079   1.682  0.00  0.00    +0.155 HD
BRANCH  32  34
ATOM     34  C   UNL     1      -6.544   0.053   0.786  0.00  0.00    +0.034 A 
ATOM     35  C   UNL     1      -6.860  -0.684  -0.348  0.00  0.00    +0.023 A 
ATOM     36  C   UNL     1      -7.933  -1.553  -0.328  0.00  0.00    +0.005 A 
ATOM     37  C   UNL     1      -8.700  -1.681   0.815  0.00  0.00    -0.050 A 
ATOM     38  C   UNL     1      -8.392  -0.944   1.944  0.00  0.00    +0.005 A 
ATOM     39  C   UNL     1      -7.316  -0.077   1.933  0.00  0.00    +0.023 A 
ATOM     40  C   UNL     1      -9.875  -2.625   0.832  0.00  0.00    +0.044 C 
ENDBRANCH  32  34
ENDBRANCH   1  30
TORSDOF 8
