REMARK  Name = ZINC00424495
REMARK  4 active torsions:
REMARK  status: ('A' for Active; 'I' for Inactive)
REMARK    1  A    between atoms: C_1  and  C_2
REMARK    2  A    between atoms: C_5  and  C_7
REMARK    3  A    between atoms: C_7  and  N_8
REMARK    4  A    between atoms: C_9  and  C_11
REMARK                            x       y       z     vdW  Elec       q    Type
REMARK                         _______ _______ _______ _____ _____    ______ ____
ROOT
ATOM      1  C   UNL     1      -2.879   4.993  -0.677  0.00  0.00    +0.039 A 
ATOM      2  C   UNL     1      -2.125   5.875   0.101  0.00  0.00    +0.015 A 
ATOM      3  C   UNL     1      -1.042   5.409   0.811  0.00  0.00    +0.026 A 
ATOM      4  C   UNL     1      -0.696   4.062   0.761  0.00  0.00    +0.053 A 
ATOM      5  C   UNL     1      -1.461   3.168   0.013  0.00  0.00    +0.056 A 
ATOM      6  C   UNL     1      -2.541   3.639  -0.718  0.00  0.00    +0.038 A 
ATOM      7  N   UNL     1      -1.200   1.798   0.018  0.00  0.00    -0.280 N 
ATOM      8  C   UNL     1      -0.014   1.212   0.009  0.00  0.00    +0.250 C 
ATOM      9  O   UNL     1       0.002  -0.004   0.002  0.00  0.00    -0.270 OA
ATOM     10  C   UNL     1       1.282   1.898   0.000  0.00  0.00    +0.058 A 
ATOM     11  C   UNL     1       2.334   1.392  -0.771  0.00  0.00    +0.015 A 
ATOM     12  C   UNL     1       3.562   2.016  -0.756  0.00  0.00    +0.001 A 
ATOM     13  C   UNL     1       3.765   3.144   0.022  0.00  0.00    +0.002 A 
ATOM     14  C   UNL     1       2.734   3.663   0.779  0.00  0.00    +0.024 A 
ATOM     15  C   UNL     1       1.485   3.056   0.763  0.00  0.00    +0.044 A 
ATOM     16  N   UNL     1       0.428   3.625   1.462  0.00  0.00    -0.312 N 
ATOM     17  H   UNL     1      -1.973   1.212   0.034  0.00  0.00    +0.155 HD
ATOM     18  H   UNL     1       0.471   3.717   2.427  0.00  0.00    +0.152 HD
ENDROOT
BRANCH   1  20
ATOM     19  N   UNL     1      -4.354   6.799  -1.415  0.00  0.00    -0.304 N 
ATOM     20  C   UNL     1      -4.029   5.491  -1.455  0.00  0.00    +0.244 C 
ATOM     21  O   UNL     1      -4.684   4.722  -2.132  0.00  0.00    -0.270 OA
ATOM     22  H   UNL     1      -3.832   7.412  -0.876  0.00  0.00    +0.149 HD
BRANCH  19  23
ATOM     23  C   UNL     1      -5.497   7.293  -2.188  0.00  0.00    +0.179 C 
BRANCH  23  28
ATOM     24  C   UNL     1      -6.949  11.708  -0.228  0.00  0.00    +0.086 C 
ATOM     25  C   UNL     1      -6.276  10.697  -1.120  0.00  0.00    +0.102 A 
ATOM     26  C   UNL     1      -5.471  10.979  -2.160  0.00  0.00    +0.045 A 
ATOM     27  C   UNL     1      -5.064   9.741  -2.710  0.00  0.00    +0.046 A 
ATOM     28  C   UNL     1      -5.644   8.777  -1.972  0.00  0.00    +0.122 A 
ATOM     29  O   UNL     1      -6.381   9.362  -1.014  0.00  0.00    -0.463 OA
ENDBRANCH  23  28
ENDBRANCH  19  23
ENDBRANCH   1  20
TORSDOF 3
