REMARK  Name = ZINC20837383
REMARK  7 active torsions:
REMARK  status: ('A' for Active; 'I' for Inactive)
REMARK    1  A    between atoms: C_1  and  C_2
REMARK    2  A    between atoms: C_2  and  C_26
REMARK    3  A    between atoms: N_3  and  N_4
REMARK    4  A    between atoms: C_7  and  S_10
REMARK    5  A    between atoms: S_10  and  C_11
REMARK    6  A    between atoms: C_11  and  C_12
REMARK    7  A    between atoms: N_14  and  C_15
REMARK                            x       y       z     vdW  Elec       q    Type
REMARK                         _______ _______ _______ _____ _____    ______ ____
ROOT
ATOM      1  N   UNL     1       8.726   8.986  -3.194  0.00  0.00    -0.205 N 
ATOM      2  C   UNL     1       7.891   7.908  -2.934  0.00  0.00    +0.232 A 
ATOM      3  N   UNL     1       7.266   7.643  -1.748  0.00  0.00    -0.186 NA
ATOM      4  C   UNL     1       6.538   6.497  -1.900  0.00  0.00    +0.211 A 
ATOM      5  N   UNL     1       6.711   6.068  -3.127  0.00  0.00    -0.144 NA
ATOM      6  N   UNL     1       7.563   6.965  -3.784  0.00  0.00    -0.245 N 
ATOM      7  H   UNL     1       8.935   9.722  -2.404  0.00  0.00    +0.177 HD
ATOM      8  H   UNL     1       7.958   6.988  -4.810  0.00  0.00    +0.192 HD
ENDROOT
BRANCH   1  11
ATOM      9  C   UNL     1      10.360  11.139  -3.619  0.00  0.00    +0.063 C 
ATOM     10  C   UNL     1      10.073  10.130  -4.701  0.00  0.00    +0.040 C 
ATOM     11  N   UNL     1       9.303   9.136  -4.462  0.00  0.00    -0.189 NA
BRANCH  10  12
ATOM     12  C   UNL     1      10.694  10.291  -6.065  0.00  0.00    +0.011 C 
ATOM     13  C   UNL     1      12.218  10.274  -5.937  0.00  0.00    +0.016 C 
ATOM     14  C   UNL     1      12.848  10.438  -7.321  0.00  0.00    -0.010 C 
ATOM     15  C   UNL     1      12.399   9.288  -8.225  0.00  0.00    +0.007 C 
ATOM     16  C   UNL     1      10.875   9.305  -8.353  0.00  0.00    -0.010 C 
ATOM     17  C   UNL     1      10.245   9.142  -6.969  0.00  0.00    +0.016 C 
ATOM     18  C   UNL     1      10.429  10.636  -8.962  0.00  0.00    +0.007 C 
ATOM     19  C   UNL     1      10.878  11.786  -8.058  0.00  0.00    -0.010 C 
ATOM     20  C   UNL     1      12.403  11.769  -7.930  0.00  0.00    +0.007 C 
ATOM     21  C   UNL     1      10.248  11.623  -6.673  0.00  0.00    +0.016 C 
ENDBRANCH  10  12
ENDBRANCH   1  11
BRANCH   4  22
ATOM     22  S   UNL     1       5.548   5.726  -0.663  0.00  0.00    -0.075 S 
BRANCH  22  23
ATOM     23  C   UNL     1       4.862   4.268  -1.496  0.00  0.00    +0.173 C 
BRANCH  23  24
ATOM     24  C   UNL     1       3.983   3.509  -0.535  0.00  0.00    +0.224 C 
ATOM     25  O   UNL     1       3.834   3.912   0.599  0.00  0.00    -0.275 OA
ATOM     26  N   UNL     1       3.361   2.382  -0.937  0.00  0.00    -0.308 N 
ATOM     27  H   UNL     1       3.496   2.017  -1.966  0.00  0.00    +0.149 HD
BRANCH  26  28
ATOM     28  C   UNL     1       2.507   1.644  -0.004  0.00  0.00    +0.103 C 
ATOM     29  C   UNL     1       2.438   0.180  -0.434  0.00  0.00    +0.027 C 
ATOM     30  C   UNL     1       1.376  -0.525   0.418  0.00  0.00    +0.007 C 
ATOM     31  C   UNL     1       0.002  -0.004   0.002  0.00  0.00    +0.035 C 
ATOM     32  C   UNL     1      -0.018   1.502   0.010  0.00  0.00    -0.042 A 
ATOM     33  C   UNL     1       1.132   2.259   0.003  0.00  0.00    -0.024 A 
ATOM     34  C   UNL     1       1.043   3.645   0.006  0.00  0.00    +0.006 A 
ATOM     35  C   UNL     1      -0.187   4.269   0.018  0.00  0.00    +0.000 A 
ATOM     36  C   UNL     1      -1.342   3.509   0.029  0.00  0.00    +0.000 A 
ATOM     37  C   UNL     1      -1.256   2.132   0.019  0.00  0.00    +0.004 A 
ENDBRANCH  26  28
ENDBRANCH  23  24
ENDBRANCH  22  23
ENDBRANCH   4  22
TORSDOF 6
