REMARK  Name = ZINC02282138
REMARK  5 active torsions:
REMARK  status: ('A' for Active; 'I' for Inactive)
REMARK    1  A    between atoms: C_3  and  C_10
REMARK    2  A    between atoms: C_5  and  N_7
REMARK    3  A    between atoms: C_16  and  C_18
REMARK    4  A    between atoms: C_21  and  S_24
REMARK    5  A    between atoms: S_24  and  N_27
REMARK                            x       y       z     vdW  Elec       q    Type
REMARK                         _______ _______ _______ _____ _____    ______ ____
ROOT
ATOM      1  C   UNL     1       3.660   2.164  -0.022  0.00  0.00    +0.080 A 
ATOM      2  C   UNL     1       3.655   3.526   0.093  0.00  0.00    +0.076 A 
ATOM      3  S   UNL     1       5.408   3.870   0.024  0.00  0.00    -0.060 S 
ATOM      4  C   UNL     1       5.961   2.179  -0.150  0.00  0.00    +0.165 A 
ATOM      5  N   UNL     1       4.814   1.525  -0.135  0.00  0.00    -0.225 NA
ATOM      6  N   UNL     1       7.253   1.685  -0.264  0.00  0.00    -0.261 N 
ATOM      7  C   UNL     1       8.302   2.531  -0.251  0.00  0.00    +0.250 C 
ATOM      8  O   UNL     1       8.117   3.727  -0.140  0.00  0.00    -0.270 OA
ATOM      9  H   UNL     1       7.401   0.730  -0.353  0.00  0.00    +0.157 HD
ENDROOT
BRANCH   1  12
ATOM     10  C   UNL     1      -0.017   1.379   0.010  0.00  0.00    +0.003 A 
ATOM     11  C   UNL     1       1.168   2.088   0.002  0.00  0.00    +0.010 A 
ATOM     12  C   UNL     1       2.384   1.407  -0.013  0.00  0.00    +0.003 A 
ATOM     13  C   UNL     1       2.397   0.013  -0.021  0.00  0.00    +0.042 A 
ATOM     14  C   UNL     1       1.206  -0.685  -0.013  0.00  0.00    +0.127 A 
ATOM     15  C   UNL     1       0.002  -0.004   0.002  0.00  0.00    +0.033 A 
BRANCH  14  16
ATOM     16  N   UNL     1       1.218  -2.165  -0.021  0.00  0.00    +0.056 N 
ATOM     17  O   UNL     1       2.270  -2.761  -0.035  0.00  0.00    -0.126 OA
ATOM     18  O   UNL     1       0.176  -2.778  -0.015  0.00  0.00    -0.126 OA
ENDBRANCH  14  16
ENDBRANCH   1  12
BRANCH   7  19
ATOM     19  C   UNL     1       9.678   2.004  -0.373  0.00  0.00    +0.037 A 
ATOM     20  C   UNL     1       9.894   0.632  -0.507  0.00  0.00    +0.015 A 
ATOM     21  C   UNL     1      11.181   0.147  -0.621  0.00  0.00    +0.029 A 
ATOM     22  C   UNL     1      12.255   1.018  -0.602  0.00  0.00    +0.106 A 
ATOM     23  C   UNL     1      12.048   2.380  -0.469  0.00  0.00    +0.029 A 
ATOM     24  C   UNL     1      10.767   2.878  -0.360  0.00  0.00    +0.015 A 
BRANCH  22  25
ATOM     25  S   UNL     1      13.896   0.390  -0.747  0.00  0.00    +0.061 S 
ATOM     26  O   UNL     1      14.754   1.355  -0.154  0.00  0.00    -0.153 OA
ATOM     27  O   UNL     1      13.853  -0.961  -0.311  0.00  0.00    -0.153 OA
BRANCH  25  28
ATOM     28  N   UNL     1      14.266   0.356  -2.361  0.00  0.00    -0.177 NA
ATOM     29  C   UNL     1      14.019  -0.771  -3.272  0.00  0.00    +0.109 C 
ATOM     30  C   UNL     1      14.548  -0.360  -4.662  0.00  0.00    +0.018 C 
ATOM     31  C   UNL     1      15.574   0.755  -4.328  0.00  0.00    +0.018 C 
ATOM     32  C   UNL     1      14.891   1.452  -3.123  0.00  0.00    +0.109 C 
ENDBRANCH  25  28
ENDBRANCH  22  25
ENDBRANCH   7  19
TORSDOF 5
