REMARK  Name = ZINC39561878
REMARK  6 active torsions:
REMARK  status: ('A' for Active; 'I' for Inactive)
REMARK    1  A    between atoms: C_1  and  C_2
REMARK    2  A    between atoms: C_11  and  O_15
REMARK    3  A    between atoms: O_15  and  C_16
REMARK    4  A    between atoms: C_16  and  C_17
REMARK    5  A    between atoms: C_19  and  O_20
REMARK    6  A    between atoms: C_29  and  C_31
REMARK                            x       y       z     vdW  Elec       q    Type
REMARK                         _______ _______ _______ _____ _____    ______ ____
ROOT
ATOM      1  C   UNL     1      -4.069  -5.157  -1.994  0.00  0.00    +0.007 A 
ATOM      2  C   UNL     1      -3.575  -4.759  -3.220  0.00  0.00    +0.095 A 
ATOM      3  C   UNL     1      -4.449  -4.443  -4.250  0.00  0.00    +0.285 A 
ATOM      4  O   UNL     1      -5.774  -4.515  -4.084  0.00  0.00    -0.425 OA
ATOM      5  C   UNL     1      -6.311  -4.898  -2.907  0.00  0.00    +0.141 A 
ATOM      6  C   UNL     1      -5.468  -5.236  -1.826  0.00  0.00    +0.024 A 
ATOM      7  C   UNL     1      -6.024  -5.641  -0.599  0.00  0.00    +0.014 A 
ATOM      8  C   UNL     1      -7.373  -5.711  -0.456  0.00  0.00    +0.024 A 
ATOM      9  C   UNL     1      -8.220  -5.381  -1.529  0.00  0.00    +0.037 A 
ATOM     10  C   UNL     1      -7.684  -4.967  -2.749  0.00  0.00    +0.070 A 
ATOM     11  N   UNL     1      -9.570  -5.455  -1.373  0.00  0.00    -0.286 N 
ATOM     12  C   UNL     1     -10.357  -5.459  -2.431  0.00  0.00    +0.214 C 
ATOM     13  O   UNL     1      -9.875  -5.518  -3.549  0.00  0.00    -0.276 OA
ATOM     14  C   UNL     1     -11.852  -5.390  -2.259  0.00  0.00    +0.109 C 
ATOM     15  H   UNL     1      -9.954  -5.506  -0.483  0.00  0.00    +0.155 HD
ENDROOT
BRANCH   3  16
ATOM     16  O   UNL     1      -3.954  -4.057  -5.441  0.00  0.00    -0.480 OA
ATOM     17  H   UNL     1      -4.630  -3.855  -6.102  0.00  0.00    +0.295 HD
ENDBRANCH   3  16
BRANCH   1  18
ATOM     18  C   UNL     1      -3.136  -5.505  -0.863  0.00  0.00    +0.267 C 
BRANCH  18  19
ATOM     19  O   UNL     1      -2.398  -4.342  -0.480  0.00  0.00    -0.471 OA
BRANCH  19  29
ATOM     20  C   UNL     1      -0.222   2.001  -1.037  0.00  0.00    +0.008 C 
ATOM     21  C   UNL     1      -0.159   0.489  -0.815  0.00  0.00    -0.009 C 
ATOM     22  C   UNL     1      -1.579  -0.076  -0.715  0.00  0.00    +0.008 C 
ATOM     23  C   UNL     1      -1.532  -1.603  -0.742  0.00  0.00    +0.037 C 
ATOM     24  C   UNL     1      -0.559  -2.088   0.329  0.00  0.00    -0.023 A 
ATOM     25  C   UNL     1       0.364  -1.249   0.849  0.00  0.00    -0.004 A 
ATOM     26  S   UNL     1       1.262  -2.217   2.036  0.00  0.00    -0.073 S 
ATOM     27  C   UNL     1       0.401  -3.743   1.838  0.00  0.00    +0.116 A 
ATOM     28  C   UNL     1      -0.567  -3.448   0.843  0.00  0.00    +0.073 A 
ATOM     29  C   UNL     1      -1.436  -4.507   0.459  0.00  0.00    +0.227 A 
ATOM     30  N   UNL     1      -1.245  -5.668   1.079  0.00  0.00    -0.201 NA
ATOM     31  C   UNL     1      -0.322  -5.870   1.997  0.00  0.00    +0.226 A 
ATOM     32  N   UNL     1       0.521  -4.927   2.402  0.00  0.00    -0.228 NA
ATOM     33  C   UNL     1       0.586   0.191   0.494  0.00  0.00    +0.046 C 
ENDBRANCH  19  29
ENDBRANCH  18  19
ENDBRANCH   1  18
TORSDOF 4
