REMARK  Name = ZINC01570503
REMARK  3 active torsions:
REMARK  status: ('A' for Active; 'I' for Inactive)
REMARK    1  A    between atoms: C_1  and  C_2
REMARK    2  A    between atoms: C_6  and  O_15
REMARK    3  A    between atoms: C_8  and  C_14
REMARK                            x       y       z     vdW  Elec       q    Type
REMARK                         _______ _______ _______ _____ _____    ______ ____
ROOT
ATOM      1  C   UNL     1      -2.842   1.963  -2.992  0.00  0.00    +0.039 C 
ATOM      2  C   UNL     1      -3.236   1.947  -1.538  0.00  0.00    -0.066 C 
ATOM      3  C   UNL     1      -2.259   1.763  -0.725  0.00  0.00    -0.062 C 
ATOM      4  C   UNL     1      -0.815   1.624  -1.191  0.00  0.00    +0.034 C 
ATOM      5  C   UNL     1      -0.013   1.086   0.008  0.00  0.00    +0.036 C 
ATOM      6  C   UNL     1      -0.794   1.613   1.233  0.00  0.00    +0.125 C 
ATOM      7  C   UNL     1      -2.275   1.534   0.765  0.00  0.00    +0.015 C 
ATOM      8  C   UNL     1      -3.061   2.596   1.515  0.00  0.00    +0.021 C 
ATOM      9  C   UNL     1      -4.542   2.533   1.285  0.00  0.00    +0.075 C 
ATOM     10  C   UNL     1      -4.934   2.970  -0.088  0.00  0.00    +0.137 C 
ATOM     11  O   UNL     1      -5.462   4.047  -0.228  0.00  0.00    -0.297 OA
ATOM     12  C   UNL     1      -4.695   2.122  -1.296  0.00  0.00    +0.104 C 
ATOM     13  C   UNL     1      -2.846   0.148   1.074  0.00  0.00    +0.018 C 
ENDROOT
BRANCH   6  14
ATOM     14  O   UNL     1      -0.428   2.964   1.521  0.00  0.00    -0.391 OA
ATOM     15  H   UNL     1       0.506   3.079   1.744  0.00  0.00    +0.210 HD
ENDBRANCH   6  14
TORSDOF 1
