REMARK  Name = ZINC28052928
REMARK  8 active torsions:
REMARK  status: ('A' for Active; 'I' for Inactive)
REMARK    1  A    between atoms: C_1  and  C_2
REMARK    2  A    between atoms: C_10  and  C_12
REMARK    3  A    between atoms: C_15  and  O_18
REMARK    4  A    between atoms: C_22  and  C_25
REMARK    5  A    between atoms: C_27  and  O_33
REMARK    6  A    between atoms: C_30  and  O_31
REMARK    7  A    between atoms: O_31  and  C_32
REMARK    8  A    between atoms: O_33  and  C_34
REMARK                            x       y       z     vdW  Elec       q    Type
REMARK                         _______ _______ _______ _____ _____    ______ ____
ROOT
ATOM      1  C   UNL     1      -2.147   4.713  -3.124  0.00  0.00    +0.069 C 
ATOM      2  C   UNL     1      -3.206   3.833  -2.512  0.00  0.00    +0.087 A 
ATOM      3  C   UNL     1      -3.344   3.500  -1.167  0.00  0.00    +0.049 A 
ATOM      4  C   UNL     1      -4.448   2.688  -1.125  0.00  0.00    +0.226 A 
ATOM      5  O   UNL     1      -4.882   2.584  -2.377  0.00  0.00    -0.339 OA
ATOM      6  N   UNL     1      -4.184   3.226  -3.139  0.00  0.00    -0.081 NA
ATOM      7  N   UNL     1      -4.901   2.160   0.066  0.00  0.00    -0.286 N 
ATOM      8  C   UNL     1      -4.413   2.676   1.243  0.00  0.00    +0.019 C 
ATOM      9  C   UNL     1      -3.331   3.482   1.290  0.00  0.00    +0.024 C 
ATOM     10  C   UNL     1      -2.553   3.867   0.048  0.00  0.00    +0.091 C 
ATOM     11  C   UNL     1      -2.872   4.006   2.512  0.00  0.00    +0.162 C 
ATOM     12  O   UNL     1      -1.887   4.718   2.519  0.00  0.00    -0.292 OA
ATOM     13  C   UNL     1      -3.571   3.708   3.808  0.00  0.00    +0.088 C 
ATOM     14  C   UNL     1      -5.052   3.436   3.522  0.00  0.00    +0.036 C 
ATOM     15  C   UNL     1      -5.145   2.294   2.510  0.00  0.00    +0.060 C 
ATOM     16  H   UNL     1      -5.638   1.344   0.061  0.00  0.00    +0.155 HD
ENDROOT
BRANCH  10  17
ATOM     17  C   UNL     1      -1.237   3.133   0.031  0.00  0.00    -0.035 A 
ATOM     18  C   UNL     1      -1.218   1.751   0.017  0.00  0.00    +0.008 A 
ATOM     19  C   UNL     1      -0.013   1.076   0.008  0.00  0.00    +0.046 A 
ATOM     20  C   UNL     1       1.179   1.786   0.000  0.00  0.00    +0.117 A 
ATOM     21  C   UNL     1       1.157   3.174   0.008  0.00  0.00    +0.046 A 
ATOM     22  C   UNL     1      -0.051   3.844   0.023  0.00  0.00    +0.008 A 
BRANCH  20  23
ATOM     23  O   UNL     1       2.366   1.125  -0.014  0.00  0.00    -0.507 OA
ATOM     24  H   UNL     1       3.310   1.689  -0.020  0.00  0.00    +0.292 HD
ENDBRANCH  20  23
ENDBRANCH  10  17
BRANCH  14  25
ATOM     25  C   UNL     1      -5.752   3.043   4.798  0.00  0.00    +0.002 A 
ATOM     26  C   UNL     1      -5.328   1.934   5.504  0.00  0.00    +0.053 A 
ATOM     27  C   UNL     1      -5.968   1.575   6.681  0.00  0.00    +0.121 A 
ATOM     28  C   UNL     1      -7.041   2.323   7.143  0.00  0.00    +0.049 A 
ATOM     29  C   UNL     1      -7.468   3.428   6.434  0.00  0.00    +0.049 A 
ATOM     30  C   UNL     1      -6.824   3.791   5.260  0.00  0.00    +0.124 A 
BRANCH  30  31
ATOM     31  O   UNL     1      -7.245   4.879   4.562  0.00  0.00    -0.495 OA
ATOM     32  C   UNL     1      -8.355   5.603   5.095  0.00  0.00    +0.277 C 
ENDBRANCH  30  31
BRANCH  27  33
ATOM     33  O   UNL     1      -5.547   0.486   7.379  0.00  0.00    -0.495 OA
ATOM     34  C   UNL     1      -6.256   0.171   8.579  0.00  0.00    +0.277 C 
ENDBRANCH  27  33
ENDBRANCH  14  25
TORSDOF 5
