REMARK  Name = ZINC39948244
REMARK  8 active torsions:
REMARK  status: ('A' for Active; 'I' for Inactive)
REMARK    1  A    between atoms: C_1  and  O_2
REMARK    2  A    between atoms: O_2  and  C_3
REMARK    3  A    between atoms: C_3  and  C_4
REMARK    4  A    between atoms: C_4  and  N_5
REMARK    5  A    between atoms: N_7  and  N_24
REMARK    6  A    between atoms: C_8  and  C_12
REMARK    7  A    between atoms: C_15  and  C_18
REMARK    8  A    between atoms: C_25  and  C_26
REMARK                            x       y       z     vdW  Elec       q    Type
REMARK                         _______ _______ _______ _____ _____    ______ ____
ROOT
ATOM      1  N   UNL     1       1.683  -2.605   0.051  0.00  0.00    -0.364 N 
ATOM      2  C   UNL     1       1.481  -3.783  -0.468  0.00  0.00    +0.151 C 
ATOM      3  N   UNL     1       1.941  -4.270  -1.676  0.00  0.00    -0.195 N 
ATOM      4  C   UNL     1       1.322  -5.452  -2.245  0.00  0.00    +0.140 C 
ATOM      5  C   UNL     1       0.204  -6.038  -1.353  0.00  0.00    +0.106 C 
ATOM      6  S   UNL     1       0.550  -5.143   0.223  0.00  0.00    -0.089 S 
ATOM      7  H   UNL     1       2.272  -1.974  -0.393  0.00  0.00    +0.161 HD
ENDROOT
BRANCH   4   8
ATOM      8  C   UNL     1       0.732  -5.093  -3.585  0.00  0.00    -0.024 A 
ATOM      9  C   UNL     1       0.093  -3.880  -3.756  0.00  0.00    +0.006 A 
ATOM     10  C   UNL     1      -0.449  -3.550  -4.984  0.00  0.00    +0.004 A 
ATOM     11  C   UNL     1      -0.351  -4.435  -6.042  0.00  0.00    -0.044 A 
ATOM     12  C   UNL     1       0.289  -5.648  -5.872  0.00  0.00    +0.004 A 
ATOM     13  C   UNL     1       0.834  -5.976  -4.644  0.00  0.00    +0.006 A 
BRANCH  11  14
ATOM     14  C   UNL     1      -0.942  -4.077  -7.381  0.00  0.00    +0.019 C 
ATOM     15  C   UNL     1      -2.002  -5.111  -7.764  0.00  0.00    +0.008 C 
ATOM     16  C   UNL     1      -2.603  -4.747  -9.123  0.00  0.00    +0.001 C 
ATOM     17  C   UNL     1      -1.498  -4.734 -10.182  0.00  0.00    +0.000 C 
ATOM     18  C   UNL     1      -0.437  -3.700  -9.799  0.00  0.00    +0.001 C 
ATOM     19  C   UNL     1       0.163  -4.063  -8.440  0.00  0.00    +0.008 C 
ENDBRANCH  11  14
ENDBRANCH   4   8
BRANCH   3  20
ATOM     20  N   UNL     1       2.993  -3.630  -2.344  0.00  0.00    -0.185 NA
ATOM     21  C   UNL     1       3.484  -4.148  -3.443  0.00  0.00    +0.136 C 
BRANCH  21  22
ATOM     22  C   UNL     1       4.452  -3.451  -4.175  0.00  0.00    +0.000 C 
ATOM     23  C   UNL     1       5.067  -3.855  -5.360  0.00  0.00    +0.004 A 
ATOM     24  C   UNL     1       4.933  -5.011  -6.158  0.00  0.00    +0.010 A 
ATOM     25  C   UNL     1       5.677  -5.141  -7.286  0.00  0.00    +0.001 A 
ATOM     26  C   UNL     1       6.581  -4.153  -7.684  0.00  0.00    +0.002 A 
ATOM     27  C   UNL     1       6.762  -3.017  -6.966  0.00  0.00    +0.026 A 
ATOM     28  C   UNL     1       6.019  -2.810  -5.774  0.00  0.00    +0.043 A 
ATOM     29  N   UNL     1       6.010  -1.811  -4.915  0.00  0.00    -0.380 N 
ATOM     30  C   UNL     1       5.045  -2.097  -3.850  0.00  0.00    +0.150 C 
ATOM     31  H   UNL     1       6.554  -1.011  -4.980  0.00  0.00    +0.160 HD
ENDBRANCH  21  22
ENDBRANCH   3  20
BRANCH   1  32
ATOM     32  C   UNL     1       1.022  -2.233   1.304  0.00  0.00    +0.142 C 
BRANCH  32  33
ATOM     33  C   UNL     1       1.426  -0.809   1.690  0.00  0.00    +0.180 C 
BRANCH  33  35
ATOM     34  C   UNL     1       1.255   1.475   0.982  0.00  0.00    +0.194 C 
ATOM     35  O   UNL     1       0.931   0.109   0.714  0.00  0.00    -0.381 OA
ENDBRANCH  33  35
ENDBRANCH  32  33
ENDBRANCH   1  32
TORSDOF 7
