REMARK  Name = ZINC08776400
REMARK  6 active torsions:
REMARK  status: ('A' for Active; 'I' for Inactive)
REMARK    1  A    between atoms: C_1  and  C_2
REMARK    2  A    between atoms: C_3  and  C_14
REMARK    3  A    between atoms: C_4  and  C_12
REMARK    4  A    between atoms: C_5  and  N_7
REMARK    5  A    between atoms: N_16  and  C_17
REMARK    6  A    between atoms: C_18  and  C_22
REMARK                            x       y       z     vdW  Elec       q    Type
REMARK                         _______ _______ _______ _____ _____    ______ ____
ROOT
ATOM      1  C   UNL     1      -4.927  -1.285   0.013  0.00  0.00    +0.087 C 
ATOM      2  C   UNL     1      -4.159   0.011   0.018  0.00  0.00    +0.118 A 
ATOM      3  C   UNL     1      -4.712   1.254   0.028  0.00  0.00    +0.097 A 
ATOM      4  C   UNL     1      -3.572   2.199   0.029  0.00  0.00    +0.127 A 
ATOM      5  C   UNL     1      -2.442   1.406   0.019  0.00  0.00    +0.223 A 
ATOM      6  O   UNL     1      -2.825   0.122   0.008  0.00  0.00    -0.442 OA
ENDROOT
BRANCH   5   7
ATOM      7  N   UNL     1      -1.131   1.863   0.017  0.00  0.00    -0.293 N 
ATOM      8  C   UNL     1      -0.013   1.076   0.008  0.00  0.00    +0.094 A 
ATOM      9  C   UNL     1       1.068   1.881   0.002  0.00  0.00    +0.020 A 
ATOM     10  C   UNL     1       0.605   3.213   0.013  0.00  0.00    +0.020 A 
ATOM     11  C   UNL     1      -0.742   3.174   0.026  0.00  0.00    +0.094 A 
ENDBRANCH   5   7
BRANCH   3  12
ATOM     12  C   UNL     1      -6.145   1.589   0.035  0.00  0.00    +0.253 C 
ATOM     13  O   UNL     1      -6.742   1.734  -1.015  0.00  0.00    -0.270 OA
ATOM     14  N   UNL     1      -6.796   1.736   1.206  0.00  0.00    -0.275 N 
ATOM     15  H   UNL     1      -6.321   1.621   2.044  0.00  0.00    +0.156 HD
BRANCH  14  16
ATOM     16  C   UNL     1      -8.147   2.052   1.214  0.00  0.00    +0.089 A 
ATOM     17  C   UNL     1      -8.984   2.237   2.307  0.00  0.00    +0.080 A 
ATOM     18  C   UNL     1     -10.360   2.567   2.024  0.00  0.00    +0.028 A 
ATOM     19  C   UNL     1     -10.716   2.656   0.729  0.00  0.00    +0.048 A 
ATOM     20  S   UNL     1      -9.200   2.305  -0.137  0.00  0.00    -0.081 S 
BRANCH  17  21
ATOM     21  C   UNL     1      -8.503   2.112   3.651  0.00  0.00    +0.102 C 
ATOM     22  N   UNL     1      -8.122   2.012   4.716  0.00  0.00    -0.191 NA
ENDBRANCH  17  21
ENDBRANCH  14  16
ENDBRANCH   3  12
BRANCH   4  23
ATOM     23  C   UNL     1      -3.630   3.630   0.036  0.00  0.00    +0.105 C 
ATOM     24  N   UNL     1      -3.676   4.765   0.042  0.00  0.00    -0.191 NA
ENDBRANCH   4  23
TORSDOF 5
