REMARK  Name = ZINC06427569
REMARK  9 active torsions:
REMARK  status: ('A' for Active; 'I' for Inactive)
REMARK    1  A    between atoms: C_1  and  C_2
REMARK    2  A    between atoms: C_2  and  C_4
REMARK    3  A    between atoms: C_2  and  S_16
REMARK    4  A    between atoms: N_9  and  C_10
REMARK    5  A    between atoms: S_16  and  C_17
REMARK    6  A    between atoms: N_22  and  C_23
REMARK    7  A    between atoms: C_23  and  C_24
REMARK    8  A    between atoms: C_24  and  O_25
REMARK    9  A    between atoms: O_25  and  C_26
REMARK                            x       y       z     vdW  Elec       q    Type
REMARK                         _______ _______ _______ _____ _____    ______ ____
ROOT
ATOM      1  C   UNL     1       6.656   0.858  -0.025  0.00  0.00    +0.029 C 
ATOM      2  C   UNL     1       5.979   1.246   1.291  0.00  0.00    +0.136 C 
ENDROOT
BRANCH   2   3
ATOM      3  C   UNL     1       4.565   0.725   1.301  0.00  0.00    +0.233 C 
ATOM      4  O   UNL     1       4.300  -0.295   1.901  0.00  0.00    -0.274 OA
ATOM      5  N   UNL     1       3.596   1.392   0.645  0.00  0.00    -0.239 N 
ATOM      6  C   UNL     1       2.331   0.926   0.654  0.00  0.00    +0.306 C 
ATOM      7  O   UNL     1       2.065  -0.097   1.255  0.00  0.00    -0.252 OA
ATOM      8  N   UNL     1       1.362   1.593  -0.002  0.00  0.00    -0.296 N 
ATOM      9  H   UNL     1       3.836   2.317   0.101  0.00  0.00    +0.159 HD
ATOM     10  H   UNL     1       1.602   2.518  -0.546  0.00  0.00    +0.151 HD
BRANCH   8  11
ATOM     11  C   UNL     1      -0.013   1.086   0.008  0.00  0.00    +0.074 C 
ATOM     12  C   UNL     1      -0.729   1.579   1.267  0.00  0.00    +0.022 C 
ATOM     13  C   UNL     1      -2.164   1.050   1.278  0.00  0.00    +0.002 C 
ATOM     14  C   UNL     1      -2.904   1.556   0.038  0.00  0.00    +0.000 C 
ATOM     15  C   UNL     1      -2.188   1.063  -1.221  0.00  0.00    +0.002 C 
ATOM     16  C   UNL     1      -0.753   1.593  -1.232  0.00  0.00    +0.022 C 
ENDBRANCH   8  11
ENDBRANCH   2   3
BRANCH   2  17
ATOM     17  S   UNL     1       6.899   0.528   2.679  0.00  0.00    -0.084 S 
BRANCH  17  18
ATOM     18  C   UNL     1       8.463   1.337   2.618  0.00  0.00    +0.161 A 
ATOM     19  N   UNL     1       8.900   2.250   1.772  0.00  0.00    -0.133 NA
ATOM     20  N   UNL     1      10.171   2.758   1.909  0.00  0.00    -0.125 NA
ATOM     21  C   UNL     1      10.950   2.323   2.880  0.00  0.00    +0.182 A 
ATOM     22  S   UNL     1       9.885   1.134   3.681  0.00  0.00    -0.025 S 
ATOM     23  N   UNL     1      12.253   2.690   3.194  0.00  0.00    -0.320 N 
ATOM     24  H   UNL     1      12.766   2.223   4.048  0.00  0.00    +0.148 HD
BRANCH  23  25
ATOM     25  C   UNL     1      12.944   3.700   2.389  0.00  0.00    +0.131 C 
BRANCH  25  26
ATOM     26  C   UNL     1      14.354   3.918   2.943  0.00  0.00    +0.178 C 
BRANCH  26  27
ATOM     27  O   UNL     1      15.118   2.721   2.785  0.00  0.00    -0.381 OA
ATOM     28  C   UNL     1      16.457   2.818   3.274  0.00  0.00    +0.194 C 
ENDBRANCH  26  27
ENDBRANCH  25  26
ENDBRANCH  23  25
ENDBRANCH  17  18
ENDBRANCH   2  17
TORSDOF 7
