REMARK  Name = ZINC14480570
REMARK  6 active torsions:
REMARK  status: ('A' for Active; 'I' for Inactive)
REMARK    1  A    between atoms: C_1  and  C_2
REMARK    2  A    between atoms: C_2  and  O_3
REMARK    3  A    between atoms: O_3  and  C_4
REMARK    4  A    between atoms: C_7  and  C_10
REMARK    5  A    between atoms: C_20  and  N_27
REMARK    6  A    between atoms: C_23  and  O_26
REMARK                            x       y       z     vdW  Elec       q    Type
REMARK                         _______ _______ _______ _____ _____    ______ ____
ROOT
ATOM      1  C   UNL     1       1.013  -6.106  -1.820  0.00  0.00    +0.105 C 
ATOM      2  C   UNL     1       2.408  -6.553  -1.424  0.00  0.00    +0.029 C 
ATOM      3  C   UNL     1       2.776  -6.468   0.063  0.00  0.00    +0.033 C 
ATOM      4  C   UNL     1       3.795  -7.601   0.194  0.00  0.00    -0.030 C 
ATOM      5  C   UNL     1       3.576  -8.518  -0.741  0.00  0.00    -0.023 C 
ATOM      6  C   UNL     1       2.405  -8.104  -1.571  0.00  0.00    +0.051 C 
ATOM      7  C   UNL     1       2.286  -8.423  -3.011  0.00  0.00    +0.014 A 
ATOM      8  C   UNL     1       2.914  -9.510  -3.583  0.00  0.00    +0.132 A 
ATOM      9  C   UNL     1       2.763  -9.776  -4.930  0.00  0.00    +0.037 A 
ATOM     10  C   UNL     1       1.978  -8.951  -5.715  0.00  0.00    +0.049 A 
ATOM     11  C   UNL     1       1.347  -7.855  -5.153  0.00  0.00    +0.138 A 
ATOM     12  C   UNL     1       1.500  -7.576  -3.796  0.00  0.00    +0.076 A 
ATOM     13  N   UNL     1       0.876  -6.440  -3.255  0.00  0.00    -0.334 N 
ATOM     14  H   UNL     1       0.350  -5.864  -3.830  0.00  0.00    +0.147 HD
ENDROOT
BRANCH   1  18
ATOM     15  C   UNL     1       0.593  -1.893  -1.239  0.00  0.00    +0.121 A 
ATOM     16  C   UNL     1       0.057  -2.778  -0.315  0.00  0.00    +0.046 A 
ATOM     17  C   UNL     1       0.194  -4.140  -0.506  0.00  0.00    +0.009 A 
ATOM     18  C   UNL     1       0.865  -4.620  -1.615  0.00  0.00    -0.027 A 
ATOM     19  C   UNL     1       1.400  -3.739  -2.537  0.00  0.00    +0.009 A 
ATOM     20  C   UNL     1       1.261  -2.377  -2.354  0.00  0.00    +0.046 A 
BRANCH  15  21
ATOM     21  O   UNL     1       0.460  -0.553  -1.054  0.00  0.00    -0.492 OA
BRANCH  21  23
ATOM     22  C   UNL     1      -0.289   1.403   0.152  0.00  0.00    +0.048 C 
ATOM     23  C   UNL     1      -0.240  -0.126   0.117  0.00  0.00    +0.225 C 
ENDBRANCH  21  23
ENDBRANCH  15  21
ENDBRANCH   1  18
BRANCH   8  24
ATOM     24  N   UNL     1       3.756 -10.396  -2.748  0.00  0.00    +0.057 N 
ATOM     25  O   UNL     1       4.893 -10.637  -3.078  0.00  0.00    -0.126 OA
ATOM     26  O   UNL     1       3.305 -10.879  -1.735  0.00  0.00    -0.126 OA
ENDBRANCH   8  24
BRANCH  11  27
ATOM     27  O   UNL     1       0.574  -7.047  -5.928  0.00  0.00    -0.505 OA
ATOM     28  H   UNL     1      -0.354  -7.313  -5.970  0.00  0.00    +0.292 HD
ENDBRANCH  11  27
TORSDOF 5
