REMARK  Name = ZINC40724915
REMARK  2 active torsions:
REMARK  status: ('A' for Active; 'I' for Inactive)
REMARK    1  A    between atoms: C_14  and  N_25
REMARK    2  A    between atoms: C_15  and  N_19
REMARK                            x       y       z     vdW  Elec       q    Type
REMARK                         _______ _______ _______ _____ _____    ______ ____
ROOT
ATOM      1  C   UNL     1       2.353   1.421   2.402  0.00  0.00    +0.005 A 
ATOM      2  C   UNL     1       2.359   2.080   1.179  0.00  0.00    +0.018 A 
ATOM      3  C   UNL     1       2.399   1.342   0.013  0.00  0.00    +0.084 A 
ATOM      4  N   UNL     1       2.431   0.023   0.048  0.00  0.00    -0.350 N 
ATOM      5  C   UNL     1       2.425  -0.642   1.193  0.00  0.00    +0.099 A 
ATOM      6  C   UNL     1       2.386   0.038   2.406  0.00  0.00    +0.042 A 
ATOM      7  N   UNL     1       2.459  -2.031   1.182  0.00  0.00    -0.314 N 
ATOM      8  C   UNL     1       2.586  -2.786   2.437  0.00  0.00    +0.125 C 
ATOM      9  C   UNL     1       1.420  -3.778   2.532  0.00  0.00    +0.125 C 
ATOM     10  N   UNL     1       1.329  -4.519   1.266  0.00  0.00    -0.311 N 
ATOM     11  C   UNL     1       1.203  -3.764   0.012  0.00  0.00    +0.125 C 
ATOM     12  C   UNL     1       2.363  -2.772  -0.083  0.00  0.00    +0.125 C 
ATOM     13  C   UNL     1       1.363  -5.908   1.256  0.00  0.00    +0.147 A 
ATOM     14  C   UNL     1       0.178  -6.646   1.251  0.00  0.00    +0.106 A 
ATOM     15  C   UNL     1       0.269  -8.039   1.240  0.00  0.00    +0.147 A 
ATOM     16  N   UNL     1       1.473  -8.606   1.235  0.00  0.00    -0.219 NA
ATOM     17  C   UNL     1       2.568  -7.873   1.240  0.00  0.00    +0.225 A 
ATOM     18  N   UNL     1       2.526  -6.556   1.245  0.00  0.00    -0.219 NA
ATOM     19  H   UNL     1       2.459  -0.471  -0.786  0.00  0.00    +0.166 HD
ENDROOT
BRANCH  15  20
ATOM     20  N   UNL     1      -0.880  -8.821   1.236  0.00  0.00    -0.314 N 
ATOM     21  C   UNL     1      -1.558  -9.148  -0.026  0.00  0.00    +0.106 C 
ATOM     22  C   UNL     1      -1.722 -10.668  -0.118  0.00  0.00    +0.019 C 
ATOM     23  C   UNL     1      -2.443 -11.176   1.133  0.00  0.00    +0.003 C 
ATOM     24  C   UNL     1      -1.605 -10.855   2.372  0.00  0.00    +0.019 C 
ATOM     25  C   UNL     1      -1.436  -9.342   2.492  0.00  0.00    +0.106 C 
ENDBRANCH  15  20
BRANCH  14  26
ATOM     26  N   UNL     1      -1.071  -6.005   1.258  0.00  0.00    -0.353 N 
ATOM     27  H   UNL     1      -1.121  -5.038   1.192  0.00  0.00    +0.143 HD
ATOM     28  H   UNL     1      -1.885  -6.528   1.328  0.00  0.00    +0.143 HD
ENDBRANCH  14  26
TORSDOF 2
