REMARK  Name = ZINC20530724
REMARK  4 active torsions:
REMARK  status: ('A' for Active; 'I' for Inactive)
REMARK    1  A    between atoms: C_7  and  N_8
REMARK    2  A    between atoms: N_8  and  C_9
REMARK    3  A    between atoms: C_16  and  C_20
REMARK    4  A    between atoms: C_23  and  N_26
REMARK                            x       y       z     vdW  Elec       q    Type
REMARK                         _______ _______ _______ _____ _____    ______ ____
ROOT
ATOM      1  C   UNL     1      -0.317   1.332  -0.046  0.00  0.00    +0.001 A 
ATOM      2  C   UNL     1       0.811   2.121  -0.113  0.00  0.00    +0.001 A 
ATOM      3  C   UNL     1       2.072   1.536  -0.164  0.00  0.00    +0.012 A 
ATOM      4  C   UNL     1       2.195   0.160  -0.148  0.00  0.00    +0.031 A 
ATOM      5  C   UNL     1       1.047  -0.648  -0.080  0.00  0.00    +0.007 A 
ATOM      6  C   UNL     1      -0.206  -0.053  -0.029  0.00  0.00    +0.010 A 
ATOM      7  C   UNL     1       1.476  -2.067  -0.078  0.00  0.00    +0.048 C 
ATOM      8  C   UNL     1       2.857  -2.124  -0.144  0.00  0.00    +0.051 C 
ATOM      9  C   UNL     1       3.373  -0.751  -0.191  0.00  0.00    +0.196 C 
ATOM     10  O   UNL     1       4.541  -0.419  -0.252  0.00  0.00    -0.287 OA
ENDROOT
BRANCH   8  11
ATOM     11  C   UNL     1       3.672  -3.358  -0.163  0.00  0.00    -0.012 A 
ATOM     12  C   UNL     1       3.683  -4.209   0.943  0.00  0.00    +0.011 A 
ATOM     13  C   UNL     1       4.445  -5.358   0.918  0.00  0.00    +0.033 A 
ATOM     14  C   UNL     1       5.200  -5.667  -0.199  0.00  0.00    +0.126 A 
ATOM     15  C   UNL     1       5.195  -4.828  -1.299  0.00  0.00    +0.033 A 
ATOM     16  C   UNL     1       4.431  -3.679  -1.290  0.00  0.00    +0.011 A 
BRANCH  14  17
ATOM     17  N   UNL     1       6.016  -6.902  -0.219  0.00  0.00    +0.056 N 
ATOM     18  O   UNL     1       6.023  -7.637   0.741  0.00  0.00    -0.126 OA
ATOM     19  O   UNL     1       6.677  -7.175  -1.194  0.00  0.00    -0.126 OA
ENDBRANCH  14  17
ENDBRANCH   8  11
BRANCH   7  20
ATOM     20  N   UNL     1       0.640  -3.149  -0.021  0.00  0.00    -0.328 N 
ATOM     21  H   UNL     1       0.676  -3.827  -0.714  0.00  0.00    +0.148 HD
BRANCH  20  22
ATOM     22  C   UNL     1      -0.310  -3.283   1.086  0.00  0.00    +0.138 C 
ATOM     23  C   UNL     1      -1.679  -3.690   0.536  0.00  0.00    +0.038 C 
ATOM     24  C   UNL     1      -2.664  -3.848   1.699  0.00  0.00    +0.004 C 
ATOM     25  C   UNL     1      -2.118  -4.887   2.682  0.00  0.00    +0.015 C 
ATOM     26  C   UNL     1      -0.736  -4.445   3.169  0.00  0.00    +0.082 C 
ATOM     27  N   UNL     1       0.169  -4.309   2.020  0.00  0.00    -0.299 NA
ATOM     28  H   UNL     1       0.294  -5.194   1.552  0.00  0.00    +0.124 HD
ENDBRANCH  20  22
ENDBRANCH   7  20
TORSDOF 4
