REMARK  Name = ZINC59293355
REMARK  9 active torsions:
REMARK  status: ('A' for Active; 'I' for Inactive)
REMARK    1  A    between atoms: C_1  and  C_2
REMARK    2  A    between atoms: C_2  and  N_3
REMARK    3  A    between atoms: C_13  and  C_26
REMARK    4  A    between atoms: C_14  and  N_25
REMARK    5  A    between atoms: C_16  and  C_24
REMARK    6  A    between atoms: C_17  and  C_18
REMARK    7  A    between atoms: C_18  and  O_20
REMARK    8  A    between atoms: O_20  and  C_21
REMARK    9  A    between atoms: C_21  and  C_22
REMARK                            x       y       z     vdW  Elec       q    Type
REMARK                         _______ _______ _______ _____ _____    ______ ____
ROOT
ATOM      1  N   UNL     1      -1.373  -0.472   0.255  0.00  0.00    -0.270 N 
ATOM      2  C   UNL     1      -1.980  -0.541   1.510  0.00  0.00    +0.041 A 
ATOM      3  C   UNL     1      -1.497  -0.214   2.775  0.00  0.00    +0.024 A 
ATOM      4  C   UNL     1      -2.300  -0.370   3.885  0.00  0.00    +0.002 A 
ATOM      5  C   UNL     1      -3.590  -0.852   3.753  0.00  0.00    +0.000 A 
ATOM      6  C   UNL     1      -4.077  -1.179   2.500  0.00  0.00    +0.007 A 
ATOM      7  C   UNL     1      -3.278  -1.024   1.390  0.00  0.00    -0.001 A 
ATOM      8  C   UNL     1      -3.497  -1.282  -0.080  0.00  0.00    +0.148 C 
ATOM      9  C   UNL     1      -2.193  -0.881  -0.730  0.00  0.00    +0.240 C 
ATOM     10  O   UNL     1      -1.934  -0.924  -1.914  0.00  0.00    -0.274 OA
ATOM     11  C   UNL     1      -3.780  -2.737  -0.321  0.00  0.00    +0.110 C 
ATOM     12  C   UNL     1      -5.035  -3.151  -0.628  0.00  0.00    +0.199 C 
ATOM     13  O   UNL     1      -6.056  -2.281  -0.726  0.00  0.00    -0.445 OA
ATOM     14  C   UNL     1      -5.813  -0.971  -0.889  0.00  0.00    +0.116 C 
ATOM     15  C   UNL     1      -4.619  -0.432  -0.601  0.00  0.00    +0.099 C 
ATOM     16  C   UNL     1      -6.912  -0.081  -1.411  0.00  0.00    +0.087 C 
ENDROOT
BRANCH  12  17
ATOM     17  N   UNL     1      -5.267  -4.487  -0.844  0.00  0.00    -0.328 N 
ATOM     18  H   UNL     1      -4.538  -5.123  -0.776  0.00  0.00    +0.145 HD
ATOM     19  H   UNL     1      -6.161  -4.794  -1.064  0.00  0.00    +0.145 HD
ENDBRANCH  12  17
BRANCH   1  21
ATOM     20  C   UNL     1      -0.000   1.525  -0.077  0.00  0.00    +0.025 C 
ATOM     21  C   UNL     1      -0.004  -0.001   0.034  0.00  0.00    +0.110 C 
ENDBRANCH   1  21
BRANCH  15  22
ATOM     22  C   UNL     1      -4.415   0.957  -0.790  0.00  0.00    +0.340 C 
ATOM     23  O   UNL     1      -3.310   1.438  -0.625  0.00  0.00    -0.245 OA
BRANCH  22  24
ATOM     24  O   UNL     1      -5.447   1.747  -1.153  0.00  0.00    -0.457 OA
BRANCH  24  25
ATOM     25  C   UNL     1      -5.197   3.153  -1.215  0.00  0.00    +0.259 C 
BRANCH  25  26
ATOM     26  C   UNL     1      -6.482   3.879  -1.516  0.00  0.00    +0.006 C 
ATOM     27  C   UNL     1      -6.799   4.957  -0.842  0.00  0.00    +0.007 C 
ENDBRANCH  25  26
ENDBRANCH  24  25
ENDBRANCH  22  24
ENDBRANCH  15  22
BRANCH  11  28
ATOM     28  C   UNL     1      -2.719  -3.693  -0.225  0.00  0.00    +0.102 C 
ATOM     29  N   UNL     1      -1.876  -4.452  -0.149  0.00  0.00    -0.191 NA
ENDBRANCH  11  28
TORSDOF 7
