REMARK  Name = ZINC44649448
REMARK  8 active torsions:
REMARK  status: ('A' for Active; 'I' for Inactive)
REMARK    1  A    between atoms: C_1  and  C_2
REMARK    2  A    between atoms: C_5  and  C_14
REMARK    3  A    between atoms: C_12  and  C_13
REMARK    4  A    between atoms: C_14  and  O_15
REMARK    5  A    between atoms: O_15  and  C_16
REMARK    6  A    between atoms: C_16  and  C_18
REMARK    7  A    between atoms: C_20  and  C_30
REMARK    8  A    between atoms: C_24  and  C_28
REMARK                            x       y       z     vdW  Elec       q    Type
REMARK                         _______ _______ _______ _____ _____    ______ ____
ROOT
ATOM      1  O   UNL     1       0.022  -3.069  -4.840  0.00  0.00    -0.459 OA
ENDROOT
BRANCH   1   2
ATOM      2  C   UNL     1       0.009  -2.593  -6.095  0.00  0.00    +0.325 C 
ATOM      3  O   UNL     1      -0.009  -1.401  -6.289  0.00  0.00    -0.249 OA
BRANCH   2   4
ATOM      4  C   UNL     1       0.017  -3.546  -7.263  0.00  0.00    +0.188 C 
ATOM      5  C   UNL     1       0.749  -2.949  -8.443  0.00  0.00    -0.034 C 
ATOM      6  C   UNL     1       0.053  -2.750  -9.573  0.00  0.00    +0.071 C 
ATOM      7  C   UNL     1      -1.376  -3.131  -9.575  0.00  0.00    +0.112 C 
ATOM      8  N   UNL     1      -2.109  -2.959 -10.649  0.00  0.00    -0.228 NA
ATOM      9  C   UNL     1      -1.599  -2.445 -11.757  0.00  0.00    +0.121 C 
ATOM     10  N   UNL     1      -0.347  -2.072 -11.871  0.00  0.00    -0.162 NA
ATOM     11  C   UNL     1       0.534  -2.179 -10.871  0.00  0.00    +0.271 C 
ATOM     12  O   UNL     1       1.692  -1.823 -11.012  0.00  0.00    -0.268 OA
ATOM     13  C   UNL     1      -2.505  -2.280 -12.951  0.00  0.00    +0.085 C 
ATOM     14  S   UNL     1      -1.676  -3.766  -7.944  0.00  0.00    -0.086 S 
ATOM     15  C   UNL     1       2.209  -2.589  -8.354  0.00  0.00    +0.041 C 
ENDBRANCH   2   4
ENDBRANCH   1   2
BRANCH   1  16
ATOM     16  C   UNL     1       0.013  -2.109  -3.782  0.00  0.00    +0.268 C 
BRANCH  16  21
ATOM     17  C   UNL     1      -0.018   1.503   0.010  0.00  0.00    +0.044 C 
ATOM     18  C   UNL     1       0.002  -0.004   0.002  0.00  0.00    -0.047 A 
ATOM     19  C   UNL     1       0.006  -0.676  -1.188  0.00  0.00    +0.015 A 
ATOM     20  C   UNL     1       0.025  -2.074  -1.195  0.00  0.00    +0.024 A 
ATOM     21  C   UNL     1       0.029  -2.824  -2.455  0.00  0.00    +0.007 A 
ATOM     22  C   UNL     1       0.049  -4.179  -2.393  0.00  0.00    +0.099 A 
ATOM     23  C   UNL     1       0.063  -4.825  -1.138  0.00  0.00    +0.338 A 
ATOM     24  O   UNL     1       0.080  -6.042  -1.097  0.00  0.00    -0.245 OA
ATOM     25  O   UNL     1       0.059  -4.131   0.011  0.00  0.00    -0.422 OA
ATOM     26  C   UNL     1       0.040  -2.781   0.019  0.00  0.00    +0.140 A 
ATOM     27  C   UNL     1       0.036  -2.078   1.217  0.00  0.00    +0.050 A 
ATOM     28  C   UNL     1       0.023  -0.699   1.202  0.00  0.00    -0.044 A 
ATOM     29  C   UNL     1       0.025   0.061   2.504  0.00  0.00    +0.044 C 
ENDBRANCH  16  21
ENDBRANCH   1  16
TORSDOF 4
