REMARK  Name = ZINC55888135
REMARK  6 active torsions:
REMARK  status: ('A' for Active; 'I' for Inactive)
REMARK    1  A    between atoms: C_1  and  C_2
REMARK    2  A    between atoms: C_7  and  C_13
REMARK    3  A    between atoms: C_13  and  N_14
REMARK    4  A    between atoms: N_14  and  C_15
REMARK    5  A    between atoms: C_20  and  N_21
REMARK    6  A    between atoms: C_24  and  O_27
REMARK                            x       y       z     vdW  Elec       q    Type
REMARK                         _______ _______ _______ _____ _____    ______ ____
ROOT
ATOM      1  N   UNL     1      -1.141  -6.766   0.489  0.00  0.00    -0.337 N 
ATOM      2  H   UNL     1      -1.814  -6.138   0.181  0.00  0.00    +0.147 HD
ENDROOT
BRANCH   1   3
ATOM      3  C   UNL     1      -1.360  -8.140   0.370  0.00  0.00    +0.047 A 
ATOM      4  C   UNL     1      -0.352  -9.037   0.700  0.00  0.00    +0.025 A 
ATOM      5  C   UNL     1      -0.572 -10.395   0.582  0.00  0.00    +0.002 A 
ATOM      6  C   UNL     1      -1.795 -10.862   0.135  0.00  0.00    +0.002 A 
ATOM      7  C   UNL     1      -2.800  -9.972  -0.194  0.00  0.00    +0.023 A 
ATOM      8  C   UNL     1      -2.589  -8.613  -0.072  0.00  0.00    +0.035 A 
BRANCH   8   9
ATOM      9  N   UNL     1      -3.608  -7.714  -0.400  0.00  0.00    -0.392 NA
ATOM     10  C   UNL     1      -4.047  -7.955  -1.780  0.00  0.00    +0.087 C 
ATOM     11  C   UNL     1      -5.105  -6.921  -2.170  0.00  0.00    +0.048 C 
ATOM     12  C   UNL     1      -6.303  -7.043  -1.224  0.00  0.00    +0.117 C 
ATOM     13  C   UNL     1      -5.821  -6.863   0.219  0.00  0.00    +0.048 C 
ATOM     14  C   UNL     1      -4.736  -7.899   0.521  0.00  0.00    +0.087 C 
ATOM     15  H   UNL     1      -3.261  -6.770  -0.320  0.00  0.00    +0.126 HD
BRANCH  12  16
ATOM     16  O   UNL     1      -7.263  -6.032  -1.536  0.00  0.00    -0.392 OA
ATOM     17  H   UNL     1      -8.050  -6.049  -0.975  0.00  0.00    +0.210 HD
ENDBRANCH  12  16
ENDBRANCH   8   9
ENDBRANCH   1   3
BRANCH   1  18
ATOM     18  C   UNL     1       0.105  -6.271   1.079  0.00  0.00    +0.155 C 
BRANCH  18  25
ATOM     19  C   UNL     1       0.041   1.490  -0.131  0.00  0.00    +0.045 C 
ATOM     20  C   UNL     1       0.053  -0.017  -0.118  0.00  0.00    -0.034 A 
ATOM     21  C   UNL     1       0.062  -0.726  -1.328  0.00  0.00    +0.008 A 
ATOM     22  C   UNL     1       0.074  -2.089  -1.308  0.00  0.00    +0.045 A 
ATOM     23  C   UNL     1       0.077  -2.762  -0.072  0.00  0.00    +0.118 A 
ATOM     24  N   UNL     1       0.089  -4.094  -0.051  0.00  0.00    -0.343 N 
ATOM     25  C   UNL     1       0.093  -4.764   1.091  0.00  0.00    +0.040 A 
ATOM     26  C   UNL     1       0.084  -4.083   2.293  0.00  0.00    +0.093 A 
ATOM     27  C   UNL     1       0.072  -2.684   2.278  0.00  0.00    +0.258 A 
ATOM     28  O   UNL     1       0.064  -2.053   3.323  0.00  0.00    -0.267 OA
ATOM     29  N   UNL     1       0.069  -2.043   1.090  0.00  0.00    -0.269 N 
ATOM     30  C   UNL     1       0.062  -0.681   1.059  0.00  0.00    +0.099 A 
ATOM     31  H   UNL     1       0.095  -4.583  -0.888  0.00  0.00    +0.167 HD
ENDBRANCH  18  25
ENDBRANCH   1  18
TORSDOF 5
