REMARK  Name = ZINC00867229
REMARK  9 active torsions:
REMARK  status: ('A' for Active; 'I' for Inactive)
REMARK    1  A    between atoms: C_1  and  C_2
REMARK    2  A    between atoms: C_5  and  N_9
REMARK    3  A    between atoms: C_10  and  C_12
REMARK    4  A    between atoms: C_13  and  C_30
REMARK    5  A    between atoms: C_18  and  C_20
REMARK    6  A    between atoms: C_24  and  O_28
REMARK    7  A    between atoms: C_25  and  O_26
REMARK    8  A    between atoms: O_26  and  C_27
REMARK    9  A    between atoms: O_28  and  C_29
REMARK                            x       y       z     vdW  Elec       q    Type
REMARK                         _______ _______ _______ _____ _____    ______ ____
ROOT
ATOM      1  C   UNL     1      -0.432   2.353   2.691  0.00  0.00    +0.056 C 
ATOM      2  C   UNL     1      -0.743   2.704   3.957  0.00  0.00    +0.017 C 
ATOM      3  N   UNL     1       0.220   2.787   4.921  0.00  0.00    -0.300 N 
ATOM      4  C   UNL     1       1.516   2.534   4.700  0.00  0.00    +0.135 C 
ATOM      5  S   UNL     1       2.621   2.674   6.001  0.00  0.00    -0.019 S 
ATOM      6  N   UNL     1       1.980   2.172   3.487  0.00  0.00    -0.315 N 
ATOM      7  C   UNL     1       1.020   2.055   2.377  0.00  0.00    +0.143 C 
ATOM      8  C   UNL     1      -2.175   3.010   4.311  0.00  0.00    +0.061 C 
ATOM      9  H   UNL     1      -0.050   3.042   5.817  0.00  0.00    +0.154 HD
ATOM     10  H   UNL     1       2.923   1.994   3.349  0.00  0.00    +0.149 HD
ENDROOT
BRANCH   7  11
ATOM     11  C   UNL     1       1.460   2.990   1.281  0.00  0.00    +0.023 A 
ATOM     12  C   UNL     1       1.331   4.357   1.445  0.00  0.00    +0.009 A 
ATOM     13  C   UNL     1       1.728   5.218   0.439  0.00  0.00    +0.004 A 
ATOM     14  C   UNL     1       2.262   4.716  -0.734  0.00  0.00    +0.049 A 
ATOM     15  C   UNL     1       2.400   3.348  -0.902  0.00  0.00    +0.162 A 
ATOM     16  C   UNL     1       2.000   2.481   0.111  0.00  0.00    +0.167 A 
BRANCH  16  17
ATOM     17  O   UNL     1       2.133   1.137  -0.050  0.00  0.00    -0.491 OA
ATOM     18  C   UNL     1       3.403   0.568   0.275  0.00  0.00    +0.277 C 
ENDBRANCH  16  17
BRANCH  15  19
ATOM     19  O   UNL     1       2.925   2.853  -2.055  0.00  0.00    -0.491 OA
ATOM     20  C   UNL     1       3.314   3.801  -3.050  0.00  0.00    +0.277 C 
ENDBRANCH  15  19
ENDBRANCH   7  11
BRANCH   1  22
ATOM     21  N   UNL     1      -1.090   1.946   0.425  0.00  0.00    -0.282 N 
ATOM     22  C   UNL     1      -1.430   2.268   1.689  0.00  0.00    +0.248 C 
ATOM     23  O   UNL     1      -2.595   2.485   1.970  0.00  0.00    -0.270 OA
ATOM     24  H   UNL     1      -0.157   1.828   0.189  0.00  0.00    +0.155 HD
BRANCH  21  29
ATOM     25  C   UNL     1      -5.121   1.283  -3.512  0.00  0.00    +0.045 C 
ATOM     26  C   UNL     1      -4.050   1.459  -2.466  0.00  0.00    -0.032 A 
ATOM     27  C   UNL     1      -4.159   2.471  -1.531  0.00  0.00    +0.006 A 
ATOM     28  C   UNL     1      -3.182   2.632  -0.568  0.00  0.00    +0.023 A 
ATOM     29  C   UNL     1      -2.084   1.782  -0.546  0.00  0.00    +0.035 A 
ATOM     30  C   UNL     1      -1.976   0.766  -1.486  0.00  0.00    +0.043 A 
ATOM     31  C   UNL     1      -2.960   0.607  -2.444  0.00  0.00    +0.046 A 
ATOM     32 CL   UNL     1      -2.827  -0.663  -3.621  0.00  0.00    -0.083 Cl
ENDBRANCH  21  29
ENDBRANCH   1  22
TORSDOF 5
