REMARK  Name = ZINC09332871
REMARK  10 active torsions:
REMARK  status: ('A' for Active; 'I' for Inactive)
REMARK    1  A    between atoms: C_1  and  C_2
REMARK    2  A    between atoms: C_4  and  C_30
REMARK    3  A    between atoms: C_5  and  N_9
REMARK    4  A    between atoms: C_6  and  C_8
REMARK    5  A    between atoms: C_13  and  C_14
REMARK    6  A    between atoms: C_16  and  O_23
REMARK    7  A    between atoms: C_17  and  O_22
REMARK    8  A    between atoms: C_18  and  O_20
REMARK    9  A    between atoms: O_20  and  C_21
REMARK   10  A    between atoms: O_23  and  C_24
REMARK                            x       y       z     vdW  Elec       q    Type
REMARK                         _______ _______ _______ _____ _____    ______ ____
ROOT
ATOM      1  N   UNL     1       0.045  -4.169  -0.254  0.00  0.00    -0.188 N 
ATOM      2  C   UNL     1      -1.071  -4.871   0.039  0.00  0.00    +0.264 C 
ATOM      3  O   UNL     1      -2.029  -4.337   0.566  0.00  0.00    -0.269 OA
ATOM      4  C   UNL     1      -1.090  -6.307  -0.302  0.00  0.00    +0.102 C 
ATOM      5  C   UNL     1      -2.195  -7.100  -0.037  0.00  0.00    +0.026 C 
ATOM      6  C   UNL     1       0.117  -6.858  -0.938  0.00  0.00    +0.276 C 
ATOM      7  O   UNL     1       0.183  -8.161  -1.282  0.00  0.00    -0.268 OA
ATOM      8  N   UNL     1       1.137  -6.047  -1.164  0.00  0.00    -0.123 NA
ATOM      9  C   UNL     1       1.099  -4.757  -0.840  0.00  0.00    +0.340 C 
ATOM     10  O   UNL     1       2.076  -4.073  -1.085  0.00  0.00    -0.250 OA
ENDROOT
BRANCH   1  15
ATOM     11  C   UNL     1       0.270   1.362   0.995  0.00  0.00    +0.044 C 
ATOM     12  C   UNL     1       0.210  -0.107   0.663  0.00  0.00    -0.050 A 
ATOM     13  C   UNL     1      -0.270  -0.517  -0.567  0.00  0.00    +0.008 A 
ATOM     14  C   UNL     1      -0.326  -1.863  -0.874  0.00  0.00    -0.028 A 
ATOM     15  C   UNL     1       0.101  -2.804   0.054  0.00  0.00    +0.052 A 
ATOM     16  C   UNL     1       0.583  -2.388   1.288  0.00  0.00    -0.028 A 
ATOM     17  C   UNL     1       0.641  -1.041   1.587  0.00  0.00    +0.008 A 
ATOM     18  C   UNL     1       1.047  -3.406   2.298  0.00  0.00    +0.046 C 
ATOM     19  C   UNL     1      -0.850  -2.310  -2.214  0.00  0.00    +0.046 C 
ENDBRANCH   1  15
BRANCH   5  20
ATOM     20  C   UNL     1      -2.100  -8.511  -0.152  0.00  0.00    -0.017 A 
ATOM     21  C   UNL     1      -1.030  -9.196   0.446  0.00  0.00    +0.057 A 
ATOM     22  C   UNL     1      -0.942 -10.568   0.331  0.00  0.00    +0.166 A 
ATOM     23  C   UNL     1      -1.913 -11.274  -0.379  0.00  0.00    +0.201 A 
ATOM     24  C   UNL     1      -2.977 -10.598  -0.975  0.00  0.00    +0.166 A 
ATOM     25  C   UNL     1      -3.078  -9.227  -0.860  0.00  0.00    +0.057 A 
BRANCH  24  26
ATOM     26  O   UNL     1      -3.921 -11.293  -1.666  0.00  0.00    -0.491 OA
ATOM     27  C   UNL     1      -4.983 -10.537  -2.251  0.00  0.00    +0.277 C 
ENDBRANCH  24  26
BRANCH  23  28
ATOM     28  O   UNL     1      -1.822 -12.624  -0.489  0.00  0.00    -0.501 OA
ATOM     29  H   UNL     1      -2.268 -13.108   0.219  0.00  0.00    +0.292 HD
ENDBRANCH  23  28
BRANCH  22  30
ATOM     30  O   UNL     1       0.094 -11.232   0.909  0.00  0.00    -0.491 OA
ATOM     31  C   UNL     1       1.053 -10.447   1.620  0.00  0.00    +0.277 C 
ENDBRANCH  22  30
ENDBRANCH   5  20
TORSDOF 5
