REMARK  Name = ZINC09777236
REMARK  13 active torsions:
REMARK  status: ('A' for Active; 'I' for Inactive)
REMARK    1  A    between atoms: C_1  and  C_2
REMARK    2  A    between atoms: C_5  and  N_9
REMARK    3  A    between atoms: C_7  and  C_8
REMARK    4  A    between atoms: C_10  and  C_12
REMARK    5  A    between atoms: N_23  and  C_40
REMARK    6  A    between atoms: C_24  and  C_26
REMARK    7  A    between atoms: N_28  and  C_29
REMARK    8  A    between atoms: C_34  and  C_39
REMARK    9  A    between atoms: C_36  and  C_38
REMARK   10  A    between atoms: C_40  and  C_41
REMARK   11  A    between atoms: C_41  and  C_42
REMARK   12  A    between atoms: C_42  and  C_43
REMARK   13  A    between atoms: C_42  and  C_44
REMARK                            x       y       z     vdW  Elec       q    Type
REMARK                         _______ _______ _______ _____ _____    ______ ____
ROOT
ATOM      1  C   UNL     1       2.171   3.808   3.016  0.00  0.00    +0.123 C 
ATOM      2  C   UNL     1       3.397   2.840   2.970  0.00  0.00    +0.155 C 
ATOM      3  C   UNL     1       2.926   1.497   3.540  0.00  0.00    +0.004 C 
ATOM      4  C   UNL     1       2.131   0.932   2.623  0.00  0.00    +0.009 C 
ATOM      5  C   UNL     1       2.089   1.933   1.527  0.00  0.00    +0.127 C 
ATOM      6  C   UNL     1       1.200   3.135   2.029  0.00  0.00    +0.128 C 
ATOM      7  C   UNL     1       0.982   3.885   0.746  0.00  0.00    +0.223 C 
ATOM      8  O   UNL     1       0.743   5.071   0.658  0.00  0.00    -0.275 OA
ATOM      9  N   UNL     1       1.094   3.026  -0.299  0.00  0.00    -0.287 N 
ATOM     10  C   UNL     1       1.524   1.685   0.164  0.00  0.00    +0.198 C 
ATOM     11  O   UNL     1       3.416   2.523   1.531  0.00  0.00    -0.358 OA
ENDROOT
BRANCH   1  13
ATOM     12  N   UNL     1       2.278   4.417   5.411  0.00  0.00    -0.285 N 
ATOM     13  C   UNL     1       1.579   3.862   4.401  0.00  0.00    +0.224 C 
ATOM     14  O   UNL     1       0.474   3.408   4.607  0.00  0.00    -0.275 OA
ATOM     15  H   UNL     1       3.191   4.712   5.265  0.00  0.00    +0.155 HD
BRANCH  12  20
ATOM     16  C   UNL     1      -0.116   5.029  10.518  0.00  0.00    +0.044 C 
ATOM     17  C   UNL     1       0.520   4.867   9.161  0.00  0.00    -0.047 A 
ATOM     18  C   UNL     1      -0.253   4.974   8.020  0.00  0.00    +0.005 A 
ATOM     19  C   UNL     1       0.327   4.825   6.775  0.00  0.00    +0.023 A 
ATOM     20  C   UNL     1       1.688   4.568   6.671  0.00  0.00    +0.034 A 
ATOM     21  C   UNL     1       2.460   4.456   7.819  0.00  0.00    +0.027 A 
ATOM     22  C   UNL     1       1.875   4.612   9.061  0.00  0.00    -0.046 A 
ATOM     23  C   UNL     1       2.714   4.496  10.308  0.00  0.00    +0.044 C 
ENDBRANCH  12  20
ENDBRANCH   1  13
BRANCH  10  24
ATOM     24  C   UNL     1       0.344   0.751   0.243  0.00  0.00    +0.237 C 
ATOM     25  O   UNL     1      -0.784   1.196   0.240  0.00  0.00    -0.274 OA
ATOM     26  N   UNL     1       0.542  -0.581   0.313  0.00  0.00    -0.311 N 
ATOM     27  H   UNL     1       1.444  -0.937   0.311  0.00  0.00    +0.149 HD
BRANCH  26  28
ATOM     28  C   UNL     1      -0.605  -1.489   0.390  0.00  0.00    +0.076 C 
ATOM     29  C   UNL     1      -1.048  -1.627   1.848  0.00  0.00    +0.022 C 
ATOM     30  C   UNL     1      -2.246  -2.576   1.929  0.00  0.00    +0.002 C 
ATOM     31  C   UNL     1      -1.846  -3.949   1.385  0.00  0.00    +0.003 C 
ATOM     32  C   UNL     1      -1.403  -3.811  -0.073  0.00  0.00    -0.009 C 
ATOM     33  C   UNL     1      -0.205  -2.862  -0.154  0.00  0.00    +0.009 C 
ATOM     34  C   UNL     1       0.948  -3.425   0.679  0.00  0.00    +0.009 C 
ATOM     35  C   UNL     1      -1.003  -5.184  -0.617  0.00  0.00    +0.008 C 
ENDBRANCH  26  28
ENDBRANCH  10  24
BRANCH   9  36
ATOM     36  C   UNL     1       0.826   3.378  -1.696  0.00  0.00    +0.109 C 
BRANCH  36  37
ATOM     37  C   UNL     1      -0.647   3.116  -2.014  0.00  0.00    +0.022 C 
BRANCH  37  38
ATOM     38  C   UNL     1      -0.927   3.482  -3.473  0.00  0.00    -0.016 C 
ATOM     39  C   UNL     1      -2.367   3.104  -3.827  0.00  0.00    +0.007 C 
ATOM     40  C   UNL     1      -0.733   4.987  -3.667  0.00  0.00    +0.007 C 
ENDBRANCH  37  38
ENDBRANCH  36  37
ENDBRANCH   9  36
TORSDOF 7
