REMARK  Name = ZINC05340681
REMARK  4 active torsions:
REMARK  status: ('A' for Active; 'I' for Inactive)
REMARK    1  A    between atoms: C_1  and  C_2
REMARK    2  A    between atoms: C_2  and  O_4
REMARK    3  A    between atoms: O_4  and  C_5
REMARK    4  A    between atoms: C_8  and  N_53
REMARK                            x       y       z     vdW  Elec       q    Type
REMARK                         _______ _______ _______ _____ _____    ______ ____
ROOT
ATOM      1  C   UNL     1       2.622  -2.762  -0.025  0.00  0.00    +0.206 C 
ATOM      2  C   UNL     1       2.717  -4.264  -0.286  0.00  0.00    +0.035 C 
ATOM      3  C   UNL     1       1.625  -4.962   0.533  0.00  0.00    -0.060 C 
ATOM      4  C   UNL     1       0.270  -4.600  -0.070  0.00  0.00    +0.020 C 
ATOM      5  C   UNL     1       0.139  -3.107  -0.233  0.00  0.00    -0.042 A 
ATOM      6  C   UNL     1       1.210  -2.275  -0.220  0.00  0.00    +0.003 A 
ATOM      7  C   UNL     1       1.015  -0.887  -0.392  0.00  0.00    -0.011 A 
ATOM      8  C   UNL     1       2.108  -0.003  -0.389  0.00  0.00    +0.009 A 
ATOM      9  C   UNL     1       1.894   1.330  -0.556  0.00  0.00    +0.001 A 
ATOM     10  C   UNL     1       0.606   1.835  -0.730  0.00  0.00    +0.001 A 
ATOM     11  C   UNL     1      -0.475   1.008  -0.739  0.00  0.00    +0.008 A 
ATOM     12  C   UNL     1      -0.292  -0.375  -0.569  0.00  0.00    -0.017 A 
ATOM     13  C   UNL     1      -1.379  -1.264  -0.571  0.00  0.00    +0.009 A 
ATOM     14  C   UNL     1      -1.154  -2.593  -0.408  0.00  0.00    +0.004 A 
ENDROOT
BRANCH   3  24
ATOM     15  C   UNL     1       0.839  -7.112   1.328  0.00  0.00    -0.073 C 
ATOM     16  C   UNL     1       0.840  -8.595   0.957  0.00  0.00    +0.017 C 
ATOM     17  C   UNL     1       2.251  -9.123   0.952  0.00  0.00    -0.048 A 
ATOM     18  C   UNL     1       2.444 -10.496   0.992  0.00  0.00    +0.004 A 
ATOM     19  C   UNL     1       3.720 -11.022   0.985  0.00  0.00    +0.000 A 
ATOM     20  C   UNL     1       4.812 -10.175   0.938  0.00  0.00    +0.000 A 
ATOM     21  C   UNL     1       4.622  -8.809   0.899  0.00  0.00    +0.002 A 
ATOM     22  C   UNL     1       3.340  -8.279   0.908  0.00  0.00    -0.061 A 
ATOM     23  C   UNL     1       3.182  -6.781   0.874  0.00  0.00    -0.042 C 
ATOM     24  N   UNL     1       1.815  -6.428   0.457  0.00  0.00    +0.385 N 
ATOM     25  H   UNL     1       1.671  -6.734  -0.513  0.00  0.00    -0.081 HD
ENDBRANCH   3  24
BRANCH   1  26
ATOM     26  O   UNL     1       3.501  -2.060  -0.943  0.00  0.00    -0.457 OA
BRANCH  26  28
ATOM     27  C   UNL     1       5.741  -1.148  -1.438  0.00  0.00    +0.136 C 
ATOM     28  C   UNL     1       4.793  -1.959  -0.593  0.00  0.00    +0.305 C 
ATOM     29  O   UNL     1       5.196  -2.519   0.399  0.00  0.00    -0.251 OA
ENDBRANCH  26  28
ENDBRANCH   1  26
TORSDOF 3
