REMARK  Name = ZINC15783289
REMARK  3 active torsions:
REMARK  status: ('A' for Active; 'I' for Inactive)
REMARK    1  A    between atoms: C_1  and  C_2
REMARK    2  A    between atoms: C_5  and  S_8
REMARK    3  A    between atoms: S_8  and  C_11
REMARK                            x       y       z     vdW  Elec       q    Type
REMARK                         _______ _______ _______ _____ _____    ______ ____
ROOT
ATOM      1  S   UNL     1       0.002  -0.004   0.002  0.00  0.00    +0.058 S 
ATOM      2  O   UNL     1      -1.243  -0.424  -0.539  0.00  0.00    -0.161 OA
ATOM      3  O   UNL     1       1.248  -0.390  -0.563  0.00  0.00    -0.161 OA
ENDROOT
BRANCH   1   4
ATOM      4  C   UNL     1       0.025  -0.534   1.682  0.00  0.00    +0.247 A 
ATOM      5  C   UNL     1      -1.063  -0.775   2.426  0.00  0.00    +0.078 A 
ATOM      6  C   UNL     1      -0.574  -1.192   3.745  0.00  0.00    +0.022 A 
ATOM      7  C   UNL     1      -1.188  -1.574   4.937  0.00  0.00    +0.012 A 
ATOM      8  C   UNL     1      -0.420  -1.907   6.018  0.00  0.00    +0.001 A 
ATOM      9  C   UNL     1       0.964  -1.866   5.937  0.00  0.00    +0.004 A 
ATOM     10  C   UNL     1       1.589  -1.490   4.767  0.00  0.00    +0.047 A 
ATOM     11  C   UNL     1       0.828  -1.148   3.656  0.00  0.00    +0.137 A 
ATOM     12  O   UNL     1       1.137  -0.750   2.406  0.00  0.00    -0.437 OA
ENDBRANCH   1   4
BRANCH   1  17
ATOM     13  C   UNL     1      -0.080   6.029   0.035  0.00  0.00    +0.044 C 
ATOM     14  C   UNL     1      -0.059   4.522   0.026  0.00  0.00    -0.050 A 
ATOM     15  C   UNL     1       1.147   3.847   0.012  0.00  0.00    +0.005 A 
ATOM     16  C   UNL     1       1.166   2.465   0.004  0.00  0.00    +0.028 A 
ATOM     17  C   UNL     1      -0.022   1.758   0.012  0.00  0.00    +0.097 A 
ATOM     18  C   UNL     1      -1.228   2.433   0.021  0.00  0.00    +0.028 A 
ATOM     19  C   UNL     1      -1.247   3.815   0.033  0.00  0.00    +0.005 A 
ENDBRANCH   1  17
TORSDOF 2
