REMARK  Name = ZINC44714550
REMARK  10 active torsions:
REMARK  status: ('A' for Active; 'I' for Inactive)
REMARK    1  A    between atoms: C_1  and  C_2
REMARK    2  A    between atoms: C_3  and  C_14
REMARK    3  A    between atoms: C_6  and  C_12
REMARK    4  A    between atoms: C_14  and  C_15
REMARK    5  A    between atoms: C_15  and  N_16
REMARK    6  A    between atoms: C_17  and  C_19
REMARK    7  A    between atoms: C_30  and  C_32
REMARK    8  A    between atoms: C_36  and  N_38
REMARK    9  A    between atoms: N_38  and  C_39
REMARK   10  A    between atoms: N_38  and  C_40
REMARK                            x       y       z     vdW  Elec       q    Type
REMARK                         _______ _______ _______ _____ _____    ______ ____
ROOT
ATOM      1  C   UNL     1       2.352   1.257  -7.120  0.00  0.00    +0.100 C 
ATOM      2  C   UNL     1       1.612   2.585  -6.840  0.00  0.00    +0.121 C 
ATOM      3  N   UNL     1       2.690   3.594  -6.713  0.00  0.00    -0.296 N 
ATOM      4  C   UNL     1       3.672   3.218  -7.758  0.00  0.00    +0.115 C 
ATOM      5  C   UNL     1       3.702   1.677  -7.725  0.00  0.00    -0.004 C 
ATOM      6  C   UNL     1       3.842   1.122  -9.139  0.00  0.00    -0.010 C 
ATOM      7  C   UNL     1       5.215   1.503  -9.699  0.00  0.00    -0.082 C 
ATOM      8  N   UNL     1       6.267   0.960  -8.832  0.00  0.00    +0.379 N 
ATOM      9  C   UNL     1       6.182   1.569  -7.499  0.00  0.00    -0.082 C 
ATOM     10  C   UNL     1       4.850   1.190  -6.846  0.00  0.00    -0.010 C 
ATOM     11  C   UNL     1       2.761   4.622  -5.843  0.00  0.00    +0.247 C 
ATOM     12  O   UNL     1       1.936   4.726  -4.957  0.00  0.00    -0.270 OA
ATOM     13  H   UNL     1       6.152  -0.040  -8.751  0.00  0.00    -0.086 HD
ATOM     14  H   UNL     1       7.171   1.160  -9.234  0.00  0.00    -0.086 HD
ENDROOT
BRANCH  11  15
ATOM     15  C   UNL     1       3.842   5.623  -5.969  0.00  0.00    +0.039 A 
ATOM     16  C   UNL     1       4.521   5.773  -7.180  0.00  0.00    +0.013 A 
ATOM     17  C   UNL     1       5.529   6.707  -7.294  0.00  0.00    +0.003 A 
ATOM     18  C   UNL     1       5.872   7.498  -6.213  0.00  0.00    +0.023 A 
ATOM     19  C   UNL     1       5.202   7.356  -5.003  0.00  0.00    +0.030 A 
ATOM     20  C   UNL     1       4.183   6.424  -4.880  0.00  0.00    +0.036 A 
BRANCH  19  21
ATOM     21  N   UNL     1       5.552   8.157  -3.913  0.00  0.00    -0.336 N 
ATOM     22  C   UNL     1       6.715   9.044  -3.999  0.00  0.00    +0.129 C 
ATOM     23  C   UNL     1       4.757   8.110  -2.684  0.00  0.00    +0.129 C 
ENDBRANCH  19  21
ENDBRANCH  11  15
BRANCH   1  25
ATOM     24  N   UNL     1       2.625  -0.851  -5.855  0.00  0.00    -0.315 N 
ATOM     25  C   UNL     1       2.567   0.496  -5.837  0.00  0.00    +0.218 C 
ATOM     26  O   UNL     1       2.687   1.094  -4.789  0.00  0.00    -0.275 OA
ATOM     27  H   UNL     1       2.529  -1.329  -6.693  0.00  0.00    +0.149 HD
BRANCH  24  28
ATOM     28  C   UNL     1       2.834  -1.591  -4.608  0.00  0.00    +0.109 C 
BRANCH  28  29
ATOM     29  C   UNL     1       2.860  -3.092  -4.904  0.00  0.00    +0.056 C 
BRANCH  29  32
ATOM     30  C   UNL     1       0.640  -4.128  -2.999  0.00  0.00    +0.063 C 
ATOM     31  C   UNL     1       2.122  -4.306  -2.792  0.00  0.00    +0.017 A 
ATOM     32  C   UNL     1       3.075  -3.853  -3.622  0.00  0.00    -0.018 A 
ATOM     33  C   UNL     1       4.364  -4.242  -3.043  0.00  0.00    +0.004 A 
ATOM     34  C   UNL     1       5.691  -4.064  -3.430  0.00  0.00    +0.029 A 
ATOM     35  C   UNL     1       6.710  -4.573  -2.630  0.00  0.00    +0.052 A 
ATOM     36  C   UNL     1       6.398  -5.257  -1.447  0.00  0.00    +0.021 A 
ATOM     37  C   UNL     1       5.100  -5.433  -1.066  0.00  0.00    +0.027 A 
ATOM     38  C   UNL     1       4.064  -4.931  -1.852  0.00  0.00    +0.047 A 
ATOM     39  N   UNL     1       2.695  -4.947  -1.728  0.00  0.00    -0.358 N 
ATOM     40  H   UNL     1       2.208  -5.354  -0.995  0.00  0.00    +0.166 HD
BRANCH  35  41
ATOM     41  C   UNL     1       8.077  -4.397  -3.016  0.00  0.00    +0.099 C 
ATOM     42  N   UNL     1       9.162  -4.258  -3.322  0.00  0.00    -0.191 NA
ENDBRANCH  35  41
ENDBRANCH  29  32
ENDBRANCH  28  29
ENDBRANCH  24  28
ENDBRANCH   1  25
TORSDOF 7
