REMARK  Name = ZINC62445865
REMARK  6 active torsions:
REMARK  status: ('A' for Active; 'I' for Inactive)
REMARK    1  A    between atoms: C_1  and  C_2
REMARK    2  A    between atoms: C_6  and  C_8
REMARK    3  A    between atoms: C_8  and  C_9
REMARK    4  A    between atoms: C_9  and  N_10
REMARK    5  A    between atoms: N_10  and  S_11
REMARK    6  A    between atoms: S_11  and  C_14
REMARK                            x       y       z     vdW  Elec       q    Type
REMARK                         _______ _______ _______ _____ _____    ______ ____
ROOT
ATOM      1  S   UNL     1       2.915  -4.543   4.706  0.00  0.00    +0.058 S 
ATOM      2  O   UNL     1       2.619  -5.148   5.957  0.00  0.00    -0.153 OA
ATOM      3  O   UNL     1       3.426  -5.281   3.605  0.00  0.00    -0.153 OA
ENDROOT
BRANCH   1   4
ATOM      4  C   UNL     1       4.074  -3.256   5.032  0.00  0.00    +0.107 A 
ATOM      5  C   UNL     1       4.913  -2.813   4.024  0.00  0.00    +0.030 A 
ATOM      6  C   UNL     1       5.825  -1.806   4.269  0.00  0.00    +0.030 A 
ATOM      7  C   UNL     1       5.901  -1.235   5.531  0.00  0.00    +0.067 A 
ATOM      8  C   UNL     1       5.055  -1.682   6.547  0.00  0.00    +0.069 A 
ATOM      9  C   UNL     1       4.138  -2.691   6.290  0.00  0.00    +0.056 A 
ATOM     10  N   UNL     1       5.358  -0.933   7.682  0.00  0.00    -0.306 N 
ATOM     11  H   UNL     1       4.932  -1.019   8.549  0.00  0.00    +0.170 HD
ATOM     12  C   UNL     1       6.343  -0.070   7.369  0.00  0.00    +0.325 A 
ATOM     13  O   UNL     1       6.843   0.731   8.137  0.00  0.00    -0.247 OA
ATOM     14  N   UNL     1       6.692  -0.229   6.079  0.00  0.00    -0.306 N 
ATOM     15  H   UNL     1       7.378   0.273   5.610  0.00  0.00    +0.170 HD
ENDBRANCH   1   4
BRANCH   1  16
ATOM     16  N   UNL     1       1.518  -3.822   4.186  0.00  0.00    -0.190 NA
ATOM     17  H   UNL     1       0.710  -3.890   4.719  0.00  0.00    +0.148 HD
BRANCH  16  18
ATOM     18  C   UNL     1       1.502  -3.083   2.921  0.00  0.00    +0.110 C 
BRANCH  18  19
ATOM     19  C   UNL     1       0.054  -2.845   2.489  0.00  0.00    +0.052 C 
BRANCH  19  25
ATOM     20  C   UNL     1      -0.018   1.503   0.010  0.00  0.00    +0.044 C 
ATOM     21  C   UNL     1       0.002  -0.004   0.002  0.00  0.00    -0.050 A 
ATOM     22  C   UNL     1       0.006  -0.689  -1.199  0.00  0.00    +0.003 A 
ATOM     23  C   UNL     1       0.025  -2.071  -1.207  0.00  0.00    +0.001 A 
ATOM     24  C   UNL     1       0.040  -2.768  -0.013  0.00  0.00    +0.004 A 
ATOM     25  C   UNL     1       0.037  -2.084   1.188  0.00  0.00    -0.046 A 
ATOM     26  C   UNL     1       0.023  -0.702   1.195  0.00  0.00    +0.007 A 
ENDBRANCH  19  25
ENDBRANCH  18  19
ENDBRANCH  16  18
ENDBRANCH   1  16
TORSDOF 5
