REMARK  Name = ZINC39484792
REMARK  7 active torsions:
REMARK  status: ('A' for Active; 'I' for Inactive)
REMARK    1  A    between atoms: C_3  and  C_6
REMARK    2  A    between atoms: C_6  and  C_8
REMARK    3  A    between atoms: C_6  and  N_22
REMARK    4  A    between atoms: C_8  and  N_9
REMARK    5  A    between atoms: C_10  and  C_12
REMARK    6  A    between atoms: C_12  and  N_13
REMARK    7  A    between atoms: C_14  and  C_16
REMARK                            x       y       z     vdW  Elec       q    Type
REMARK                         _______ _______ _______ _____ _____    ______ ____
ROOT
ATOM      1  N   UNL     1       3.349  -0.922   1.882  0.00  0.00    -0.315 N 
ATOM      2  C   UNL     1       3.462  -1.324   3.164  0.00  0.00    +0.230 C 
ATOM      3  O   UNL     1       4.089  -0.654   3.956  0.00  0.00    -0.274 OA
ATOM      4  H   UNL     1       2.847  -1.458   1.248  0.00  0.00    +0.149 HD
ENDROOT
BRANCH   1   5
ATOM      5  C   UNL     1       3.984   0.324   1.446  0.00  0.00    +0.096 C 
BRANCH   5   6
ATOM      6  C   UNL     1       3.617   0.600  -0.013  0.00  0.00    +0.016 C 
BRANCH   6   7
ATOM      7  N   UNL     1       3.970  -0.565  -0.836  0.00  0.00    +0.387 N 
ATOM      8  C   UNL     1       5.413  -0.814  -0.735  0.00  0.00    -0.078 C 
ATOM      9  C   UNL     1       5.773  -2.075  -1.525  0.00  0.00    -0.019 C 
ATOM     10  C   UNL     1       5.389  -1.877  -2.994  0.00  0.00    -0.004 C 
ATOM     11  C   UNL     1       3.896  -1.545  -3.080  0.00  0.00    -0.019 C 
ATOM     12  C   UNL     1       3.606  -0.304  -2.233  0.00  0.00    -0.078 C 
ATOM     13  H   UNL     1       3.467  -1.375  -0.504  0.00  0.00    -0.081 HD
ENDBRANCH   6   7
BRANCH   6  16
ATOM     14  C   UNL     1       0.160   1.847  -0.287  0.00  0.00    +0.041 A 
ATOM     15  C   UNL     1       1.554   2.068  -0.206  0.00  0.00    +0.043 A 
ATOM     16  C   UNL     1       2.136   0.859  -0.119  0.00  0.00    +0.093 A 
ATOM     17  O   UNL     1       1.175  -0.078  -0.142  0.00  0.00    -0.469 OA
ATOM     18  C   UNL     1      -0.026   0.515  -0.244  0.00  0.00    +0.195 A 
ENDBRANCH   6  16
ENDBRANCH   5   6
ENDBRANCH   1   5
BRANCH   2  19
ATOM     19  C   UNL     1       2.808  -2.606   3.612  0.00  0.00    +0.200 C 
BRANCH  19  20
ATOM     20  N   UNL     1       3.076  -2.818   5.037  0.00  0.00    -0.300 N 
ATOM     21  C   UNL     1       2.587  -3.909   5.659  0.00  0.00    +0.280 C 
ATOM     22  O   UNL     1       1.923  -4.717   5.038  0.00  0.00    -0.267 OA
ATOM     23  H   UNL     1       3.605  -2.173   5.532  0.00  0.00    +0.150 HD
BRANCH  21  24
ATOM     24  C   UNL     1       2.855  -4.121   7.084  0.00  0.00    +0.191 A 
ATOM     25  C   UNL     1       2.426  -5.180   7.832  0.00  0.00    +0.056 A 
ATOM     26  C   UNL     1       2.909  -4.978   9.134  0.00  0.00    +0.058 A 
ATOM     27  C   UNL     1       3.603  -3.816   9.124  0.00  0.00    +0.171 A 
ATOM     28  O   UNL     1       3.573  -3.307   7.886  0.00  0.00    -0.444 OA
ATOM     29 BR   UNL     1       4.479  -3.045  10.612  0.00  0.00    -0.008 Br
ENDBRANCH  21  24
ENDBRANCH  19  20
ENDBRANCH   2  19
TORSDOF 7
