REMARK  Name = ZINC66900014
REMARK  7 active torsions:
REMARK  status: ('A' for Active; 'I' for Inactive)
REMARK    1  A    between atoms: C_1  and  C_2
REMARK    2  A    between atoms: C_2  and  C_3
REMARK    3  A    between atoms: C_2  and  C_4
REMARK    4  A    between atoms: C_4  and  N_5
REMARK    5  A    between atoms: C_9  and  C_11
REMARK    6  A    between atoms: C_11  and  N_12
REMARK    7  A    between atoms: C_16  and  C_18
REMARK                            x       y       z     vdW  Elec       q    Type
REMARK                         _______ _______ _______ _____ _____    ______ ____
ROOT
ATOM      1  N   UNL     1       0.002  -0.608   8.318  0.00  0.00    +0.390 N 
ATOM      2  C   UNL     1       1.344   0.013   8.312  0.00  0.00    -0.077 C 
ATOM      3  C   UNL     1       1.254   1.160   9.349  0.00  0.00    -0.020 C 
ATOM      4  C   UNL     1       0.348   0.527  10.438  0.00  0.00    -0.012 C 
ATOM      5  C   UNL     1      -0.639  -0.327   9.616  0.00  0.00    -0.033 C 
ATOM      6  H   UNL     1       0.090  -1.605   8.191  0.00  0.00    -0.080 HD
ENDROOT
BRANCH   5   7
ATOM      7  C   UNL     1      -0.923  -1.620  10.337  0.00  0.00    -0.016 A 
ATOM      8  C   UNL     1      -0.131  -2.728  10.105  0.00  0.00    +0.006 A 
ATOM      9  C   UNL     1      -0.388  -3.915  10.765  0.00  0.00    +0.004 A 
ATOM     10  C   UNL     1      -1.440  -3.998  11.658  0.00  0.00    +0.049 A 
ATOM     11  C   UNL     1      -2.239  -2.890  11.894  0.00  0.00    +0.162 A 
ATOM     12  C   UNL     1      -1.975  -1.694  11.237  0.00  0.00    +0.164 A 
ATOM     13  O   UNL     1      -2.739  -0.591  11.464  0.00  0.00    -0.485 OA
ATOM     14  C   UNL     1      -4.010  -0.805  12.089  0.00  0.00    +0.270 C 
ATOM     15  C   UNL     1      -3.807  -1.754  13.277  0.00  0.00    +0.270 C 
ATOM     16  O   UNL     1      -3.274  -2.988  12.774  0.00  0.00    -0.485 OA
ENDBRANCH   5   7
BRANCH   1  17
ATOM     17  C   UNL     1      -0.809  -0.040   7.232  0.00  0.00    +0.020 C 
BRANCH  17  22
ATOM     18  N   UNL     1      -0.849   0.035   2.426  0.00  0.00    -0.299 N 
ATOM     19  C   UNL     1      -0.268  -0.375   3.571  0.00  0.00    +0.306 C 
ATOM     20  O   UNL     1       0.734  -1.062   3.532  0.00  0.00    -0.252 OA
ATOM     21  N   UNL     1      -0.798  -0.024   4.759  0.00  0.00    -0.242 N 
ATOM     22  C   UNL     1      -0.217  -0.434   5.904  0.00  0.00    +0.204 C 
ATOM     23  O   UNL     1       0.782  -1.119   5.865  0.00  0.00    -0.277 OA
ATOM     24  H   UNL     1      -1.649   0.583   2.457  0.00  0.00    +0.150 HD
ATOM     25  H   UNL     1      -1.598   0.524   4.790  0.00  0.00    +0.159 HD
BRANCH  18  26
ATOM     26  C   UNL     1      -0.273  -0.348   1.134  0.00  0.00    +0.108 C 
BRANCH  26  28
ATOM     27  C   UNL     1      -1.034   1.770   0.049  0.00  0.00    +0.009 C 
ATOM     28  C   UNL     1      -1.118   0.243   0.004  0.00  0.00    -0.000 C 
ATOM     29  C   UNL     1      -0.591  -0.258  -1.342  0.00  0.00    +0.009 C 
ENDBRANCH  26  28
ENDBRANCH  18  26
ENDBRANCH  17  22
ENDBRANCH   1  17
TORSDOF 5
