REMARK  Name = ZINC60333254
REMARK  7 active torsions:
REMARK  status: ('A' for Active; 'I' for Inactive)
REMARK    1  A    between atoms: C_1  and  O_2
REMARK    2  A    between atoms: O_2  and  C_3
REMARK    3  A    between atoms: C_5  and  C_12
REMARK    4  A    between atoms: C_7  and  O_10
REMARK    5  A    between atoms: O_10  and  C_11
REMARK    6  A    between atoms: N_14  and  O_15
REMARK    7  A    between atoms: O_15  and  C_16
REMARK                            x       y       z     vdW  Elec       q    Type
REMARK                         _______ _______ _______ _____ _____    ______ ____
ROOT
ATOM      1  C   UNL     1      -1.200  -0.638   0.010  0.00  0.00    +0.138 A 
ATOM      2  C   UNL     1      -2.371   0.102   0.019  0.00  0.00    +0.060 A 
ATOM      3  C   UNL     1      -3.605  -0.550   0.028  0.00  0.00    +0.046 A 
ATOM      4  C   UNL     1      -3.654  -1.944   0.027  0.00  0.00    +0.060 A 
ATOM      5  C   UNL     1      -2.479  -2.676   0.017  0.00  0.00    +0.138 A 
ATOM      6  C   UNL     1      -1.253  -2.025   0.003  0.00  0.00    +0.101 A 
ATOM      7 BR   UNL     1       0.349  -3.029  -0.018  0.00  0.00    -0.043 Br
ENDROOT
BRANCH   3   8
ATOM      8  C   UNL     1      -4.858   0.235   0.038  0.00  0.00    +0.267 C 
ATOM      9  O   UNL     1      -4.813   1.450   0.040  0.00  0.00    -0.268 OA
ATOM     10  N   UNL     1      -6.049  -0.395   0.046  0.00  0.00    -0.188 N 
ATOM     11  H   UNL     1      -6.084  -1.365   0.045  0.00  0.00    +0.183 HD
BRANCH  10  12
ATOM     12  O   UNL     1      -7.248   0.357   0.057  0.00  0.00    -0.248 OA
BRANCH  12  13
ATOM     13  C   UNL     1      -8.434  -0.440   0.064  0.00  0.00    +0.276 C 
ATOM     14  C   UNL     1      -9.550   0.311   0.795  0.00  0.00    +0.063 C 
ATOM     15  C   UNL     1     -10.834  -0.523   0.747  0.00  0.00    +0.007 C 
ATOM     16  C   UNL     1     -11.188  -0.811  -0.716  0.00  0.00    +0.028 C 
ATOM     17  C   UNL     1     -10.009  -1.519  -1.388  0.00  0.00    +0.163 C 
ATOM     18  O   UNL     1      -8.840  -0.704  -1.280  0.00  0.00    -0.349 OA
ENDBRANCH  12  13
ENDBRANCH  10  12
ENDBRANCH   3   8
BRANCH   1  20
ATOM     19  C   UNL     1      -0.017   1.425   0.010  0.00  0.00    +0.277 C 
ATOM     20  O   UNL     1       0.002  -0.004   0.002  0.00  0.00    -0.494 OA
ENDBRANCH   1  20
BRANCH   5  21
ATOM     21  O   UNL     1      -2.525  -4.035   0.016  0.00  0.00    -0.494 OA
ATOM     22  C   UNL     1      -3.820  -4.640   0.025  0.00  0.00    +0.277 C 
ENDBRANCH   5  21
TORSDOF 5
