REMARK  Name = ZINC13149034
REMARK  7 active torsions:
REMARK  status: ('A' for Active; 'I' for Inactive)
REMARK    1  A    between atoms: C_7  and  N_12
REMARK    2  A    between atoms: C_8  and  C_10
REMARK    3  A    between atoms: C_13  and  C_15
REMARK    4  A    between atoms: C_15  and  O_16
REMARK    5  A    between atoms: O_16  and  C_17
REMARK    6  A    between atoms: C_17  and  C_19
REMARK    7  A    between atoms: C_22  and  N_25
REMARK                            x       y       z     vdW  Elec       q    Type
REMARK                         _______ _______ _______ _____ _____    ______ ____
ROOT
ATOM      1  C   UNL     1      -4.702  -8.146  -2.250  0.00  0.00    +0.340 C 
ATOM      2  O   UNL     1      -5.484  -7.921  -1.348  0.00  0.00    -0.245 OA
ENDROOT
BRANCH   1   3
ATOM      3  C   UNL     1      -4.679  -7.273  -3.439  0.00  0.00    +0.059 A 
ATOM      4  C   UNL     1      -5.556  -6.188  -3.530  0.00  0.00    +0.017 A 
ATOM      5  C   UNL     1      -5.531  -5.377  -4.642  0.00  0.00    +0.025 A 
ATOM      6  C   UNL     1      -4.635  -5.635  -5.674  0.00  0.00    +0.045 A 
ATOM      7  C   UNL     1      -3.765  -6.717  -5.590  0.00  0.00    +0.025 A 
ATOM      8  C   UNL     1      -3.780  -7.530  -4.479  0.00  0.00    +0.017 A 
BRANCH   6   9
ATOM      9  N   UNL     1      -4.614  -4.810  -6.801  0.00  0.00    -0.202 N 
ATOM     10  C   UNL     1      -5.416  -3.745  -6.980  0.00  0.00    +0.258 C 
ATOM     11  O   UNL     1      -6.261  -3.355  -6.199  0.00  0.00    -0.269 OA
ATOM     12  C   UNL     1      -5.097  -3.129  -8.285  0.00  0.00    +0.050 A 
ATOM     13  C   UNL     1      -5.585  -2.037  -8.984  0.00  0.00    +0.014 A 
ATOM     14  C   UNL     1      -5.050  -1.720 -10.224  0.00  0.00    +0.001 A 
ATOM     15  C   UNL     1      -4.035  -2.487 -10.766  0.00  0.00    +0.001 A 
ATOM     16  C   UNL     1      -3.538  -3.582 -10.078  0.00  0.00    +0.014 A 
ATOM     17  C   UNL     1      -4.062  -3.911  -8.838  0.00  0.00    +0.050 A 
ATOM     18  C   UNL     1      -3.788  -4.975  -7.849  0.00  0.00    +0.258 C 
ATOM     19  O   UNL     1      -2.955  -5.851  -7.965  0.00  0.00    -0.269 OA
ENDBRANCH   6   9
ENDBRANCH   1   3
BRANCH   1  20
ATOM     20  O   UNL     1      -3.857  -9.191  -2.165  0.00  0.00    -0.452 OA
BRANCH  20  21
ATOM     21  C   UNL     1      -3.936 -10.006  -0.966  0.00  0.00    +0.328 C 
BRANCH  21  23
ATOM     22  N   UNL     1      -2.815 -12.007  -0.040  0.00  0.00    -0.279 N 
ATOM     23  C   UNL     1      -2.923 -11.119  -1.048  0.00  0.00    +0.255 C 
ATOM     24  O   UNL     1      -2.205 -11.216  -2.021  0.00  0.00    -0.272 OA
ATOM     25  H   UNL     1      -3.337 -11.889   0.769  0.00  0.00    +0.155 HD
BRANCH  22  32
ATOM     26  C   UNL     1      -3.480 -16.401  -1.317  0.00  0.00    +0.001 A 
ATOM     27  C   UNL     1      -2.298 -17.128  -1.281  0.00  0.00    +0.004 A 
ATOM     28  C   UNL     1      -1.116 -16.532  -0.899  0.00  0.00    +0.047 A 
ATOM     29  C   UNL     1      -1.102 -15.188  -0.544  0.00  0.00    +0.139 A 
ATOM     30  C   UNL     1      -2.303 -14.458  -0.576  0.00  0.00    +0.043 A 
ATOM     31  C   UNL     1      -3.489 -15.078  -0.972  0.00  0.00    +0.013 A 
ATOM     32  C   UNL     1      -1.954 -13.095  -0.160  0.00  0.00    +0.098 A 
ATOM     33  C   UNL     1      -0.610 -13.114   0.093  0.00  0.00    +0.226 A 
ATOM     34  O   UNL     1      -0.124 -14.353  -0.139  0.00  0.00    -0.443 OA
BRANCH  33  35
ATOM     35  C   UNL     1       0.164 -11.992   0.534  0.00  0.00    +0.140 C 
ATOM     36  N   UNL     1       0.777 -11.102   0.884  0.00  0.00    -0.188 NA
ENDBRANCH  33  35
ENDBRANCH  22  32
ENDBRANCH  21  23
ENDBRANCH  20  21
ENDBRANCH   1  20
TORSDOF 7
