REMARK  Name = ZINC05114505
REMARK  7 active torsions:
REMARK  status: ('A' for Active; 'I' for Inactive)
REMARK    1  A    between atoms: C_1  and  C_2
REMARK    2  A    between atoms: C_2  and  C_14
REMARK    3  A    between atoms: C_4  and  N_9
REMARK    4  A    between atoms: N_9  and  C_10
REMARK    5  A    between atoms: C_10  and  C_11
REMARK    6  A    between atoms: C_10  and  C_12
REMARK    7  A    between atoms: C_10  and  C_13
REMARK                            x       y       z     vdW  Elec       q    Type
REMARK                         _______ _______ _______ _____ _____    ______ ____
ROOT
ATOM      1  C   UNL     1       0.712  -1.543   2.498  0.00  0.00    +0.011 C 
ATOM      2  C   UNL     1       0.634  -1.958   1.027  0.00  0.00    -0.023 C 
ATOM      3  C   UNL     1       0.860  -0.733   0.131  0.00  0.00    +0.057 C 
ATOM      4  C   UNL     1      -0.230   0.274   0.379  0.00  0.00    +0.008 C 
ATOM      5  C   UNL     1      -1.468  -0.114   0.756  0.00  0.00    +0.064 C 
ATOM      6  C   UNL     1      -1.790  -1.461   0.943  0.00  0.00    +0.158 C 
ATOM      7  O   UNL     1      -2.916  -1.770   1.282  0.00  0.00    -0.293 OA
ATOM      8  C   UNL     1      -0.754  -2.534   0.729  0.00  0.00    +0.085 C 
ATOM      9  C   UNL     1       1.701  -3.014   0.734  0.00  0.00    +0.011 C 
ENDROOT
BRANCH   4  10
ATOM     10  N   UNL     1       0.034   1.601   0.215  0.00  0.00    -0.342 N 
ATOM     11  H   UNL     1      -0.083   2.294   1.061  0.00  0.00    +0.146 HD
BRANCH  10  12
ATOM     12  C   UNL     1       0.474   2.104  -1.089  0.00  0.00    +0.023 C 
ATOM     13  C   UNL     1      -0.531   1.685  -2.163  0.00  0.00    +0.031 C 
ATOM     14  C   UNL     1       0.565   3.631  -1.042  0.00  0.00    +0.031 C 
ATOM     15  C   UNL     1       1.849   1.522  -1.422  0.00  0.00    +0.031 C 
ENDBRANCH  10  12
ENDBRANCH   4  10
TORSDOF 2
