REMARK  Name = ZINC14020806
REMARK  10 active torsions:
REMARK  status: ('A' for Active; 'I' for Inactive)
REMARK    1  A    between atoms: C_1  and  C_2
REMARK    2  A    between atoms: C_5  and  C_9
REMARK    3  A    between atoms: C_7  and  O_8
REMARK    4  A    between atoms: C_9  and  O_11
REMARK    5  A    between atoms: O_11  and  C_12
REMARK    6  A    between atoms: C_12  and  C_14
REMARK    7  A    between atoms: C_12  and  C_15
REMARK    8  A    between atoms: N_17  and  C_18
REMARK    9  A    between atoms: C_23  and  C_24
REMARK   10  A    between atoms: C_24  and  C_26
REMARK                            x       y       z     vdW  Elec       q    Type
REMARK                         _______ _______ _______ _____ _____    ______ ____
ROOT
ATOM      1  C   UNL     1      -2.542  -2.812   0.056  0.00  0.00    +0.259 C 
ATOM      2  C   UNL     1      -2.973  -3.083   1.499  0.00  0.00    +0.062 C 
ENDROOT
BRANCH   1   3
ATOM      3  C   UNL     1      -2.414  -4.119  -0.683  0.00  0.00    +0.258 C 
ATOM      4  O   UNL     1      -1.330  -4.484  -1.086  0.00  0.00    -0.271 OA
ATOM      5  N   UNL     1      -3.504  -4.882  -0.897  0.00  0.00    -0.282 N 
ATOM      6  H   UNL     1      -4.359  -4.622  -0.520  0.00  0.00    +0.155 HD
BRANCH   5   7
ATOM      7  C   UNL     1      -3.403  -6.042  -1.659  0.00  0.00    +0.044 A 
ATOM      8  C   UNL     1      -2.253  -6.818  -1.599  0.00  0.00    +0.024 A 
ATOM      9  C   UNL     1      -2.157  -7.971  -2.352  0.00  0.00    +0.002 A 
ATOM     10  C   UNL     1      -3.199  -8.359  -3.180  0.00  0.00    +0.001 A 
ATOM     11  C   UNL     1      -4.345  -7.601  -3.258  0.00  0.00    +0.013 A 
ATOM     12  C   UNL     1      -4.462  -6.431  -2.498  0.00  0.00    +0.038 A 
BRANCH  12  13
ATOM     13  C   UNL     1      -5.680  -5.617  -2.576  0.00  0.00    +0.162 C 
ATOM     14  O   UNL     1      -5.738  -4.554  -1.994  0.00  0.00    -0.292 OA
ATOM     15  C   UNL     1      -6.860  -6.102  -3.378  0.00  0.00    +0.091 C 
ENDBRANCH  12  13
ENDBRANCH   5   7
ENDBRANCH   1   3
BRANCH   1  16
ATOM     16  O   UNL     1      -1.262  -2.127   0.054  0.00  0.00    -0.449 OA
BRANCH  16  17
ATOM     17  C   UNL     1      -1.289  -0.780   0.083  0.00  0.00    +0.340 C 
ATOM     18  O   UNL     1      -2.353  -0.194   0.109  0.00  0.00    -0.245 OA
BRANCH  17  23
ATOM     19  C   UNL     1       3.644   2.188   0.079  0.00  0.00    +0.047 C 
ATOM     20  C   UNL     1       2.352   1.412   0.081  0.00  0.00    -0.009 A 
ATOM     21  C   UNL     1       2.379   0.030   0.051  0.00  0.00    +0.008 A 
ATOM     22  C   UNL     1       1.200  -0.687   0.052  0.00  0.00    +0.015 A 
ATOM     23  C   UNL     1      -0.024  -0.016   0.082  0.00  0.00    +0.062 A 
ATOM     24  C   UNL     1      -0.049   1.379   0.112  0.00  0.00    +0.060 A 
ATOM     25  C   UNL     1       1.140   2.088   0.111  0.00  0.00    +0.121 A 
BRANCH  25  26
ATOM     26  O   UNL     1       1.121   3.447   0.140  0.00  0.00    -0.506 OA
ATOM     27  H   UNL     1       1.127   3.822   1.031  0.00  0.00    +0.292 HD
ENDBRANCH  25  26
ENDBRANCH  17  23
ENDBRANCH  16  17
ENDBRANCH   1  16
TORSDOF 7
