REMARK  Name = ZINC40796919
REMARK  5 active torsions:
REMARK  status: ('A' for Active; 'I' for Inactive)
REMARK    1  A    between atoms: C_9  and  S_11
REMARK    2  A    between atoms: S_11  and  C_12
REMARK    3  A    between atoms: C_13  and  N_30
REMARK    4  A    between atoms: C_14  and  O_18
REMARK    5  A    between atoms: O_18  and  C_19
REMARK                            x       y       z     vdW  Elec       q    Type
REMARK                         _______ _______ _______ _____ _____    ______ ____
ROOT
ATOM      1  C   UNL     1      -0.498  -2.887   0.156  0.00  0.00    +0.129 A 
ATOM      2  C   UNL     1      -0.880  -4.226   0.287  0.00  0.00    +0.120 A 
ATOM      3  C   UNL     1      -2.237  -4.514   0.415  0.00  0.00    +0.246 A 
ATOM      4  N   UNL     1      -3.113  -3.512   0.407  0.00  0.00    -0.199 NA
ATOM      5  C   UNL     1      -2.713  -2.263   0.281  0.00  0.00    +0.226 A 
ATOM      6  N   UNL     1      -1.439  -1.946   0.164  0.00  0.00    -0.227 NA
ENDROOT
BRANCH   2   7
ATOM      7  N   UNL     1       0.078  -5.251   0.290  0.00  0.00    -0.352 N 
ATOM      8  H   UNL     1       1.019  -5.036   0.200  0.00  0.00    +0.143 HD
ATOM      9  H   UNL     1      -0.201  -6.176   0.382  0.00  0.00    +0.143 HD
ENDBRANCH   2   7
BRANCH   1  10
ATOM     10  S   UNL     1       1.201  -2.453  -0.009  0.00  0.00    -0.066 S 
BRANCH  10  19
ATOM     11  C   UNL     1       1.596   1.387   1.158  0.00  0.00    +0.002 A 
ATOM     12  C   UNL     1       1.198   2.107   0.072  0.00  0.00    +0.010 A 
ATOM     13  C   UNL     1       0.781   1.445  -1.093  0.00  0.00    +0.001 A 
ATOM     14  C   UNL     1       0.364   2.161  -2.232  0.00  0.00    +0.011 A 
ATOM     15  C   UNL     1      -0.029   1.452  -3.331  0.00  0.00    +0.020 A 
ATOM     16  C   UNL     1      -0.009   0.059  -3.304  0.00  0.00    +0.111 A 
ATOM     17  N   UNL     1       0.380  -0.603  -2.241  0.00  0.00    -0.254 NA
ATOM     18  C   UNL     1       0.776   0.029  -1.134  0.00  0.00    +0.085 A 
ATOM     19  C   UNL     1       1.194  -0.691   0.007  0.00  0.00    +0.040 A 
ATOM     20  C   UNL     1       1.597  -0.004   1.133  0.00  0.00    +0.017 A 
ENDBRANCH  10  19
ENDBRANCH   1  10
BRANCH   3  21
ATOM     21  O   UNL     1      -2.660  -5.796   0.544  0.00  0.00    -0.434 OA
BRANCH  21  22
ATOM     22  C   UNL     1      -3.998  -6.029   0.557  0.00  0.00    +0.156 A 
ATOM     23  C   UNL     1      -4.657  -6.220   1.751  0.00  0.00    +0.049 A 
ATOM     24  C   UNL     1      -6.027  -6.459   1.780  0.00  0.00    +0.019 A 
ATOM     25  C   UNL     1      -6.754  -6.510   0.629  0.00  0.00    +0.027 A 
ATOM     26  C   UNL     1      -6.118  -6.320  -0.609  0.00  0.00    +0.018 A 
ATOM     27  C   UNL     1      -4.724  -6.070  -0.651  0.00  0.00    +0.114 A 
ATOM     28  N   UNL     1      -4.117  -5.884  -1.826  0.00  0.00    -0.251 NA
ATOM     29  C   UNL     1      -4.785  -5.921  -2.953  0.00  0.00    +0.111 A 
ATOM     30  C   UNL     1      -6.159  -6.156  -2.983  0.00  0.00    +0.020 A 
ATOM     31  C   UNL     1      -6.839  -6.367  -1.817  0.00  0.00    +0.013 A 
ATOM     32 BR   UNL     1      -8.615  -6.838   0.697  0.00  0.00    -0.050 Br
ENDBRANCH  21  22
ENDBRANCH   3  21
TORSDOF 5
