REMARK  Name = ZINC14307848
REMARK  6 active torsions:
REMARK  status: ('A' for Active; 'I' for Inactive)
REMARK    1  A    between atoms: C_1  and  C_2
REMARK    2  A    between atoms: C_2  and  C_22
REMARK    3  A    between atoms: N_5  and  C_9
REMARK    4  A    between atoms: C_9  and  N_10
REMARK    5  A    between atoms: C_14  and  C_16
REMARK    6  A    between atoms: C_25  and  N_28
REMARK                            x       y       z     vdW  Elec       q    Type
REMARK                         _______ _______ _______ _____ _____    ______ ____
ROOT
ATOM      1  C   UNL     1      -3.058  10.116   2.610  0.00  0.00    +0.047 C 
ATOM      2  C   UNL     1      -2.157   9.265   3.508  0.00  0.00    +0.135 C 
ATOM      3  C   UNL     1      -1.121   8.526   2.684  0.00  0.00    +0.252 C 
ATOM      4  O   UNL     1      -0.256   9.013   1.988  0.00  0.00    -0.272 OA
ATOM      5  N   UNL     1      -1.363   7.216   2.884  0.00  0.00    -0.210 N 
ATOM      6  C   UNL     1      -2.393   7.026   3.718  0.00  0.00    +0.311 C 
ATOM      7  O   UNL     1      -2.797   5.930   4.054  0.00  0.00    -0.252 OA
ATOM      8  N   UNL     1      -2.930   8.184   4.142  0.00  0.00    -0.281 N 
ATOM      9  H   UNL     1      -3.766   8.427   4.815  0.00  0.00    +0.152 HD
ENDROOT
BRANCH   2  10
ATOM     10  C   UNL     1      -1.489  10.122   4.552  0.00  0.00    -0.015 A 
ATOM     11  C   UNL     1      -0.275  10.723   4.279  0.00  0.00    +0.008 A 
ATOM     12  C   UNL     1       0.336  11.513   5.235  0.00  0.00    +0.033 A 
ATOM     13  C   UNL     1      -0.264  11.695   6.467  0.00  0.00    +0.126 A 
ATOM     14  C   UNL     1      -1.476  11.090   6.742  0.00  0.00    +0.033 A 
ATOM     15  C   UNL     1      -2.089  10.303   5.784  0.00  0.00    +0.008 A 
BRANCH  13  16
ATOM     16  N   UNL     1       0.392  12.537   7.493  0.00  0.00    +0.056 N 
ATOM     17  O   UNL     1      -0.137  12.697   8.578  0.00  0.00    -0.126 OA
ATOM     18  O   UNL     1       1.460  13.071   7.251  0.00  0.00    -0.126 OA
ENDBRANCH  13  16
ENDBRANCH   2  10
BRANCH   5  19
ATOM     19  C   UNL     1      -0.591   6.133   2.270  0.00  0.00    +0.205 C 
BRANCH  19  20
ATOM     20  N   UNL     1      -1.084   5.891   0.908  0.00  0.00    -0.279 NA
ATOM     21  C   UNL     1      -0.229   4.920   0.201  0.00  0.00    +0.086 C 
ATOM     22  C   UNL     1      -1.137   3.758  -0.254  0.00  0.00    +0.017 C 
ATOM     23  C   UNL     1      -2.547   4.405  -0.278  0.00  0.00    +0.025 C 
ATOM     24  C   UNL     1      -2.468   5.371   0.930  0.00  0.00    +0.088 C 
BRANCH  24  25
ATOM     25  C   UNL     1      -3.454   6.498   0.765  0.00  0.00    -0.030 A 
ATOM     26  C   UNL     1      -4.622   6.509   1.504  0.00  0.00    +0.005 A 
ATOM     27  C   UNL     1      -5.527   7.543   1.354  0.00  0.00    +0.000 A 
ATOM     28  C   UNL     1      -5.264   8.567   0.463  0.00  0.00    +0.000 A 
ATOM     29  C   UNL     1      -4.098   8.554  -0.281  0.00  0.00    +0.000 A 
ATOM     30  C   UNL     1      -3.191   7.522  -0.126  0.00  0.00    +0.005 A 
ENDBRANCH  24  25
ENDBRANCH  19  20
ENDBRANCH   5  19
TORSDOF 5
