REMARK  Name = ZINC28910877
REMARK  5 active torsions:
REMARK  status: ('A' for Active; 'I' for Inactive)
REMARK    1  A    between atoms: C_1  and  O_2
REMARK    2  A    between atoms: O_2  and  C_3
REMARK    3  A    between atoms: C_3  and  C_5
REMARK    4  A    between atoms: C_10  and  C_11
REMARK    5  A    between atoms: C_14  and  C_16
REMARK                            x       y       z     vdW  Elec       q    Type
REMARK                         _______ _______ _______ _____ _____    ______ ____
ROOT
ATOM      1  C   UNL     1       2.428   3.926  -0.001  0.00  0.00    +0.136 A 
ATOM      2  C   UNL     1       3.486   3.722   0.833  0.00  0.00    +0.050 A 
ATOM      3  C   UNL     1       4.472   4.660   0.473  0.00  0.00    +0.049 A 
ATOM      4  C   UNL     1       3.975   5.383  -0.551  0.00  0.00    +0.144 A 
ATOM      5  O   UNL     1       2.743   4.934  -0.838  0.00  0.00    -0.456 OA
ENDROOT
BRANCH   4   6
ATOM      6  C   UNL     1       4.687   6.507  -1.260  0.00  0.00    +0.226 C 
ATOM      7  N   UNL     1       4.227   6.572  -2.652  0.00  0.00    -0.319 N 
ATOM      8  C   UNL     1       4.699   5.623  -3.552  0.00  0.00    +0.041 A 
ATOM      9  C   UNL     1       3.947   5.202  -4.635  0.00  0.00    +0.024 A 
ATOM     10  C   UNL     1       4.462   4.253  -5.498  0.00  0.00    +0.002 A 
ATOM     11  C   UNL     1       5.724   3.720  -5.287  0.00  0.00    +0.001 A 
ATOM     12  C   UNL     1       6.487   4.129  -4.212  0.00  0.00    +0.015 A 
ATOM     13  C   UNL     1       5.981   5.086  -3.336  0.00  0.00    +0.058 A 
ATOM     14  C   UNL     1       6.755   5.562  -2.176  0.00  0.00    +0.248 C 
ATOM     15  O   UNL     1       7.943   5.319  -2.087  0.00  0.00    -0.270 OA
ATOM     16  N   UNL     1       6.130   6.269  -1.216  0.00  0.00    -0.287 N 
ATOM     17  H   UNL     1       3.525   7.359  -2.963  0.00  0.00    +0.148 HD
ATOM     18  H   UNL     1       6.729   6.673  -0.386  0.00  0.00    +0.151 HD
ENDBRANCH   4   6
BRANCH   1  24
ATOM     19  C   UNL     1      -0.071   3.855   0.023  0.00  0.00    +0.070 A 
ATOM     20  C   UNL     1      -1.262   3.125   0.031  0.00  0.00    +0.016 A 
ATOM     21  C   UNL     1      -1.226   1.748   0.017  0.00  0.00    +0.001 A 
ATOM     22  C   UNL     1      -0.013   1.076   0.008  0.00  0.00    +0.001 A 
ATOM     23  C   UNL     1       1.175   1.776   0.000  0.00  0.00    +0.012 A 
ATOM     24  C   UNL     1       1.162   3.172   0.008  0.00  0.00    +0.031 A 
BRANCH  19  25
ATOM     25  C   UNL     1      -0.104   5.328   0.031  0.00  0.00    +0.340 C 
ATOM     26  O   UNL     1       0.935   5.958   0.024  0.00  0.00    -0.245 OA
BRANCH  25  28
ATOM     27  C   UNL     1      -1.241   7.427   0.053  0.00  0.00    +0.280 C 
ATOM     28  O   UNL     1      -1.285   5.976   0.046  0.00  0.00    -0.464 OA
ENDBRANCH  25  28
ENDBRANCH  19  25
ENDBRANCH   1  24
TORSDOF 4
