REMARK  Name = ZINC30991699
REMARK  7 active torsions:
REMARK  status: ('A' for Active; 'I' for Inactive)
REMARK    1  A    between atoms: C_1  and  C_2
REMARK    2  A    between atoms: C_2  and  C_3
REMARK    3  A    between atoms: C_2  and  C_4
REMARK    4  A    between atoms: C_4  and  C_6
REMARK    5  A    between atoms: C_4  and  N_16
REMARK    6  A    between atoms: N_19  and  C_20
REMARK    7  A    between atoms: C_20  and  C_21
REMARK                            x       y       z     vdW  Elec       q    Type
REMARK                         _______ _______ _______ _____ _____    ______ ____
ROOT
ATOM      1  N   UNL     1      -4.647  -0.149   0.915  0.00  0.00    -0.292 N 
ATOM      2  C   UNL     1      -5.643  -0.864   1.476  0.00  0.00    +0.300 C 
ATOM      3  O   UNL     1      -5.749  -2.051   1.236  0.00  0.00    -0.253 OA
ATOM      4  N   UNL     1      -6.522  -0.262   2.302  0.00  0.00    -0.296 N 
ATOM      5  H   UNL     1      -4.552   0.925   1.132  0.00  0.00    +0.151 HD
ATOM      6  H   UNL     1      -6.426   0.812   2.519  0.00  0.00    +0.150 HD
ENDROOT
BRANCH   1   7
ATOM      7  C   UNL     1      -3.692  -0.803   0.018  0.00  0.00    +0.107 C 
BRANCH   7   8
ATOM      8  C   UNL     1      -2.397  -0.033   0.016  0.00  0.00    -0.023 A 
ATOM      9  C   UNL     1      -2.415   1.349   0.026  0.00  0.00    +0.009 A 
ATOM     10  C   UNL     1      -1.229   2.059   0.019  0.00  0.00    +0.050 A 
ATOM     11  C   UNL     1      -0.017   1.385   0.010  0.00  0.00    +0.162 A 
ATOM     12  C   UNL     1       0.002  -0.004   0.002  0.00  0.00    +0.162 A 
ATOM     13  C   UNL     1      -1.192  -0.710   0.004  0.00  0.00    +0.055 A 
ATOM     14  O   UNL     1       1.181  -0.685  -0.007  0.00  0.00    -0.485 OA
ATOM     15  C   UNL     1       2.347   0.053  -0.387  0.00  0.00    +0.270 C 
ATOM     16  C   UNL     1       2.334   1.392   0.364  0.00  0.00    +0.270 C 
ATOM     17  O   UNL     1       1.143   2.098   0.002  0.00  0.00    -0.485 OA
ENDBRANCH   7   8
BRANCH   7  19
ATOM     18  C   UNL     1      -4.407   0.590  -1.929  0.00  0.00    +0.009 C 
ATOM     19  C   UNL     1      -4.266  -0.838  -1.400  0.00  0.00    +0.008 C 
ATOM     20  C   UNL     1      -3.326  -1.630  -2.312  0.00  0.00    +0.009 C 
ENDBRANCH   7  19
ENDBRANCH   1   7
BRANCH   4  21
ATOM     21  C   UNL     1      -7.605  -1.039   2.911  0.00  0.00    +0.153 C 
BRANCH  21  22
ATOM     22  C   UNL     1      -8.452  -0.124   3.797  0.00  0.00    +0.228 C 
ATOM     23  C   UNL     1      -9.570  -0.939   4.462  0.00  0.00    +0.275 C 
ATOM     24  O   UNL     1     -10.334  -0.058   5.292  0.00  0.00    -0.485 OA
ATOM     25  C   UNL     1      -9.632   0.782   6.101  0.00  0.00    +0.162 A 
ATOM     26  C   UNL     1     -10.272   1.393   7.169  0.00  0.00    +0.049 A 
ATOM     27  C   UNL     1      -9.573   2.251   7.997  0.00  0.00    +0.004 A 
ATOM     28  C   UNL     1      -8.234   2.502   7.763  0.00  0.00    +0.004 A 
ATOM     29  C   UNL     1      -7.589   1.896   6.702  0.00  0.00    +0.049 A 
ATOM     30  C   UNL     1      -8.285   1.033   5.868  0.00  0.00    +0.163 A 
ATOM     31  O   UNL     1      -7.635   0.441   4.829  0.00  0.00    -0.480 OA
ENDBRANCH  21  22
ENDBRANCH   4  21
TORSDOF 5
