REMARK  Name = ZINC36701188
REMARK  5 active torsions:
REMARK  status: ('A' for Active; 'I' for Inactive)
REMARK    1  A    between atoms: C_1  and  C_2
REMARK    2  A    between atoms: C_5  and  C_9
REMARK    3  A    between atoms: C_6  and  O_8
REMARK    4  A    between atoms: N_11  and  C_12
REMARK    5  A    between atoms: C_15  and  N_18
REMARK                            x       y       z     vdW  Elec       q    Type
REMARK                         _______ _______ _______ _____ _____    ______ ____
ROOT
ATOM      1  C   UNL     1      -0.537  -4.240  -2.210  0.00  0.00    +0.252 C 
ATOM      2  O   UNL     1      -1.068  -4.846  -3.120  0.00  0.00    -0.270 OA
ATOM      3  N   UNL     1       0.062  -4.915  -1.209  0.00  0.00    -0.281 N 
ATOM      4  H   UNL     1       0.543  -4.433  -0.519  0.00  0.00    +0.155 HD
ENDROOT
BRANCH   1   9
ATOM      5  C   UNL     1      -0.580   1.515  -2.168  0.00  0.00    +0.044 C 
ATOM      6  C   UNL     1      -0.571   0.009  -2.182  0.00  0.00    -0.047 A 
ATOM      7  C   UNL     1       0.044  -0.686  -1.153  0.00  0.00    +0.004 A 
ATOM      8  C   UNL     1       0.059  -2.064  -1.156  0.00  0.00    +0.017 A 
ATOM      9  C   UNL     1      -0.550  -2.765  -2.200  0.00  0.00    +0.078 A 
ATOM     10  C   UNL     1      -1.171  -2.058  -3.239  0.00  0.00    +0.129 A 
ATOM     11  C   UNL     1      -1.181  -0.672  -3.217  0.00  0.00    +0.049 A 
BRANCH  10  12
ATOM     12  O   UNL     1      -1.765  -2.728  -4.258  0.00  0.00    -0.506 OA
ATOM     13  H   UNL     1      -2.698  -2.932  -4.104  0.00  0.00    +0.292 HD
ENDBRANCH  10  12
ENDBRANCH   1   9
BRANCH   3  14
ATOM     14  C   UNL     1      -0.009  -6.314  -1.167  0.00  0.00    +0.034 A 
ATOM     15  C   UNL     1      -0.096  -6.968   0.055  0.00  0.00    +0.025 A 
ATOM     16  C   UNL     1      -0.166  -8.346   0.097  0.00  0.00    +0.026 A 
ATOM     17  C   UNL     1      -0.151  -9.078  -1.083  0.00  0.00    +0.051 A 
ATOM     18  C   UNL     1      -0.066  -8.424  -2.305  0.00  0.00    +0.026 A 
ATOM     19  C   UNL     1       0.000  -7.045  -2.347  0.00  0.00    +0.025 A 
BRANCH  17  20
ATOM     20  N   UNL     1      -0.223 -10.475  -1.040  0.00  0.00    -0.207 N 
ATOM     21  C   UNL     1       0.178 -11.351   0.075  0.00  0.00    +0.133 C 
ATOM     22  C   UNL     1      -0.660 -12.643   0.085  0.00  0.00    +0.045 C 
ATOM     23  C   UNL     1      -0.680 -13.123  -1.397  0.00  0.00    +0.190 C 
ATOM     24  S   UNL     1      -0.788 -11.494  -2.245  0.00  0.00    +0.046 S 
ATOM     25  O   UNL     1      -2.143 -11.122  -2.453  0.00  0.00    -0.155 OA
ATOM     26  O   UNL     1       0.169 -11.410  -3.293  0.00  0.00    -0.155 OA
ENDBRANCH  17  20
ENDBRANCH   3  14
TORSDOF 4
