REMARK  Name = ZINC34975136
REMARK  10 active torsions:
REMARK  status: ('A' for Active; 'I' for Inactive)
REMARK    1  A    between atoms: C_1  and  C_2
REMARK    2  A    between atoms: C_5  and  C_8
REMARK    3  A    between atoms: C_15  and  C_17
REMARK    4  A    between atoms: C_18  and  C_20
REMARK    5  A    between atoms: C_20  and  C_22
REMARK    6  A    between atoms: C_20  and  N_25
REMARK    7  A    between atoms: C_22  and  C_23
REMARK    8  A    between atoms: C_22  and  C_24
REMARK    9  A    between atoms: C_26  and  C_28
REMARK   10  A    between atoms: C_31  and  N_35
REMARK                            x       y       z     vdW  Elec       q    Type
REMARK                         _______ _______ _______ _____ _____    ______ ____
ROOT
ATOM      1  C   UNL     1      -0.962  -3.862   0.504  0.00  0.00    +0.247 C 
ATOM      2  O   UNL     1      -1.103  -4.351  -0.600  0.00  0.00    -0.270 OA
ATOM      3  N   UNL     1      -0.595  -4.639   1.542  0.00  0.00    -0.292 N 
ATOM      4  C   UNL     1      -0.520  -4.084   2.901  0.00  0.00    +0.127 C 
ATOM      5  C   UNL     1       0.884  -4.343   3.460  0.00  0.00    +0.127 C 
ATOM      6  N   UNL     1       1.218  -5.760   3.254  0.00  0.00    -0.297 N 
ATOM      7  C   UNL     1       1.143  -6.314   1.895  0.00  0.00    +0.130 C 
ATOM      8  C   UNL     1      -0.267  -6.056   1.337  0.00  0.00    +0.091 C 
ATOM      9  C   UNL     1      -1.283  -6.931   2.074  0.00  0.00    +0.029 C 
ATOM     10  C   UNL     1       1.585  -6.536   4.293  0.00  0.00    +0.236 C 
ATOM     11  O   UNL     1       1.943  -7.679   4.099  0.00  0.00    -0.274 OA
ENDROOT
BRANCH   1  16
ATOM     12  C   UNL     1      -1.866   1.765   1.298  0.00  0.00    +0.044 C 
ATOM     13  C   UNL     1      -1.629   0.291   1.090  0.00  0.00    -0.050 A 
ATOM     14  C   UNL     1      -2.182  -0.625   1.967  0.00  0.00    +0.004 A 
ATOM     15  C   UNL     1      -1.969  -1.976   1.782  0.00  0.00    +0.013 A 
ATOM     16  C   UNL     1      -1.195  -2.417   0.708  0.00  0.00    +0.037 A 
ATOM     17  C   UNL     1      -0.641  -1.487  -0.174  0.00  0.00    +0.013 A 
ATOM     18  C   UNL     1      -0.866  -0.139   0.019  0.00  0.00    +0.004 A 
ENDBRANCH   1  16
BRANCH  10  19
ATOM     19  C   UNL     1       1.552  -5.985   5.695  0.00  0.00    +0.162 C 
BRANCH  19  20
ATOM     20  N   UNL     1       1.208  -7.056   6.633  0.00  0.00    -0.300 N 
ATOM     21  C   UNL     1       0.634  -6.758   7.815  0.00  0.00    +0.246 C 
ATOM     22  O   UNL     1       0.402  -5.600   8.103  0.00  0.00    -0.270 OA
ATOM     23  H   UNL     1       1.393  -7.980   6.403  0.00  0.00    +0.150 HD
BRANCH  21  24
ATOM     24  C   UNL     1       0.287  -7.839   8.761  0.00  0.00    +0.055 A 
ATOM     25  C   UNL     1       0.558  -9.169   8.436  0.00  0.00    +0.017 A 
ATOM     26  C   UNL     1       0.233 -10.173   9.324  0.00  0.00    +0.033 A 
ATOM     27  C   UNL     1      -0.362  -9.865  10.535  0.00  0.00    +0.128 A 
ATOM     28  C   UNL     1      -0.634  -8.550  10.865  0.00  0.00    +0.053 A 
ATOM     29  C   UNL     1      -0.308  -7.534   9.988  0.00  0.00    +0.055 A 
ATOM     30 CL   UNL     1      -0.643  -5.882  10.406  0.00  0.00    -0.083 Cl
BRANCH  27  31
ATOM     31  N   UNL     1      -0.709 -10.948  11.482  0.00  0.00    +0.056 N 
ATOM     32  O   UNL     1      -0.473 -12.099  11.197  0.00  0.00    -0.126 OA
ATOM     33  O   UNL     1      -1.228 -10.683  12.541  0.00  0.00    -0.126 OA
ENDBRANCH  27  31
ENDBRANCH  21  24
ENDBRANCH  19  20
BRANCH  19  34
ATOM     34  C   UNL     1       2.926  -5.415   6.052  0.00  0.00    +0.012 C 
ATOM     35  C   UNL     1       3.984  -6.512   5.913  0.00  0.00    +0.009 C 
ATOM     36  C   UNL     1       3.261  -4.261   5.106  0.00  0.00    +0.009 C 
ENDBRANCH  19  34
ENDBRANCH  10  19
TORSDOF 6
