REMARK  Name = ZINC07989097
REMARK  6 active torsions:
REMARK  status: ('A' for Active; 'I' for Inactive)
REMARK    1  A    between atoms: C_1  and  C_2
REMARK    2  A    between atoms: C_2  and  C_3
REMARK    3  A    between atoms: C_2  and  C_4
REMARK    4  A    between atoms: C_7  and  C_10
REMARK    5  A    between atoms: C_16  and  C_18
REMARK    6  A    between atoms: C_18  and  N_19
REMARK                            x       y       z     vdW  Elec       q    Type
REMARK                         _______ _______ _______ _____ _____    ______ ____
ROOT
ATOM      1  C   UNL     1      -2.706   2.942   4.743  0.00  0.00    +0.134 A 
ATOM      2  N   UNL     1      -3.263   2.253   5.731  0.00  0.00    -0.140 NA
ATOM      3  N   UNL     1      -3.808   2.853   6.699  0.00  0.00    -0.125 NA
ATOM      4  C   UNL     1      -3.860   4.174   6.765  0.00  0.00    +0.188 A 
ATOM      5  S   UNL     1      -3.036   4.610   5.296  0.00  0.00    -0.030 S 
ATOM      6  N   UNL     1      -4.419   4.989   7.741  0.00  0.00    -0.262 N 
ATOM      7  C   UNL     1      -5.019   4.440   8.815  0.00  0.00    +0.239 C 
ATOM      8  O   UNL     1      -5.072   3.233   8.930  0.00  0.00    -0.273 OA
ATOM      9  H   UNL     1      -4.377   5.954   7.649  0.00  0.00    +0.157 HD
ENDROOT
BRANCH   1  13
ATOM     10  C   UNL     1      -0.718   1.572   1.248  0.00  0.00    -0.045 A 
ATOM     11  C   UNL     1      -0.854   2.930   1.475  0.00  0.00    +0.004 A 
ATOM     12  C   UNL     1      -1.504   3.381   2.606  0.00  0.00    +0.011 A 
ATOM     13  C   UNL     1      -2.014   2.465   3.526  0.00  0.00    +0.009 A 
ATOM     14  C   UNL     1      -1.869   1.097   3.294  0.00  0.00    +0.011 A 
ATOM     15  C   UNL     1      -1.222   0.658   2.157  0.00  0.00    +0.004 A 
BRANCH  10  17
ATOM     16  C   UNL     1       1.423   1.615  -0.003  0.00  0.00    +0.012 C 
ATOM     17  C   UNL     1      -0.013   1.086   0.008  0.00  0.00    +0.013 C 
ATOM     18  C   UNL     1      -0.753   1.593  -1.232  0.00  0.00    +0.012 C 
ENDBRANCH  10  17
ENDBRANCH   1  13
BRANCH   7  19
ATOM     19  C   UNL     1      -5.626   5.324   9.873  0.00  0.00    +0.220 C 
BRANCH  19  20
ATOM     20  N   UNL     1      -6.212   4.493  10.928  0.00  0.00    -0.306 N 
ATOM     21  C   UNL     1      -7.510   4.105  10.833  0.00  0.00    +0.089 A 
ATOM     22  C   UNL     1      -8.072   3.333  11.792  0.00  0.00    +0.018 A 
ATOM     23  C   UNL     1      -7.315   2.934  12.902  0.00  0.00    +0.007 A 
ATOM     24  C   UNL     1      -6.013   3.328  12.998  0.00  0.00    +0.070 A 
ATOM     25  C   UNL     1      -5.459   4.125  11.982  0.00  0.00    +0.252 A 
ATOM     26  O   UNL     1      -4.295   4.486  12.055  0.00  0.00    -0.268 OA
ENDBRANCH  19  20
ENDBRANCH   7  19
TORSDOF 4
