REMARK  Name = ZINC04851978
REMARK  5 active torsions:
REMARK  status: ('A' for Active; 'I' for Inactive)
REMARK    1  A    between atoms: C_7  and  N_13
REMARK    2  A    between atoms: C_8  and  C_10
REMARK    3  A    between atoms: C_14  and  C_16
REMARK    4  A    between atoms: C_16  and  O_17
REMARK    5  A    between atoms: O_17  and  C_18
REMARK                            x       y       z     vdW  Elec       q    Type
REMARK                         _______ _______ _______ _____ _____    ______ ____
ROOT
ATOM      1  C   UNL     1      -2.148   3.656  -2.340  0.00  0.00    +0.001 A 
ATOM      2  C   UNL     1      -2.703   2.445  -1.950  0.00  0.00    +0.004 A 
ATOM      3  C   UNL     1      -2.100   1.675  -0.979  0.00  0.00    +0.047 A 
ATOM      4  C   UNL     1      -0.924   2.111  -0.380  0.00  0.00    +0.138 A 
ATOM      5  C   UNL     1      -0.367   3.339  -0.779  0.00  0.00    +0.042 A 
ATOM      6  C   UNL     1      -0.993   4.104  -1.764  0.00  0.00    +0.013 A 
ATOM      7  C   UNL     1       0.847   3.508   0.028  0.00  0.00    +0.092 A 
ATOM      8  C   UNL     1       0.923   2.400   0.826  0.00  0.00    +0.211 A 
ATOM      9  O   UNL     1      -0.131   1.591   0.577  0.00  0.00    -0.448 OA
ENDROOT
BRANCH   8  10
ATOM     10  C   UNL     1       1.979   2.135   1.802  0.00  0.00    +0.279 C 
ATOM     11  O   UNL     1       2.824   2.980   2.030  0.00  0.00    -0.267 OA
ATOM     12  N   UNL     1       2.016   0.953   2.450  0.00  0.00    -0.323 N 
ATOM     13  H   UNL     1       1.342   0.279   2.269  0.00  0.00    +0.145 HD
ATOM     14  H   UNL     1       2.716   0.777   3.098  0.00  0.00    +0.145 HD
ENDBRANCH   8  10
BRANCH   7  15
ATOM     15  N   UNL     1       1.738   4.574  -0.012  0.00  0.00    -0.279 N 
ATOM     16  C   UNL     1       1.316   5.790  -0.412  0.00  0.00    +0.255 C 
ATOM     17  O   UNL     1       0.145   5.970  -0.673  0.00  0.00    -0.272 OA
ATOM     18  H   UNL     1       2.663   4.443   0.248  0.00  0.00    +0.155 HD
BRANCH  16  19
ATOM     19  C   UNL     1       2.299   6.926  -0.536  0.00  0.00    +0.324 C 
BRANCH  19  20
ATOM     20  O   UNL     1       1.615   8.102  -0.973  0.00  0.00    -0.483 OA
BRANCH  20  21
ATOM     21  C   UNL     1       2.362   9.226  -1.136  0.00  0.00    +0.121 A 
ATOM     22  C   UNL     1       3.724   9.198  -0.875  0.00  0.00    +0.048 A 
ATOM     23  C   UNL     1       4.483  10.339  -1.048  0.00  0.00    +0.042 A 
ATOM     24  C   UNL     1       3.883  11.513  -1.469  0.00  0.00    +0.124 A 
ATOM     25  C   UNL     1       2.523  11.544  -1.724  0.00  0.00    +0.042 A 
ATOM     26  C   UNL     1       1.762  10.403  -1.558  0.00  0.00    +0.048 A 
ATOM     27  F   UNL     1       4.626  12.630  -1.632  0.00  0.00    -0.205 F 
ENDBRANCH  20  21
ENDBRANCH  19  20
ENDBRANCH  16  19
ENDBRANCH   7  15
TORSDOF 5
