REMARK  Name = ZINC32639613
REMARK  7 active torsions:
REMARK  status: ('A' for Active; 'I' for Inactive)
REMARK    1  A    between atoms: C_1  and  C_2
REMARK    2  A    between atoms: C_2  and  C_3
REMARK    3  A    between atoms: C_3  and  C_4
REMARK    4  A    between atoms: C_3  and  C_6
REMARK    5  A    between atoms: C_4  and  C_5
REMARK    6  A    between atoms: C_6  and  N_8
REMARK    7  A    between atoms: N_10  and  C_21
REMARK                            x       y       z     vdW  Elec       q    Type
REMARK                         _______ _______ _______ _____ _____    ______ ____
ROOT
ATOM      1  N   UNL     1       2.640  -2.600   0.714  0.00  0.00    -0.159 NA
ATOM      2  C   UNL     1       2.858  -3.869   0.386  0.00  0.00    +0.154 C 
ATOM      3  N   UNL     1       2.229  -4.948   0.908  0.00  0.00    -0.276 N 
ATOM      4  C   UNL     1       2.606  -6.284   0.478  0.00  0.00    +0.116 C 
ATOM      5  C   UNL     1       3.044  -7.109   1.710  0.00  0.00    +0.190 C 
ATOM      6  S   UNL     1       4.403  -8.140   1.008  0.00  0.00    -0.028 S 
ATOM      7  O   UNL     1       3.845  -9.272   0.354  0.00  0.00    -0.174 OA
ATOM      8  O   UNL     1       5.413  -8.321   1.992  0.00  0.00    -0.174 OA
ATOM      9  C   UNL     1       4.988  -6.930  -0.257  0.00  0.00    +0.182 C 
ATOM     10  C   UNL     1       3.677  -6.228  -0.618  0.00  0.00    +0.097 C 
ATOM     11  S   UNL     1       3.958  -4.421  -0.752  0.00  0.00    -0.086 S 
ENDROOT
BRANCH   3  12
ATOM     12  C   UNL     1       1.217  -4.777   1.858  0.00  0.00    +0.037 A 
ATOM     13  C   UNL     1      -0.070  -4.447   1.453  0.00  0.00    +0.023 A 
ATOM     14  C   UNL     1      -1.067  -4.279   2.394  0.00  0.00    +0.003 A 
ATOM     15  C   UNL     1      -0.786  -4.439   3.738  0.00  0.00    +0.014 A 
ATOM     16  C   UNL     1       0.495  -4.768   4.145  0.00  0.00    +0.015 A 
ATOM     17  C   UNL     1       1.496  -4.943   3.208  0.00  0.00    +0.037 A 
ATOM     18  I   UNL     1       0.915  -5.008   6.184  0.00  0.00    -0.044 I 
ENDBRANCH   3  12
BRANCH   1  19
ATOM     19  C   UNL     1       1.843  -2.305   1.738  0.00  0.00    +0.241 C 
ATOM     20  O   UNL     1       0.650  -2.157   1.556  0.00  0.00    -0.273 OA
BRANCH  19  21
ATOM     21  C   UNL     1       2.419  -2.155   3.122  0.00  0.00    +0.077 C 
BRANCH  21  23
ATOM     22  C   UNL     1       4.256  -1.118   4.462  0.00  0.00    +0.004 C 
ATOM     23  C   UNL     1       3.599  -1.183   3.081  0.00  0.00    +0.009 C 
ENDBRANCH  21  23
BRANCH  21  24
ATOM     24  C   UNL     1       1.344  -1.613   4.066  0.00  0.00    +0.009 C 
ATOM     25  C   UNL     1       0.873  -0.244   3.569  0.00  0.00    +0.004 C 
ENDBRANCH  21  24
ENDBRANCH  19  21
ENDBRANCH   1  19
TORSDOF 5
