REMARK  Name = ZINC13022376
REMARK  9 active torsions:
REMARK  status: ('A' for Active; 'I' for Inactive)
REMARK    1  A    between atoms: C_1  and  C_2
REMARK    2  A    between atoms: C_4  and  C_27
REMARK    3  A    between atoms: C_6  and  S_10
REMARK    4  A    between atoms: C_7  and  C_8
REMARK    5  A    between atoms: S_10  and  C_11
REMARK    6  A    between atoms: C_11  and  C_13
REMARK    7  A    between atoms: C_11  and  C_14
REMARK    8  A    between atoms: N_16  and  C_17
REMARK    9  A    between atoms: C_21  and  N_23
REMARK                            x       y       z     vdW  Elec       q    Type
REMARK                         _______ _______ _______ _____ _____    ______ ____
ROOT
ATOM      1  C   UNL     1       1.280   1.980   0.007  0.00  0.00    +0.136 C 
ATOM      2  C   UNL     1       1.664   2.331   1.446  0.00  0.00    +0.029 C 
ENDROOT
BRANCH   1   3
ATOM      3  C   UNL     1      -0.014   1.209   0.007  0.00  0.00    +0.230 C 
ATOM      4  O   UNL     1       0.002  -0.004  -0.008  0.00  0.00    -0.274 OA
ATOM      5  N   UNL     1      -1.191   1.867   0.018  0.00  0.00    -0.285 N 
ATOM      6  H   UNL     1      -1.205   2.833   0.098  0.00  0.00    +0.155 HD
BRANCH   5   7
ATOM      7  C   UNL     1      -2.392   1.155  -0.086  0.00  0.00    +0.036 A 
ATOM      8  C   UNL     1      -3.469   1.704  -0.770  0.00  0.00    +0.026 A 
ATOM      9  C   UNL     1      -4.651   0.998  -0.876  0.00  0.00    +0.042 A 
ATOM     10  C   UNL     1      -4.766  -0.253  -0.291  0.00  0.00    +0.154 A 
ATOM     11  C   UNL     1      -3.696  -0.799   0.395  0.00  0.00    +0.163 A 
ATOM     12  C   UNL     1      -2.510  -0.099   0.499  0.00  0.00    +0.059 A 
ATOM     13  F   UNL     1      -5.925  -0.940  -0.392  0.00  0.00    -0.203 F 
BRANCH  11  14
ATOM     14  N   UNL     1      -3.822  -2.136   1.019  0.00  0.00    +0.059 N 
ATOM     15  O   UNL     1      -2.880  -2.618   1.623  0.00  0.00    -0.126 OA
ATOM     16  O   UNL     1      -4.867  -2.754   0.927  0.00  0.00    -0.126 OA
ENDBRANCH  11  14
ENDBRANCH   5   7
ENDBRANCH   1   3
BRANCH   1  17
ATOM     17  S   UNL     1       2.585   0.969  -0.736  0.00  0.00    -0.093 S 
BRANCH  17  23
ATOM     18  C   UNL     1       7.562   2.359  -1.791  0.00  0.00    +0.045 C 
ATOM     19  C   UNL     1       6.198   2.707  -1.255  0.00  0.00    -0.032 A 
ATOM     20  C   UNL     1       5.936   3.967  -0.747  0.00  0.00    +0.027 A 
ATOM     21  C   UNL     1       4.673   4.258  -0.261  0.00  0.00    +0.040 A 
ATOM     22  N   UNL     1       3.712   3.357  -0.272  0.00  0.00    -0.245 NA
ATOM     23  C   UNL     1       3.906   2.135  -0.746  0.00  0.00    +0.112 A 
ATOM     24  C   UNL     1       5.165   1.762  -1.252  0.00  0.00    +0.098 A 
ATOM     25  C   UNL     1       4.392   5.632   0.291  0.00  0.00    +0.065 C 
BRANCH  24  26
ATOM     26  C   UNL     1       5.391   0.404  -1.775  0.00  0.00    +0.389 C 
ATOM     27  O   UNL     1       5.193   0.164  -2.950  0.00  0.00    -0.240 OA
ATOM     28  O   UNL     1       5.816  -0.574  -0.951  0.00  0.00    -0.240 OA
ENDBRANCH  24  26
ENDBRANCH  17  23
ENDBRANCH   1  17
TORSDOF 6
