REMARK  Name = ZINC35778430
REMARK  12 active torsions:
REMARK  status: ('A' for Active; 'I' for Inactive)
REMARK    1  A    between atoms: C_1  and  N_2
REMARK    2  A    between atoms: C_3  and  O_32
REMARK    3  A    between atoms: C_4  and  C_13
REMARK    4  A    between atoms: C_5  and  C_7
REMARK    5  A    between atoms: C_13  and  N_14
REMARK    6  A    between atoms: N_14  and  C_15
REMARK    7  A    between atoms: N_14  and  C_22
REMARK    8  A    between atoms: C_15  and  C_16
REMARK    9  A    between atoms: C_22  and  C_23
REMARK   10  A    between atoms: C_23  and  C_25
REMARK   11  A    between atoms: C_23  and  O_31
REMARK   12  A    between atoms: O_32  and  C_33
REMARK                            x       y       z     vdW  Elec       q    Type
REMARK                         _______ _______ _______ _____ _____    ______ ____
ROOT
ATOM      1  C   UNL     1      -2.391  -7.508   0.051  0.00  0.00    +0.176 C 
ATOM      2  N   UNL     1      -1.442  -6.399   0.162  0.00  0.00    -0.235 N 
ATOM      3  C   UNL     1      -1.007  -5.615  -0.858  0.00  0.00    +0.221 A 
ATOM      4  C   UNL     1      -0.139  -4.708  -0.343  0.00  0.00    +0.025 A 
ATOM      5  C   UNL     1      -0.040  -4.945   1.041  0.00  0.00    +0.098 A 
ATOM      6  N   UNL     1      -0.827  -5.956   1.341  0.00  0.00    -0.168 NA
ENDROOT
BRANCH   5   7
ATOM      7  C   UNL     1       0.802  -4.183   1.997  0.00  0.00    +0.002 A 
ATOM      8  C   UNL     1       2.103  -3.825   1.652  0.00  0.00    +0.010 A 
ATOM      9  C   UNL     1       2.881  -3.116   2.545  0.00  0.00    +0.001 A 
ATOM     10  C   UNL     1       2.371  -2.762   3.781  0.00  0.00    +0.000 A 
ATOM     11  C   UNL     1       1.080  -3.115   4.129  0.00  0.00    +0.001 A 
ATOM     12  C   UNL     1       0.291  -3.818   3.241  0.00  0.00    +0.010 A 
ENDBRANCH   5   7
BRANCH   4  13
ATOM     13  C   UNL     1       0.589  -3.637  -1.115  0.00  0.00    -0.035 C 
BRANCH  13  14
ATOM     14  N   UNL     1       1.833  -4.191  -1.666  0.00  0.00    +0.386 N 
ATOM     15  H   UNL     1       2.414  -4.528  -0.913  0.00  0.00    -0.081 HD
BRANCH  14  16
ATOM     16  C   UNL     1       2.549  -3.145  -2.407  0.00  0.00    -0.046 C 
BRANCH  16  17
ATOM     17  C   UNL     1       3.025  -2.065  -1.433  0.00  0.00    +0.102 C 
ATOM     18  C   UNL     1       3.866  -1.000  -2.180  0.00  0.00    +0.032 C 
ATOM     19  C   UNL     1       3.680   0.229  -1.248  0.00  0.00    +0.030 C 
ATOM     20  C   UNL     1       2.237   0.035  -0.734  0.00  0.00    +0.160 C 
ATOM     21  O   UNL     1       1.902  -1.350  -0.894  0.00  0.00    -0.378 OA
ENDBRANCH  16  17
ENDBRANCH  14  16
BRANCH  14  22
ATOM     22  C   UNL     1       1.514  -5.303  -2.573  0.00  0.00    -0.042 C 
BRANCH  22  23
ATOM     23  C   UNL     1       2.792  -6.081  -2.894  0.00  0.00    +0.128 C 
BRANCH  23  24
ATOM     24  C   UNL     1       2.436  -7.349  -3.627  0.00  0.00    -0.021 A 
ATOM     25  C   UNL     1       2.268  -7.329  -4.999  0.00  0.00    +0.006 A 
ATOM     26  C   UNL     1       1.942  -8.492  -5.672  0.00  0.00    +0.000 A 
ATOM     27  C   UNL     1       1.785  -9.675  -4.973  0.00  0.00    +0.000 A 
ATOM     28  C   UNL     1       1.955  -9.694  -3.601  0.00  0.00    +0.000 A 
ATOM     29  C   UNL     1       2.285  -8.532  -2.929  0.00  0.00    +0.006 A 
ENDBRANCH  23  24
BRANCH  23  30
ATOM     30  O   UNL     1       3.644  -5.279  -3.714  0.00  0.00    -0.389 OA
ATOM     31  H   UNL     1       3.248  -5.020  -4.557  0.00  0.00    +0.210 HD
ENDBRANCH  23  30
ENDBRANCH  22  23
ENDBRANCH  14  22
ENDBRANCH  13  14
ENDBRANCH   4  13
BRANCH   3  32
ATOM     32  O   UNL     1      -1.375  -5.721  -2.161  0.00  0.00    -0.438 OA
BRANCH  32  33
ATOM     33  C   UNL     1      -2.432  -4.983  -2.587  0.00  0.00    +0.130 A 
ATOM     34  C   UNL     1      -3.034  -4.072  -1.731  0.00  0.00    +0.046 A 
ATOM     35  C   UNL     1      -4.109  -3.322  -2.167  0.00  0.00    +0.004 A 
ATOM     36  C   UNL     1      -4.586  -3.479  -3.456  0.00  0.00    +0.000 A 
ATOM     37  C   UNL     1      -3.988  -4.386  -4.311  0.00  0.00    +0.004 A 
ATOM     38  C   UNL     1      -2.909  -5.134  -3.882  0.00  0.00    +0.046 A 
ENDBRANCH  32  33
ENDBRANCH   3  32
TORSDOF 11
