REMARK  Name = ZINC14627576
REMARK  7 active torsions:
REMARK  status: ('A' for Active; 'I' for Inactive)
REMARK    1  A    between atoms: C_1  and  C_2
REMARK    2  A    between atoms: N_5  and  S_11
REMARK    3  A    between atoms: C_7  and  C_10
REMARK    4  A    between atoms: S_11  and  C_14
REMARK    5  A    between atoms: C_17  and  N_20
REMARK    6  A    between atoms: C_21  and  C_23
REMARK    7  A    between atoms: C_26  and  N_29
REMARK                            x       y       z     vdW  Elec       q    Type
REMARK                         _______ _______ _______ _____ _____    ______ ____
ROOT
ATOM      1  C   UNL     1       2.730   2.382  -2.126  0.00  0.00    +0.106 A 
ATOM      2  C   UNL     1       1.740   3.089  -2.784  0.00  0.00    +0.030 A 
ATOM      3  C   UNL     1       1.590   4.443  -2.559  0.00  0.00    +0.025 A 
ATOM      4  C   UNL     1       2.435   5.095  -1.671  0.00  0.00    +0.034 A 
ATOM      5  C   UNL     1       3.429   4.383  -1.012  0.00  0.00    +0.025 A 
ATOM      6  C   UNL     1       3.570   3.028  -1.237  0.00  0.00    +0.030 A 
ENDROOT
BRANCH   4   7
ATOM      7  N   UNL     1       2.287   6.467  -1.441  0.00  0.00    -0.282 N 
ATOM      8  C   UNL     1       1.062   7.028  -1.480  0.00  0.00    +0.248 C 
ATOM      9  O   UNL     1       0.077   6.328  -1.618  0.00  0.00    -0.270 OA
ATOM     10  H   UNL     1       3.065   7.014  -1.254  0.00  0.00    +0.155 HD
BRANCH   8  11
ATOM     11  C   UNL     1       0.915   8.493  -1.353  0.00  0.00    +0.037 A 
ATOM     12  C   UNL     1       2.045   9.300  -1.200  0.00  0.00    +0.015 A 
ATOM     13  C   UNL     1       1.901  10.667  -1.083  0.00  0.00    +0.033 A 
ATOM     14  C   UNL     1       0.642  11.239  -1.117  0.00  0.00    +0.126 A 
ATOM     15  C   UNL     1      -0.482  10.445  -1.269  0.00  0.00    +0.033 A 
ATOM     16  C   UNL     1      -0.352   9.077  -1.392  0.00  0.00    +0.015 A 
BRANCH  14  17
ATOM     17  N   UNL     1       0.495  12.706  -0.990  0.00  0.00    +0.056 N 
ATOM     18  O   UNL     1       1.475  13.402  -0.857  0.00  0.00    -0.126 OA
ATOM     19  O   UNL     1      -0.604  13.209  -1.019  0.00  0.00    -0.126 OA
ENDBRANCH  14  17
ENDBRANCH   8  11
ENDBRANCH   4   7
BRANCH   1  20
ATOM     20  S   UNL     1       2.918   0.654  -2.416  0.00  0.00    +0.061 S 
ATOM     21  O   UNL     1       4.262   0.331  -2.087  0.00  0.00    -0.153 OA
ATOM     22  O   UNL     1       2.365   0.395  -3.699  0.00  0.00    -0.153 OA
BRANCH  20  26
ATOM     23  C   UNL     1      -0.311   1.559  -0.443  0.00  0.00    +0.039 C 
ATOM     24  C   UNL     1      -0.323   0.029  -0.481  0.00  0.00    +0.131 C 
ATOM     25  C   UNL     1       0.559  -0.461  -1.635  0.00  0.00    +0.140 C 
ATOM     26  N   UNL     1       1.959  -0.133  -1.320  0.00  0.00    -0.172 NA
ATOM     27  C   UNL     1       2.482  -0.526  -0.001  0.00  0.00    +0.140 C 
ATOM     28  C   UNL     1       1.505  -0.033   1.073  0.00  0.00    +0.131 C 
ATOM     29  O   UNL     1       0.185  -0.483   0.753  0.00  0.00    -0.371 OA
ATOM     30  C   UNL     1       1.920  -0.592   2.435  0.00  0.00    +0.039 C 
ENDBRANCH  20  26
ENDBRANCH   1  20
TORSDOF 5
