REMARK  Name = ZINC09620574
REMARK  8 active torsions:
REMARK  status: ('A' for Active; 'I' for Inactive)
REMARK    1  A    between atoms: C_1  and  C_2
REMARK    2  A    between atoms: C_2  and  C_3
REMARK    3  A    between atoms: C_2  and  S_4
REMARK    4  A    between atoms: S_4  and  C_5
REMARK    5  A    between atoms: C_8  and  C_11
REMARK    6  A    between atoms: N_13  and  C_14
REMARK    7  A    between atoms: C_15  and  C_26
REMARK    8  A    between atoms: C_23  and  C_25
REMARK                            x       y       z     vdW  Elec       q    Type
REMARK                         _______ _______ _______ _____ _____    ______ ____
ROOT
ATOM      1  C   UNL     1       2.547   2.976   1.457  0.00  0.00    +0.085 A 
ATOM      2  C   UNL     1       1.971   2.825   0.204  0.00  0.00    +0.068 A 
ATOM      3  C   UNL     1       2.742   3.260  -0.949  0.00  0.00    -0.020 A 
ATOM      4  C   UNL     1       3.959   3.771  -0.663  0.00  0.00    +0.013 A 
ATOM      5  S   UNL     1       4.091   3.677   1.099  0.00  0.00    -0.076 S 
ATOM      6  C   UNL     1       4.965   4.300  -1.641  0.00  0.00    +0.150 C 
ATOM      7  N   UNL     1       4.484   3.948  -2.992  0.00  0.00    -0.297 N 
ATOM      8  C   UNL     1       3.049   4.113  -3.267  0.00  0.00    +0.113 C 
ATOM      9  C   UNL     1       2.245   3.155  -2.385  0.00  0.00    +0.056 C 
ATOM     10  C   UNL     1       5.329   3.492  -3.938  0.00  0.00    +0.213 C 
ATOM     11  O   UNL     1       4.910   3.209  -5.040  0.00  0.00    -0.276 OA
ATOM     12  C   UNL     1       6.795   3.334  -3.626  0.00  0.00    +0.109 C 
ENDROOT
BRANCH   2  13
ATOM     13  C   UNL     1       0.630   2.252   0.048  0.00  0.00    +0.244 C 
ATOM     14  O   UNL     1       0.494   1.051  -0.098  0.00  0.00    -0.270 OA
ATOM     15  N   UNL     1      -0.452   3.056   0.062  0.00  0.00    -0.325 N 
ATOM     16  H   UNL     1      -1.338   2.677  -0.045  0.00  0.00    +0.145 HD
ATOM     17  H   UNL     1      -0.344   4.013   0.179  0.00  0.00    +0.145 HD
ENDBRANCH   2  13
BRANCH   1  20
ATOM     18  C   UNL     1       2.733   2.869   3.814  0.00  0.00    +0.249 C 
ATOM     19  O   UNL     1       3.843   3.360   3.740  0.00  0.00    -0.270 OA
ATOM     20  N   UNL     1       2.018   2.646   2.694  0.00  0.00    -0.275 N 
ATOM     21  H   UNL     1       1.132   2.254   2.753  0.00  0.00    +0.156 HD
BRANCH  18  25
ATOM     22  C   UNL     1       1.112   1.858   7.601  0.00  0.00    +0.008 A 
ATOM     23  C   UNL     1       2.384   2.420   7.516  0.00  0.00    +0.015 A 
ATOM     24  C   UNL     1       2.910   2.748   6.294  0.00  0.00    +0.014 A 
ATOM     25  C   UNL     1       2.169   2.517   5.130  0.00  0.00    +0.037 A 
ATOM     26  C   UNL     1       0.890   1.958   5.218  0.00  0.00    +0.014 A 
ATOM     27  C   UNL     1       0.371   1.627   6.443  0.00  0.00    +0.015 A 
BRANCH  22  28
ATOM     28  S   UNL     1       0.438   1.438   9.174  0.00  0.00    -0.122 S 
BRANCH  28  30
ATOM     29  C   UNL     1       0.740  -0.632  10.936  0.00  0.00    +0.019 C 
ATOM     30  C   UNL     1       1.103  -0.216   9.509  0.00  0.00    +0.045 C 
ATOM     31  C   UNL     1       0.505  -1.216   8.518  0.00  0.00    +0.019 C 
ENDBRANCH  28  30
ENDBRANCH  22  28
ENDBRANCH  18  25
ENDBRANCH   1  20
TORSDOF 5
