REMARK  Name = ZINC10790018
REMARK  6 active torsions:
REMARK  status: ('A' for Active; 'I' for Inactive)
REMARK    1  A    between atoms: C_1  and  O_2
REMARK    2  A    between atoms: O_2  and  C_3
REMARK    3  A    between atoms: C_3  and  C_5
REMARK    4  A    between atoms: C_16  and  C_18
REMARK    5  A    between atoms: C_18  and  S_19
REMARK    6  A    between atoms: S_19  and  C_20
REMARK                            x       y       z     vdW  Elec       q    Type
REMARK                         _______ _______ _______ _____ _____    ______ ____
ROOT
ATOM      1  C   UNL     1      -0.801   1.643   3.681  0.00  0.00    +0.299 C 
ATOM      2  C   UNL     1      -0.716   3.172   3.788  0.00  0.00    +0.170 C 
ATOM      3  N   UNL     1      -1.313   3.561   5.078  0.00  0.00    -0.263 N 
ATOM      4  C   UNL     1      -1.010   2.775   6.203  0.00  0.00    +0.078 A 
ATOM      5  C   UNL     1      -1.304   3.240   7.475  0.00  0.00    +0.027 A 
ATOM      6  C   UNL     1      -1.007   2.462   8.579  0.00  0.00    +0.002 A 
ATOM      7  C   UNL     1      -0.418   1.221   8.413  0.00  0.00    +0.004 A 
ATOM      8  C   UNL     1      -0.122   0.753   7.147  0.00  0.00    +0.047 A 
ATOM      9  C   UNL     1      -0.415   1.528   6.034  0.00  0.00    +0.143 A 
ATOM     10  O   UNL     1      -0.117   1.061   4.793  0.00  0.00    -0.474 OA
ATOM     11  C   UNL     1      -2.124   4.633   5.174  0.00  0.00    +0.230 C 
ATOM     12  O   UNL     1      -2.690   4.873   6.220  0.00  0.00    -0.274 OA
ENDROOT
BRANCH   1  13
ATOM     13  C   UNL     1      -0.154   1.190   2.397  0.00  0.00    +0.350 C 
ATOM     14  O   UNL     1       0.847   0.515   2.431  0.00  0.00    -0.247 OA
BRANCH  13  16
ATOM     15  C   UNL     1      -0.013   1.066   0.021  0.00  0.00    +0.280 C 
ATOM     16  O   UNL     1      -0.690   1.537   1.217  0.00  0.00    -0.465 OA
ENDBRANCH  13  16
ENDBRANCH   1  13
BRANCH  11  17
ATOM     17  C   UNL     1      -2.328   5.533   3.983  0.00  0.00    +0.172 C 
BRANCH  17  18
ATOM     18  S   UNL     1      -3.332   6.963   4.470  0.00  0.00    -0.088 S 
BRANCH  18  19
ATOM     19  C   UNL     1      -3.478   7.905   2.988  0.00  0.00    +0.160 A 
ATOM     20  N   UNL     1      -2.982   7.662   1.790  0.00  0.00    -0.133 NA
ATOM     21  N   UNL     1      -3.225   8.539   0.758  0.00  0.00    -0.125 NA
ATOM     22  C   UNL     1      -3.942   9.624   0.974  0.00  0.00    +0.180 A 
ATOM     23  S   UNL     1      -4.332   9.449   2.708  0.00  0.00    -0.025 S 
ATOM     24  N   UNL     1      -4.299  10.634   0.088  0.00  0.00    -0.336 N 
ATOM     25  H   UNL     1      -4.838  11.380   0.395  0.00  0.00    +0.144 HD
ATOM     26  H   UNL     1      -4.010  10.593  -0.837  0.00  0.00    +0.144 HD
ENDBRANCH  18  19
ENDBRANCH  17  18
ENDBRANCH  11  17
TORSDOF 5
