REMARK  Name = ZINC58950586
REMARK  6 active torsions:
REMARK  status: ('A' for Active; 'I' for Inactive)
REMARK    1  A    between atoms: C_1  and  C_2
REMARK    2  A    between atoms: C_9  and  N_27
REMARK    3  A    between atoms: C_10  and  C_23
REMARK    4  A    between atoms: C_11  and  C_13
REMARK    5  A    between atoms: C_23  and  O_25
REMARK    6  A    between atoms: O_25  and  C_26
REMARK                            x       y       z     vdW  Elec       q    Type
REMARK                         _______ _______ _______ _____ _____    ______ ____
ROOT
ATOM      1  C   UNL     1       0.462   1.337   0.192  0.00  0.00    +0.068 C 
ATOM      2  C   UNL     1       0.327  -0.161   0.094  0.00  0.00    +0.068 A 
ATOM      3  C   UNL     1       0.182  -0.892  -1.077  0.00  0.00    +0.049 A 
ATOM      4  C   UNL     1       0.092  -2.215  -0.743  0.00  0.00    +0.222 A 
ATOM      5  N   UNL     1       0.178  -2.302   0.594  0.00  0.00    -0.246 N 
ATOM      6  H   UNL     1       0.144  -3.119   1.117  0.00  0.00    +0.192 HD
ATOM      7  N   UNL     1       0.331  -1.002   1.101  0.00  0.00    -0.176 NA
ATOM      8  O   UNL     1      -0.054  -3.196  -1.668  0.00  0.00    -0.424 OA
ATOM      9  C   UNL     1       0.164  -2.876  -2.958  0.00  0.00    +0.197 C 
ATOM     10  C   UNL     1       0.258  -1.603  -3.413  0.00  0.00    +0.105 C 
ATOM     11  C   UNL     1       0.121  -0.407  -2.503  0.00  0.00    +0.098 C 
ENDROOT
BRANCH  11  12
ATOM     12  C   UNL     1      -1.199   0.274  -2.753  0.00  0.00    -0.027 A 
ATOM     13  C   UNL     1      -2.365  -0.376  -2.490  0.00  0.00    +0.005 A 
ATOM     14  C   UNL     1      -3.596   0.238  -2.714  0.00  0.00    +0.001 A 
ATOM     15  C   UNL     1      -3.667   1.506  -3.204  0.00  0.00    +0.008 A 
ATOM     16  C   UNL     1      -2.485   2.209  -3.488  0.00  0.00    -0.018 A 
ATOM     17  C   UNL     1      -1.233   1.587  -3.253  0.00  0.00    -0.014 A 
ATOM     18  C   UNL     1      -0.050   2.292  -3.532  0.00  0.00    +0.009 A 
ATOM     19  C   UNL     1      -0.121   3.562  -4.016  0.00  0.00    +0.001 A 
ATOM     20  C   UNL     1      -1.352   4.177  -4.240  0.00  0.00    +0.001 A 
ATOM     21  C   UNL     1      -2.518   3.519  -3.995  0.00  0.00    +0.008 A 
ENDBRANCH  11  12
BRANCH   9  22
ATOM     22  N   UNL     1       0.297  -3.895  -3.862  0.00  0.00    -0.329 N 
ATOM     23  H   UNL     1       0.311  -4.816  -3.557  0.00  0.00    +0.145 HD
ATOM     24  H   UNL     1       0.378  -3.697  -4.808  0.00  0.00    +0.145 HD
ENDBRANCH   9  22
BRANCH  10  25
ATOM     25  C   UNL     1       0.490  -1.389  -4.779  0.00  0.00    +0.341 C 
ATOM     26  O   UNL     1       1.611  -1.114  -5.170  0.00  0.00    -0.245 OA
BRANCH  25  27
ATOM     27  O   UNL     1      -0.528  -1.487  -5.661  0.00  0.00    -0.465 OA
ATOM     28  C   UNL     1      -0.218  -1.257  -7.037  0.00  0.00    +0.280 C 
ENDBRANCH  25  27
ENDBRANCH  10  25
TORSDOF 4
