REMARK  Name = ZINC09728334
REMARK  7 active torsions:
REMARK  status: ('A' for Active; 'I' for Inactive)
REMARK    1  A    between atoms: C_1  and  C_2
REMARK    2  A    between atoms: C_4  and  C_29
REMARK    3  A    between atoms: C_5  and  C_9
REMARK    4  A    between atoms: C_7  and  C_8
REMARK    5  A    between atoms: C_15  and  C_17
REMARK    6  A    between atoms: C_17  and  N_18
REMARK    7  A    between atoms: C_19  and  C_24
REMARK                            x       y       z     vdW  Elec       q    Type
REMARK                         _______ _______ _______ _____ _____    ______ ____
ROOT
ATOM      1  C   UNL     1       0.245  -4.210  -0.466  0.00  0.00    +0.080 A 
ATOM      2  C   UNL     1       0.305  -5.078   0.588  0.00  0.00    +0.076 A 
ATOM      3  S   UNL     1       0.434  -6.639  -0.275  0.00  0.00    -0.060 S 
ATOM      4  C   UNL     1       0.395  -5.979  -1.935  0.00  0.00    +0.165 A 
ATOM      5  N   UNL     1       0.287  -4.685  -1.702  0.00  0.00    -0.225 NA
ATOM      6  N   UNL     1       0.457  -6.651  -3.150  0.00  0.00    -0.263 N 
ATOM      7  C   UNL     1       0.562  -7.995  -3.172  0.00  0.00    +0.239 C 
ATOM      8  O   UNL     1       0.602  -8.617  -2.132  0.00  0.00    -0.273 OA
ATOM      9  H   UNL     1       0.425  -6.154  -3.982  0.00  0.00    +0.157 HD
ENDROOT
BRANCH   1  14
ATOM     10  C   UNL     1      -0.205   1.457   0.458  0.00  0.00    +0.044 C 
ATOM     11  C   UNL     1      -0.087  -0.026   0.216  0.00  0.00    -0.047 A 
ATOM     12  C   UNL     1      -0.924  -0.645  -0.695  0.00  0.00    +0.007 A 
ATOM     13  C   UNL     1      -0.821  -2.002  -0.921  0.00  0.00    -0.041 A 
ATOM     14  C   UNL     1       0.130  -2.750  -0.228  0.00  0.00    +0.004 A 
ATOM     15  C   UNL     1       0.971  -2.122   0.688  0.00  0.00    +0.014 A 
ATOM     16  C   UNL     1       0.862  -0.763   0.901  0.00  0.00    -0.047 A 
ATOM     17  C   UNL     1       1.775  -0.081   1.887  0.00  0.00    +0.044 C 
ATOM     18  C   UNL     1      -1.734  -2.674  -1.913  0.00  0.00    +0.044 C 
ENDBRANCH   1  14
BRANCH   7  19
ATOM     19  C   UNL     1       0.629  -8.724  -4.489  0.00  0.00    +0.222 C 
BRANCH  19  20
ATOM     20  N   UNL     1       0.739 -10.164  -4.245  0.00  0.00    -0.292 N 
ATOM     21  C   UNL     1       1.895 -10.897  -4.092  0.00  0.00    +0.172 A 
ATOM     22  N   UNL     1       1.535 -12.146  -3.893  0.00  0.00    -0.128 NA
ATOM     23  N   UNL     1       0.254 -12.241  -3.910  0.00  0.00    -0.121 NA
ATOM     24  C   UNL     1      -0.285 -11.061  -4.116  0.00  0.00    +0.203 A 
ATOM     25  S   UNL     1      -2.007 -10.702  -4.211  0.00  0.00    -0.009 SA
BRANCH  21  26
ATOM     26  C   UNL     1       3.272 -10.380  -4.143  0.00  0.00    +0.056 A 
ATOM     27  C   UNL     1       4.437 -10.981  -3.738  0.00  0.00    +0.019 A 
ATOM     28  C   UNL     1       5.621 -10.294  -3.886  0.00  0.00    +0.008 A 
ATOM     29  C   UNL     1       5.601  -9.049  -4.427  0.00  0.00    +0.046 A 
ATOM     30  S   UNL     1       3.863  -8.810  -4.756  0.00  0.00    -0.094 S 
ENDBRANCH  21  26
ENDBRANCH  19  20
ENDBRANCH   7  19
TORSDOF 4
