REMARK  Name = ZINC20369740
REMARK  2 active torsions:
REMARK  status: ('A' for Active; 'I' for Inactive)
REMARK    1  A    between atoms: C_1  and  C_2
REMARK    2  A    between atoms: C_15  and  C_17
REMARK                            x       y       z     vdW  Elec       q    Type
REMARK                         _______ _______ _______ _____ _____    ______ ____
ROOT
ATOM      1  C   UNL     1      -0.019   1.526   0.010  0.00  0.00    +0.008 C 
ATOM      2  C   UNL     1       0.002  -0.004   0.002  0.00  0.00    -0.009 C 
ATOM      3  C   UNL     1      -1.433  -0.537   0.021  0.00  0.00    +0.008 C 
ATOM      4  C   UNL     1      -1.431  -2.044  -0.238  0.00  0.00    +0.037 C 
ATOM      5  C   UNL     1      -0.472  -2.713   0.744  0.00  0.00    -0.023 A 
ATOM      6  C   UNL     1       0.476  -1.986   1.383  0.00  0.00    -0.004 A 
ATOM      7  S   UNL     1       1.344  -3.149   2.405  0.00  0.00    -0.073 S 
ATOM      8  C   UNL     1       0.438  -4.602   1.976  0.00  0.00    +0.116 A 
ATOM      9  C   UNL     1      -0.517  -4.131   1.045  0.00  0.00    +0.075 A 
ATOM     10  C   UNL     1      -1.429  -5.096   0.496  0.00  0.00    +0.260 A 
ATOM     11  O   UNL     1      -2.287  -4.789  -0.314  0.00  0.00    -0.267 OA
ATOM     12  N   UNL     1      -1.275  -6.368   0.934  0.00  0.00    -0.306 N 
ATOM     13  H   UNL     1      -1.869  -7.052   0.589  0.00  0.00    +0.170 HD
ATOM     14  C   UNL     1      -0.320  -6.730   1.838  0.00  0.00    +0.142 A 
ATOM     15  N   UNL     1       0.535  -5.866   2.363  0.00  0.00    -0.222 NA
ATOM     16  C   UNL     1       0.737  -0.516   1.249  0.00  0.00    +0.046 C 
ENDROOT
BRANCH  14  17
ATOM     17  C   UNL     1      -0.236  -8.148   2.251  0.00  0.00    +0.020 A 
ATOM     18  C   UNL     1      -1.112  -9.104   1.723  0.00  0.00    +0.031 A 
ATOM     19  C   UNL     1      -0.999 -10.416   2.135  0.00  0.00    +0.111 A 
ATOM     20  N   UNL     1      -0.082 -10.773   3.014  0.00  0.00    -0.263 NA
ATOM     21  C   UNL     1       0.763  -9.905   3.536  0.00  0.00    +0.111 A 
ATOM     22  C   UNL     1       0.724  -8.573   3.175  0.00  0.00    +0.031 A 
ENDBRANCH  14  17
TORSDOF 1
