REMARK  Name = ZINC54698518
REMARK  7 active torsions:
REMARK  status: ('A' for Active; 'I' for Inactive)
REMARK    1  A    between atoms: C_1  and  C_2
REMARK    2  A    between atoms: C_2  and  C_3
REMARK    3  A    between atoms: C_2  and  N_9
REMARK    4  A    between atoms: C_12  and  N_14
REMARK    5  A    between atoms: N_17  and  C_18
REMARK    6  A    between atoms: C_18  and  C_19
REMARK    7  A    between atoms: C_22  and  N_25
REMARK                            x       y       z     vdW  Elec       q    Type
REMARK                         _______ _______ _______ _____ _____    ______ ____
ROOT
ATOM      1  N   UNL     1      -3.528  -1.292  -2.772  0.00  0.00    -0.298 N 
ATOM      2  C   UNL     1      -4.728  -1.757  -3.171  0.00  0.00    +0.300 C 
ATOM      3  O   UNL     1      -5.602  -1.965  -2.353  0.00  0.00    -0.253 OA
ATOM      4  N   UNL     1      -4.959  -1.991  -4.478  0.00  0.00    -0.295 N 
ATOM      5  H   UNL     1      -2.830  -1.125  -3.425  0.00  0.00    +0.150 HD
ATOM      6  H   UNL     1      -4.261  -1.825  -5.131  0.00  0.00    +0.151 HD
ENDROOT
BRANCH   1  10
ATOM      7  N   UNL     1      -1.376  -0.512   0.012  0.00  0.00    +0.385 N 
ATOM      8  C   UNL     1      -1.385  -1.992  -0.122  0.00  0.00    -0.076 C 
ATOM      9  C   UNL     1      -2.796  -2.326  -0.653  0.00  0.00    +0.002 C 
ATOM     10  C   UNL     1      -3.276  -1.037  -1.351  0.00  0.00    +0.056 C 
ATOM     11  C   UNL     1      -2.116  -0.033  -1.183  0.00  0.00    -0.056 C 
ATOM     12  H   UNL     1      -1.850  -0.230   0.857  0.00  0.00    -0.081 HD
BRANCH   7  14
ATOM     13  C   UNL     1      -0.019   1.526   0.010  0.00  0.00    -0.008 C 
ATOM     14  C   UNL     1       0.002  -0.004   0.002  0.00  0.00    -0.041 C 
BRANCH  14  15
ATOM     15  C   UNL     1       0.731  -0.503   1.223  0.00  0.00    -0.061 A 
ATOM     16  C   UNL     1       0.081  -0.558   2.442  0.00  0.00    +0.002 A 
ATOM     17  C   UNL     1       0.749  -1.016   3.562  0.00  0.00    +0.000 A 
ATOM     18  C   UNL     1       2.068  -1.420   3.463  0.00  0.00    +0.000 A 
ATOM     19  C   UNL     1       2.718  -1.365   2.244  0.00  0.00    +0.000 A 
ATOM     20  C   UNL     1       2.048  -0.911   1.123  0.00  0.00    +0.002 A 
ENDBRANCH  14  15
ENDBRANCH   7  14
ENDBRANCH   1  10
BRANCH   4  21
ATOM     21  C   UNL     1      -6.264  -2.496  -4.912  0.00  0.00    +0.141 C 
BRANCH  21  22
ATOM     22  C   UNL     1      -6.262  -2.671  -6.409  0.00  0.00    -0.030 A 
ATOM     23  C   UNL     1      -6.647  -1.626  -7.228  0.00  0.00    +0.007 A 
ATOM     24  C   UNL     1      -6.645  -1.787  -8.601  0.00  0.00    +0.033 A 
ATOM     25  C   UNL     1      -6.258  -2.993  -9.155  0.00  0.00    +0.126 A 
ATOM     26  C   UNL     1      -5.872  -4.038  -8.336  0.00  0.00    +0.033 A 
ATOM     27  C   UNL     1      -5.870  -3.876  -6.964  0.00  0.00    +0.007 A 
BRANCH  25  28
ATOM     28  N   UNL     1      -6.257  -3.165 -10.625  0.00  0.00    +0.056 N 
ATOM     29  O   UNL     1      -6.595  -2.252 -11.341  0.00  0.00    -0.126 OA
ATOM     30  O   UNL     1      -5.918  -4.220 -11.110  0.00  0.00    -0.126 OA
ENDBRANCH  25  28
ENDBRANCH  21  22
ENDBRANCH   4  21
TORSDOF 6
