REMARK  Name = ZINC59255205
REMARK  8 active torsions:
REMARK  status: ('A' for Active; 'I' for Inactive)
REMARK    1  A    between atoms: C_1  and  C_2
REMARK    2  A    between atoms: C_5  and  N_8
REMARK    3  A    between atoms: C_17  and  C_21
REMARK    4  A    between atoms: C_17  and  N_25
REMARK    5  A    between atoms: C_26  and  C_28
REMARK    6  A    between atoms: C_28  and  C_29
REMARK    7  A    between atoms: C_29  and  C_30
REMARK    8  A    between atoms: C_29  and  C_31
REMARK                            x       y       z     vdW  Elec       q    Type
REMARK                         _______ _______ _______ _____ _____    ______ ____
ROOT
ATOM      1  N   UNL     1       0.183  -4.059   0.115  0.00  0.00    -0.237 N 
ATOM      2  C   UNL     1       0.234  -4.812   1.273  0.00  0.00    +0.135 C 
ATOM      3  C   UNL     1       0.247  -6.209   1.152  0.00  0.00    +0.094 C 
ATOM      4  C   UNL     1       0.210  -6.793  -0.075  0.00  0.00    +0.252 C 
ATOM      5  O   UNL     1       0.222  -8.137  -0.189  0.00  0.00    -0.270 OA
ATOM      6  N   UNL     1       0.160  -6.005  -1.196  0.00  0.00    -0.263 N 
ATOM      7  H   UNL     1       0.133  -6.416  -2.074  0.00  0.00    +0.157 HD
ATOM      8  C   UNL     1       0.141  -4.664  -1.085  0.00  0.00    +0.149 C 
ATOM      9  S   UNL     1       0.071  -3.708  -2.503  0.00  0.00    -0.018 S 
ATOM     10  C   UNL     1       0.305  -6.736   2.567  0.00  0.00    +0.242 C 
ATOM     11  C   UNL     1       0.320  -5.467   3.398  0.00  0.00    +0.275 C 
ATOM     12  O   UNL     1       0.363  -5.397   4.611  0.00  0.00    -0.271 OA
ATOM     13  N   UNL     1       0.277  -4.451   2.552  0.00  0.00    -0.162 NA
ENDROOT
BRANCH   1  18
ATOM     14  C   UNL     1       0.123   1.607   0.425  0.00  0.00    +0.044 C 
ATOM     15  C   UNL     1       0.139   0.102   0.343  0.00  0.00    -0.050 A 
ATOM     16  C   UNL     1       1.265  -0.551  -0.124  0.00  0.00    +0.005 A 
ATOM     17  C   UNL     1       1.282  -1.930  -0.200  0.00  0.00    +0.024 A 
ATOM     18  C   UNL     1       0.168  -2.660   0.192  0.00  0.00    +0.042 A 
ATOM     19  C   UNL     1      -0.961  -2.001   0.660  0.00  0.00    +0.024 A 
ATOM     20  C   UNL     1      -0.970  -0.622   0.740  0.00  0.00    +0.005 A 
ENDBRANCH   1  18
BRANCH  10  21
ATOM     21  C   UNL     1       1.583  -7.546   2.791  0.00  0.00    +0.424 C 
ATOM     22  F   UNL     1       2.697  -6.723   2.593  0.00  0.00    -0.167 F 
ATOM     23  F   UNL     1       1.597  -8.042   4.099  0.00  0.00    -0.167 F 
ATOM     24  F   UNL     1       1.624  -8.613   1.887  0.00  0.00    -0.167 F 
ENDBRANCH  10  21
BRANCH  10  25
ATOM     25  N   UNL     1      -0.881  -7.541   2.869  0.00  0.00    -0.291 N 
ATOM     26  C   UNL     1      -2.112  -7.013   2.714  0.00  0.00    +0.214 C 
ATOM     27  O   UNL     1      -2.236  -5.847   2.405  0.00  0.00    -0.276 OA
ATOM     28  H   UNL     1      -0.781  -8.454   3.182  0.00  0.00    +0.150 HD
BRANCH  26  29
ATOM     29  C   UNL     1      -3.332  -7.872   2.922  0.00  0.00    +0.098 C 
BRANCH  29  30
ATOM     30  C   UNL     1      -4.591  -7.036   2.685  0.00  0.00    -0.008 C 
ATOM     31  C   UNL     1      -5.825  -7.936   2.774  0.00  0.00    +0.008 C 
ATOM     32  C   UNL     1      -4.682  -5.939   3.747  0.00  0.00    +0.008 C 
ENDBRANCH  29  30
ENDBRANCH  26  29
ENDBRANCH  10  25
TORSDOF 5
