REMARK  Name = ZINC20616973
REMARK  10 active torsions:
REMARK  status: ('A' for Active; 'I' for Inactive)
REMARK    1  A    between atoms: C_1  and  C_2
REMARK    2  A    between atoms: C_2  and  C_3
REMARK    3  A    between atoms: C_7  and  N_9
REMARK    4  A    between atoms: C_11  and  C_23
REMARK    5  A    between atoms: C_14  and  C_21
REMARK    6  A    between atoms: C_17  and  C_20
REMARK    7  A    between atoms: C_21  and  O_22
REMARK    8  A    between atoms: N_25  and  C_26
REMARK    9  A    between atoms: C_31  and  C_32
REMARK   10  A    between atoms: C_32  and  C_33
REMARK                            x       y       z     vdW  Elec       q    Type
REMARK                         _______ _______ _______ _____ _____    ______ ____
ROOT
ATOM      1  N   UNL     1       5.121   6.355   1.291  0.00  0.00    -0.325 N 
ATOM      2  C   UNL     1       4.337   5.597   0.556  0.00  0.00    +0.212 A 
ATOM      3  C   UNL     1       4.688   4.190   0.274  0.00  0.00    +0.098 A 
ATOM      4  C   UNL     1       3.652   3.321   0.014  0.00  0.00    +0.030 A 
ATOM      5  C   UNL     1       2.294   3.869   0.036  0.00  0.00    +0.027 A 
ATOM      6  C   UNL     1       1.165   3.042   0.047  0.00  0.00    +0.007 A 
ATOM      7  C   UNL     1      -0.082   3.631   0.068  0.00  0.00    +0.117 A 
ATOM      8  N   UNL     1      -0.218   4.944   0.089  0.00  0.00    -0.256 NA
ATOM      9  C   UNL     1       0.813   5.765   0.079  0.00  0.00    +0.081 A 
ATOM     10  C   UNL     1       2.107   5.264   0.050  0.00  0.00    +0.159 A 
ATOM     11  O   UNL     1       3.183   6.087   0.034  0.00  0.00    -0.437 OA
ATOM     12  C   UNL     1       0.586   7.254   0.098  0.00  0.00    +0.069 C 
ATOM     13  H   UNL     1       6.091   5.970   1.637  0.00  0.00    +0.169 HD
ENDROOT
BRANCH   1  18
ATOM     14  C   UNL     1       3.701   9.142   3.176  0.00  0.00    -0.046 A 
ATOM     15  C   UNL     1       3.937  10.188   2.301  0.00  0.00    +0.004 A 
ATOM     16  C   UNL     1       4.566   9.959   1.090  0.00  0.00    +0.002 A 
ATOM     17  C   UNL     1       4.968   8.684   0.749  0.00  0.00    +0.026 A 
ATOM     18  C   UNL     1       4.729   7.622   1.625  0.00  0.00    +0.042 A 
ATOM     19  C   UNL     1       4.093   7.861   2.846  0.00  0.00    +0.029 A 
BRANCH  14  21
ATOM     20  C   UNL     1       4.065   9.722   5.559  0.00  0.00    +0.009 C 
ATOM     21  C   UNL     1       3.016   9.402   4.492  0.00  0.00    +0.032 C 
ENDBRANCH  14  21
ENDBRANCH   1  18
BRANCH   3  22
ATOM     22  C   UNL     1       6.090   3.735   0.272  0.00  0.00    +0.253 C 
ATOM     23  O   UNL     1       6.352   2.571   0.037  0.00  0.00    -0.270 OA
ATOM     24  N   UNL     1       7.083   4.610   0.531  0.00  0.00    -0.281 N 
ATOM     25  H   UNL     1       6.844   5.645   0.815  0.00  0.00    +0.155 HD
BRANCH  24  26
ATOM     26  C   UNL     1       8.417   4.201   0.438  0.00  0.00    +0.037 A 
ATOM     27  C   UNL     1       8.775   2.907   0.795  0.00  0.00    +0.023 A 
ATOM     28  C   UNL     1      10.093   2.506   0.701  0.00  0.00    +0.002 A 
ATOM     29  C   UNL     1      11.056   3.391   0.252  0.00  0.00    +0.000 A 
ATOM     30  C   UNL     1      10.704   4.679  -0.104  0.00  0.00    +0.005 A 
ATOM     31  C   UNL     1       9.386   5.085  -0.017  0.00  0.00    -0.026 A 
BRANCH  31  32
ATOM     32  C   UNL     1       9.002   6.488  -0.411  0.00  0.00    +0.033 C 
ATOM     33  C   UNL     1       8.982   7.380   0.833  0.00  0.00    +0.009 C 
ENDBRANCH  31  32
ENDBRANCH  24  26
ENDBRANCH   3  22
BRANCH   6  34
ATOM     34  C   UNL     1       1.309   1.542   0.029  0.00  0.00    +0.193 C 
BRANCH  34  35
ATOM     35  O   UNL     1       0.013   0.939   0.045  0.00  0.00    -0.390 OA
ATOM     36  H   UNL     1      -0.084  -0.157   0.036  0.00  0.00    +0.210 HD
ENDBRANCH  34  35
ENDBRANCH   6  34
TORSDOF 7
