REMARK  Name = ZINC41059819
REMARK  3 active torsions:
REMARK  status: ('A' for Active; 'I' for Inactive)
REMARK    1  A    between atoms: C_3  and  C_9
REMARK    2  A    between atoms: C_9  and  C_11
REMARK    3  A    between atoms: C_9  and  N_16
REMARK                            x       y       z     vdW  Elec       q    Type
REMARK                         _______ _______ _______ _____ _____    ______ ____
ROOT
ATOM      1  C   UNL     1       3.671   2.186  -0.023  0.00  0.00    +0.139 C 
ENDROOT
BRANCH   1   4
ATOM      2  C   UNL     1      -0.017   1.378   0.010  0.00  0.00    +0.002 A 
ATOM      3  C   UNL     1       1.171   2.086   0.002  0.00  0.00    +0.007 A 
ATOM      4  C   UNL     1       2.378   1.413  -0.013  0.00  0.00    -0.005 A 
ATOM      5  C   UNL     1       2.398   0.030  -0.021  0.00  0.00    +0.064 A 
ATOM      6  C   UNL     1       1.209  -0.679  -0.013  0.00  0.00    +0.060 A 
ATOM      7  C   UNL     1       0.002  -0.004   0.002  0.00  0.00    +0.021 A 
ATOM      8 CL   UNL     1       1.234  -2.415  -0.023  0.00  0.00    -0.082 Cl
ATOM      9 CL   UNL     1       3.914  -0.816  -0.041  0.00  0.00    -0.082 Cl
ENDBRANCH   1   4
BRANCH   1  10
ATOM     10  C   UNL     1       4.152   2.345  -1.442  0.00  0.00    +0.099 A 
ATOM     11  N   UNL     1       3.696   3.148  -2.371  0.00  0.00    -0.250 NA
ATOM     12  C   UNL     1       4.226   3.172  -3.577  0.00  0.00    +0.119 A 
ATOM     13  C   UNL     1       5.263   2.328  -3.811  0.00  0.00    +0.066 A 
ATOM     14  S   UNL     1       5.410   1.537  -2.217  0.00  0.00    -0.079 S 
ENDBRANCH   1  10
BRANCH   1  15
ATOM     15  N   UNL     1       3.454   3.512   0.572  0.00  0.00    -0.318 NA
ATOM     16  H   UNL     1       4.320   4.026   0.636  0.00  0.00    +0.119 HD
ATOM     17  H   UNL     1       2.763   4.032   0.052  0.00  0.00    +0.119 HD
ENDBRANCH   1  15
TORSDOF 3
