REMARK  Name = ZINC49875059
REMARK  9 active torsions:
REMARK  status: ('A' for Active; 'I' for Inactive)
REMARK    1  A    between atoms: C_1  and  C_2
REMARK    2  A    between atoms: C_2  and  C_3
REMARK    3  A    between atoms: C_2  and  C_4
REMARK    4  A    between atoms: C_4  and  C_5
REMARK    5  A    between atoms: C_5  and  C_27
REMARK    6  A    between atoms: N_8  and  C_12
REMARK    7  A    between atoms: C_12  and  C_13
REMARK    8  A    between atoms: N_15  and  C_16
REMARK    9  A    between atoms: C_17  and  C_25
REMARK                            x       y       z     vdW  Elec       q    Type
REMARK                         _______ _______ _______ _____ _____    ______ ____
ROOT
ATOM      1  C   UNL     1       3.271   1.587   5.034  0.00  0.00    +0.236 C 
ATOM      2  O   UNL     1       3.554   1.662   3.857  0.00  0.00    -0.274 OA
ATOM      3  N   UNL     1       4.182   1.923   5.968  0.00  0.00    -0.278 N 
ATOM      4  H   UNL     1       3.956   1.863   6.910  0.00  0.00    +0.155 HD
ENDROOT
BRANCH   3   5
ATOM      5  C   UNL     1       5.445   2.353   5.584  0.00  0.00    +0.090 A 
ATOM      6  C   UNL     1       6.500   2.731   6.397  0.00  0.00    +0.084 A 
ATOM      7  C   UNL     1       7.729   3.145   5.743  0.00  0.00    -0.018 A 
ATOM      8  C   UNL     1       7.676   3.106   4.394  0.00  0.00    -0.004 A 
ATOM      9  S   UNL     1       6.045   2.530   4.025  0.00  0.00    -0.077 S 
ATOM     10  C   UNL     1       8.771   3.471   3.440  0.00  0.00    +0.043 C 
ATOM     11  C   UNL     1       9.841   4.257   4.213  0.00  0.00    +0.005 C 
ATOM     12  C   UNL     1      10.171   3.505   5.505  0.00  0.00    +0.005 C 
ATOM     13  C   UNL     1       8.988   3.589   6.473  0.00  0.00    +0.037 C 
BRANCH   6  14
ATOM     14  C   UNL     1       6.385   2.713   7.825  0.00  0.00    +0.102 C 
ATOM     15  N   UNL     1       6.293   2.699   8.957  0.00  0.00    -0.191 NA
ENDBRANCH   6  14
ENDBRANCH   3   5
BRANCH   1  16
ATOM     16  C   UNL     1       1.901   1.120   5.451  0.00  0.00    +0.214 C 
BRANCH  16  20
ATOM     17  C   UNL     1       0.116  -0.231   2.488  0.00  0.00    +0.110 C 
ATOM     18  C   UNL     1       1.057  -0.390   3.665  0.00  0.00    +0.247 C 
ATOM     19  O   UNL     1       1.646  -1.394   4.002  0.00  0.00    -0.273 OA
ATOM     20  N   UNL     1       1.103   0.819   4.260  0.00  0.00    -0.215 N 
ATOM     21  C   UNL     1       0.330   1.710   3.628  0.00  0.00    +0.310 C 
ATOM     22  O   UNL     1       0.209   2.867   3.978  0.00  0.00    -0.252 OA
ATOM     23  N   UNL     1      -0.297   1.181   2.562  0.00  0.00    -0.285 N 
ATOM     24  C   UNL     1      -1.095  -1.155   2.634  0.00  0.00    +0.041 C 
ATOM     25  H   UNL     1      -0.904   1.640   1.960  0.00  0.00    +0.151 HD
BRANCH  17  26
ATOM     26  C   UNL     1       0.848  -0.509   1.173  0.00  0.00    +0.038 C 
BRANCH  26  28
ATOM     27  C   UNL     1       0.134   1.440  -0.218  0.00  0.00    +0.007 C 
ATOM     28  C   UNL     1      -0.028  -0.066  -0.001  0.00  0.00    -0.015 C 
ATOM     29  C   UNL     1       0.401  -0.812  -1.267  0.00  0.00    +0.007 C 
ENDBRANCH  26  28
ENDBRANCH  17  26
ENDBRANCH  16  20
ENDBRANCH   1  16
TORSDOF 6
