REMARK  Name = ZINC39532496
REMARK  11 active torsions:
REMARK  status: ('A' for Active; 'I' for Inactive)
REMARK    1  A    between atoms: C_1  and  C_2
REMARK    2  A    between atoms: C_2  and  C_3
REMARK    3  A    between atoms: C_6  and  C_9
REMARK    4  A    between atoms: C_9  and  C_11
REMARK    5  A    between atoms: C_9  and  N_20
REMARK    6  A    between atoms: C_11  and  N_12
REMARK    7  A    between atoms: N_12  and  C_13
REMARK    8  A    between atoms: C_13  and  C_14
REMARK    9  A    between atoms: C_24  and  S_27
REMARK   10  A    between atoms: S_27  and  O_30
REMARK   11  A    between atoms: O_30  and  C_31
REMARK                            x       y       z     vdW  Elec       q    Type
REMARK                         _______ _______ _______ _____ _____    ______ ____
ROOT
ATOM      1  C   UNL     1       2.807  -1.900   4.729  0.00  0.00    +0.070 C 
ENDROOT
BRANCH   1   2
ATOM      2  N   UNL     1       1.855  -2.838   5.339  0.00  0.00    -0.299 NA
ATOM      3  C   UNL     1       2.276  -3.204   6.699  0.00  0.00    +0.066 C 
ATOM      4  C   UNL     1       1.230  -4.133   7.321  0.00  0.00    -0.064 C 
ATOM      5  N   UNL     1       1.091  -5.338   6.492  0.00  0.00    +0.398 N 
ATOM      6  C   UNL     1       0.647  -4.959   5.144  0.00  0.00    +0.130 C 
ATOM      7  C   UNL     1       1.688  -4.037   4.505  0.00  0.00    +0.095 C 
ATOM      8  H   UNL     1       1.981  -5.809   6.432  0.00  0.00    -0.083 HD
ATOM      9  H   UNL     1       0.411  -5.956   6.909  0.00  0.00    -0.083 HD
BRANCH   6  10
ATOM     10  S   UNL     1       0.455  -6.449   4.129  0.00  0.00    +0.109 S 
ATOM     11  O   UNL     1      -0.142  -6.119   2.882  0.00  0.00    -0.138 OA
ATOM     12  O   UNL     1       1.641  -7.232   4.179  0.00  0.00    -0.138 OA
BRANCH  10  13
ATOM     13  O   UNL     1      -0.592  -7.284   4.853  0.00  0.00    -0.347 OA
BRANCH  13  14
ATOM     14  C   UNL     1      -1.861  -6.820   4.713  0.00  0.00    +0.156 A 
ATOM     15  C   UNL     1      -2.370  -5.901   5.619  0.00  0.00    +0.048 A 
ATOM     16  C   UNL     1      -3.660  -5.430   5.474  0.00  0.00    +0.004 A 
ATOM     17  C   UNL     1      -4.446  -5.875   4.427  0.00  0.00    +0.000 A 
ATOM     18  C   UNL     1      -3.942  -6.791   3.522  0.00  0.00    +0.004 A 
ATOM     19  C   UNL     1      -2.650  -7.260   3.659  0.00  0.00    +0.048 A 
ENDBRANCH  13  14
ENDBRANCH  10  13
ENDBRANCH   6  10
ENDBRANCH   1   2
BRANCH   1  23
ATOM     20  C   UNL     1       1.324  -0.646   0.924  0.00  0.00    -0.048 A 
ATOM     21  C   UNL     1       2.671  -0.911   1.088  0.00  0.00    +0.004 A 
ATOM     22  C   UNL     1       3.151  -1.316   2.319  0.00  0.00    +0.005 A 
ATOM     23  C   UNL     1       2.284  -1.457   3.387  0.00  0.00    -0.032 A 
ATOM     24  C   UNL     1       0.937  -1.192   3.223  0.00  0.00    +0.005 A 
ATOM     25  C   UNL     1       0.458  -0.782   1.993  0.00  0.00    +0.004 A 
BRANCH  20  27
ATOM     26  C   UNL     1       0.857   1.323  -0.509  0.00  0.00    +0.009 C 
ATOM     27  C   UNL     1       0.801  -0.204  -0.418  0.00  0.00    +0.032 C 
ENDBRANCH  20  27
ENDBRANCH   1  23
BRANCH   1  28
ATOM     28  C   UNL     1       2.976  -0.681   5.638  0.00  0.00    -0.058 C 
BRANCH  28  29
ATOM     29  N   UNL     1       3.982   0.222   5.064  0.00  0.00    +0.383 N 
ATOM     30  H   UNL     1       4.837  -0.287   4.898  0.00  0.00    -0.085 HD
ATOM     31  H   UNL     1       3.639   0.596   4.191  0.00  0.00    -0.085 HD
BRANCH  29  32
ATOM     32  C   UNL     1       4.241   1.324   6.000  0.00  0.00    -0.047 C 
BRANCH  32  33
ATOM     33  C   UNL     1       5.273   2.251   5.410  0.00  0.00    -0.064 A 
ATOM     34  C   UNL     1       6.617   2.032   5.649  0.00  0.00    +0.002 A 
ATOM     35  C   UNL     1       7.563   2.882   5.108  0.00  0.00    +0.000 A 
ATOM     36  C   UNL     1       7.165   3.952   4.328  0.00  0.00    +0.000 A 
ATOM     37  C   UNL     1       5.822   4.171   4.089  0.00  0.00    +0.000 A 
ATOM     38  C   UNL     1       4.875   3.318   4.626  0.00  0.00    +0.002 A 
ENDBRANCH  32  33
ENDBRANCH  29  32
ENDBRANCH  28  29
ENDBRANCH   1  28
TORSDOF 10
