REMARK  Name = ZINC13677747
REMARK  7 active torsions:
REMARK  status: ('A' for Active; 'I' for Inactive)
REMARK    1  A    between atoms: C_1  and  C_2
REMARK    2  A    between atoms: C_3  and  N_11
REMARK    3  A    between atoms: C_7  and  N_8
REMARK    4  A    between atoms: C_12  and  C_14
REMARK    5  A    between atoms: N_17  and  S_25
REMARK    6  A    between atoms: S_25  and  C_28
REMARK    7  A    between atoms: C_28  and  C_29
REMARK                            x       y       z     vdW  Elec       q    Type
REMARK                         _______ _______ _______ _____ _____    ______ ____
ROOT
ATOM      1  C   UNL     1       3.666   1.170  -1.029  0.00  0.00    +0.278 C 
ATOM      2  C   UNL     1       2.252   1.736  -1.223  0.00  0.00    +0.185 C 
ATOM      3  N   UNL     1       1.493   1.472   0.011  0.00  0.00    -0.200 N 
ATOM      4  C   UNL     1       2.147   1.681   1.236  0.00  0.00    +0.093 A 
ATOM      5  C   UNL     1       1.420   1.721   2.414  0.00  0.00    +0.028 A 
ATOM      6  C   UNL     1       2.071   1.918   3.619  0.00  0.00    +0.002 A 
ATOM      7  C   UNL     1       3.445   2.070   3.647  0.00  0.00    +0.004 A 
ATOM      8  C   UNL     1       4.175   2.027   2.474  0.00  0.00    +0.047 A 
ATOM      9  C   UNL     1       3.532   1.831   1.262  0.00  0.00    +0.144 A 
ATOM     10  O   UNL     1       4.258   1.794   0.113  0.00  0.00    -0.476 OA
ENDROOT
BRANCH   1  12
ATOM     11  N   UNL     1       4.178   0.899  -3.433  0.00  0.00    -0.282 N 
ATOM     12  C   UNL     1       4.498   1.460  -2.251  0.00  0.00    +0.260 C 
ATOM     13  O   UNL     1       5.457   2.198  -2.170  0.00  0.00    -0.271 OA
ATOM     14  H   UNL     1       3.378   0.355  -3.511  0.00  0.00    +0.155 HD
BRANCH  11  17
ATOM     15  C   UNL     1       4.176  -1.081  -5.478  0.00  0.00    +0.048 C 
ATOM     16  C   UNL     1       5.027   0.159  -5.570  0.00  0.00    +0.001 A 
ATOM     17  C   UNL     1       4.998   1.100  -4.549  0.00  0.00    +0.039 A 
ATOM     18  C   UNL     1       5.781   2.243  -4.640  0.00  0.00    +0.024 A 
ATOM     19  C   UNL     1       6.593   2.436  -5.740  0.00  0.00    +0.004 A 
ATOM     20  C   UNL     1       6.620   1.498  -6.755  0.00  0.00    +0.033 A 
ATOM     21  C   UNL     1       5.838   0.360  -6.670  0.00  0.00    +0.131 A 
BRANCH  21  22
ATOM     22  N   UNL     1       5.870  -0.642  -7.758  0.00  0.00    +0.057 N 
ATOM     23  O   UNL     1       6.918  -0.893  -8.325  0.00  0.00    -0.126 OA
ATOM     24  O   UNL     1       4.848  -1.217  -8.087  0.00  0.00    -0.126 OA
ENDBRANCH  21  22
ENDBRANCH  11  17
ENDBRANCH   1  12
BRANCH   3  25
ATOM     25  S   UNL     1      -0.079   0.953  -0.043  0.00  0.00    +0.050 S 
ATOM     26  O   UNL     1      -0.214   0.089   1.077  0.00  0.00    -0.155 OA
ATOM     27  O   UNL     1      -0.251   0.459  -1.364  0.00  0.00    -0.155 OA
BRANCH  25  28
ATOM     28  C   UNL     1      -1.073   2.451   0.199  0.00  0.00    +0.224 C 
BRANCH  28  29
ATOM     29  C   UNL     1      -2.536   2.093   0.167  0.00  0.00    -0.025 A 
ATOM     30  C   UNL     1      -3.227   2.114  -1.031  0.00  0.00    +0.005 A 
ATOM     31  C   UNL     1      -4.568   1.780  -1.061  0.00  0.00    +0.000 A 
ATOM     32  C   UNL     1      -5.221   1.437   0.108  0.00  0.00    +0.000 A 
ATOM     33  C   UNL     1      -4.532   1.421   1.306  0.00  0.00    +0.000 A 
ATOM     34  C   UNL     1      -3.189   1.749   1.336  0.00  0.00    +0.005 A 
ENDBRANCH  28  29
ENDBRANCH  25  28
ENDBRANCH   3  25
TORSDOF 6
