REMARK  Name = ZINC36812503
REMARK  5 active torsions:
REMARK  status: ('A' for Active; 'I' for Inactive)
REMARK    1  A    between atoms: C_1  and  C_2
REMARK    2  A    between atoms: C_2  and  C_3
REMARK    3  A    between atoms: C_10  and  C_15
REMARK    4  A    between atoms: C_15  and  N_16
REMARK    5  A    between atoms: C_24  and  C_26
REMARK                            x       y       z     vdW  Elec       q    Type
REMARK                         _______ _______ _______ _____ _____    ______ ____
ROOT
ATOM      1  C   UNL     1       4.280  -1.936   4.723  0.00  0.00    +0.154 C 
ENDROOT
BRANCH   1   2
ATOM      2  N   UNL     1       4.767  -3.224   4.222  0.00  0.00    -0.220 N 
ATOM      3  C   UNL     1       4.869  -4.340   4.973  0.00  0.00    +0.247 C 
ATOM      4  O   UNL     1       4.587  -4.463   6.146  0.00  0.00    -0.273 OA
ATOM      5  C   UNL     1       5.409  -5.403   4.045  0.00  0.00    +0.115 C 
ATOM      6  C   UNL     1       4.414  -6.551   3.915  0.00  0.00    +0.035 C 
ATOM      7  C   UNL     1       4.966  -7.601   2.948  0.00  0.00    +0.003 C 
ATOM      8  C   UNL     1       6.305  -8.122   3.474  0.00  0.00    +0.000 C 
ATOM      9  C   UNL     1       7.300  -6.964   3.576  0.00  0.00    +0.006 C 
ATOM     10  C   UNL     1       6.757  -5.911   4.546  0.00  0.00    +0.018 C 
ATOM     11  C   UNL     1       7.741  -4.744   4.634  0.00  0.00    +0.010 C 
ATOM     12  N   UNL     1       5.566  -4.709   2.761  0.00  0.00    -0.285 N 
ATOM     13  C   UNL     1       5.160  -3.441   2.961  0.00  0.00    +0.310 C 
ATOM     14  O   UNL     1       5.155  -2.588   2.095  0.00  0.00    -0.252 OA
ATOM     15  H   UNL     1       5.893  -5.090   1.931  0.00  0.00    +0.151 HD
ENDBRANCH   1   2
BRANCH   1  23
ATOM     16  C   UNL     1      -0.171  -3.342   6.981  0.00  0.00    -0.026 A 
ATOM     17  C   UNL     1      -0.538  -2.692   5.822  0.00  0.00    +0.052 A 
ATOM     18  C   UNL     1       0.436  -2.182   4.974  0.00  0.00    +0.140 A 
ATOM     19  C   UNL     1       1.793  -2.336   5.308  0.00  0.00    +0.024 A 
ATOM     20  C   UNL     1       2.151  -2.998   6.487  0.00  0.00    +0.032 A 
ATOM     21  C   UNL     1       1.168  -3.490   7.317  0.00  0.00    +0.045 A 
ATOM     22 CL   UNL     1       1.605  -4.307   8.785  0.00  0.00    -0.083 Cl
ATOM     23  C   UNL     1       2.814  -1.795   4.406  0.00  0.00    -0.012 A 
ATOM     24  C   UNL     1       2.402  -1.164   3.277  0.00  0.00    +0.098 A 
ATOM     25  C   UNL     1       1.022  -1.045   3.004  0.00  0.00    +0.338 A 
ATOM     26  O   UNL     1       0.665  -0.476   1.988  0.00  0.00    -0.245 OA
ATOM     27  O   UNL     1       0.093  -1.543   3.835  0.00  0.00    -0.422 OA
BRANCH  16  29
ATOM     28  C   UNL     1      -1.379  -5.397   7.664  0.00  0.00    +0.009 C 
ATOM     29  C   UNL     1      -1.235  -3.892   7.897  0.00  0.00    +0.033 C 
ENDBRANCH  16  29
ENDBRANCH   1  23
TORSDOF 3
