REMARK  Name = ZINC08965013
REMARK  8 active torsions:
REMARK  status: ('A' for Active; 'I' for Inactive)
REMARK    1  A    between atoms: C_1  and  C_2
REMARK    2  A    between atoms: C_2  and  C_3
REMARK    3  A    between atoms: N_5  and  C_16
REMARK    4  A    between atoms: C_16  and  C_18
REMARK    5  A    between atoms: C_16  and  C_19
REMARK    6  A    between atoms: N_21  and  C_22
REMARK    7  A    between atoms: C_22  and  C_24
REMARK    8  A    between atoms: C_22  and  C_25
REMARK                            x       y       z     vdW  Elec       q    Type
REMARK                         _______ _______ _______ _____ _____    ______ ____
ROOT
ATOM      1  C   UNL     1      -6.626  -0.191   2.399  0.00  0.00    +0.193 C 
ATOM      2  C   UNL     1      -5.878   0.402   3.595  0.00  0.00    +0.043 C 
ENDROOT
BRANCH   1   5
ATOM      3  C   UNL     1      -7.995  -3.187   4.030  0.00  0.00    +0.135 A 
ATOM      4  N   UNL     1      -7.175  -2.297   3.587  0.00  0.00    -0.154 NA
ATOM      5  N   UNL     1      -7.603  -1.175   2.873  0.00  0.00    -0.214 N 
ATOM      6  C   UNL     1      -8.918  -1.000   2.614  0.00  0.00    +0.292 A 
ATOM      7  O   UNL     1      -9.310  -0.031   1.988  0.00  0.00    -0.264 OA
ATOM      8  C   UNL     1      -9.858  -2.009   3.107  0.00  0.00    +0.118 A 
ATOM      9  N   UNL     1      -9.357  -3.092   3.814  0.00  0.00    -0.288 N 
ATOM     10  C   UNL     1     -10.409  -3.896   4.170  0.00  0.00    +0.094 A 
ATOM     11  C   UNL     1     -10.796  -5.084   4.835  0.00  0.00    +0.068 A 
ATOM     12  C   UNL     1     -12.133  -5.178   4.733  0.00  0.00    +0.198 A 
ATOM     13  O   UNL     1     -12.605  -4.122   4.047  0.00  0.00    -0.461 OA
ATOM     14  C   UNL     1     -11.580  -3.319   3.688  0.00  0.00    +0.154 A 
ATOM     15  C   UNL     1     -11.225  -2.138   3.024  0.00  0.00    +0.080 A 
BRANCH   3  17
ATOM     16  C   UNL     1      -5.933  -4.249   4.907  0.00  0.00    +0.012 C 
ATOM     17  C   UNL     1      -7.455  -4.365   4.798  0.00  0.00    +0.073 C 
ENDBRANCH   3  17
ENDBRANCH   1   5
BRANCH   1  18
ATOM     18  C   UNL     1      -5.643  -0.864   1.476  0.00  0.00    +0.238 C 
ATOM     19  O   UNL     1      -5.749  -2.048   1.237  0.00  0.00    -0.273 OA
ATOM     20  N   UNL     1      -4.647  -0.149   0.915  0.00  0.00    -0.307 N 
ATOM     21  H   UNL     1      -4.563   0.798   1.107  0.00  0.00    +0.149 HD
BRANCH  20  22
ATOM     22  C   UNL     1      -3.692  -0.803   0.018  0.00  0.00    +0.100 C 
ATOM     23  C   UNL     1      -4.266  -0.838  -1.400  0.00  0.00    +0.033 C 
BRANCH  22  24
ATOM     24  C   UNL     1      -2.397  -0.033   0.016  0.00  0.00    -0.024 A 
ATOM     25  C   UNL     1      -2.415   1.349   0.026  0.00  0.00    +0.009 A 
ATOM     26  C   UNL     1      -1.229   2.059   0.019  0.00  0.00    +0.050 A 
ATOM     27  C   UNL     1      -0.017   1.385   0.010  0.00  0.00    +0.162 A 
ATOM     28  C   UNL     1       0.002  -0.004   0.002  0.00  0.00    +0.162 A 
ATOM     29  C   UNL     1      -1.192  -0.710   0.004  0.00  0.00    +0.055 A 
ATOM     30  O   UNL     1       1.181  -0.685  -0.007  0.00  0.00    -0.485 OA
ATOM     31  C   UNL     1       2.347   0.053  -0.387  0.00  0.00    +0.270 C 
ATOM     32  C   UNL     1       2.334   1.392   0.364  0.00  0.00    +0.270 C 
ATOM     33  O   UNL     1       1.143   2.098   0.002  0.00  0.00    -0.485 OA
ENDBRANCH  22  24
ENDBRANCH  20  22
ENDBRANCH   1  18
TORSDOF 5
