REMARK  Name = ZINC03592638
REMARK  6 active torsions:
REMARK  status: ('A' for Active; 'I' for Inactive)
REMARK    1  A    between atoms: C_1  and  C_2
REMARK    2  A    between atoms: C_6  and  N_9
REMARK    3  A    between atoms: C_7  and  C_8
REMARK    4  A    between atoms: C_10  and  C_12
REMARK    5  A    between atoms: C_12  and  N_13
REMARK    6  A    between atoms: C_19  and  C_22
REMARK                            x       y       z     vdW  Elec       q    Type
REMARK                         _______ _______ _______ _____ _____    ______ ____
ROOT
ATOM      1  N   UNL     1      -0.001   1.461   0.009  0.00  0.00    -0.215 N 
ATOM      2  C   UNL     1       1.105   2.233   0.012  0.00  0.00    +0.247 C 
ATOM      3  O   UNL     1       2.259   1.862   0.009  0.00  0.00    -0.273 OA
ATOM      4  C   UNL     1       0.602   3.658   0.019  0.00  0.00    +0.113 C 
ATOM      5  C   UNL     1       1.069   4.393  -1.232  0.00  0.00    +0.035 C 
ATOM      6  C   UNL     1       0.527   5.824  -1.220  0.00  0.00    +0.006 C 
ATOM      7  C   UNL     1       1.028   6.547   0.033  0.00  0.00    -0.014 C 
ATOM      8  C   UNL     1       0.530   5.812   1.280  0.00  0.00    +0.006 C 
ATOM      9  C   UNL     1       1.073   4.381   1.277  0.00  0.00    +0.035 C 
ATOM     10  C   UNL     1       0.496   7.982   0.041  0.00  0.00    +0.007 C 
ATOM     11  N   UNL     1      -0.860   3.521   0.021  0.00  0.00    -0.285 N 
ATOM     12  C   UNL     1      -1.118   2.199   0.009  0.00  0.00    +0.310 C 
ATOM     13  O   UNL     1      -2.239   1.729   0.002  0.00  0.00    -0.252 OA
ATOM     14  H   UNL     1      -1.511   4.240   0.025  0.00  0.00    +0.151 HD
ENDROOT
BRANCH   1  15
ATOM     15  C   UNL     1       0.017  -0.004   0.002  0.00  0.00    +0.214 C 
BRANCH  15  17
ATOM     16  N   UNL     1       0.043  -1.840   1.659  0.00  0.00    -0.284 N 
ATOM     17  C   UNL     1       0.026  -0.514   1.420  0.00  0.00    +0.235 C 
ATOM     18  O   UNL     1       0.017   0.269   2.346  0.00  0.00    -0.274 OA
ATOM     19  H   UNL     1      -0.031  -2.467   0.922  0.00  0.00    +0.155 HD
BRANCH  16  25
ATOM     20  C   UNL     1      -0.710  -5.403   4.962  0.00  0.00    +0.044 C 
ATOM     21  C   UNL     1      -0.189  -4.036   4.599  0.00  0.00    -0.046 A 
ATOM     22  C   UNL     1       0.414  -3.248   5.562  0.00  0.00    +0.004 A 
ATOM     23  C   UNL     1       0.893  -1.994   5.233  0.00  0.00    +0.002 A 
ATOM     24  C   UNL     1       0.772  -1.524   3.940  0.00  0.00    +0.023 A 
ATOM     25  C   UNL     1       0.167  -2.313   2.970  0.00  0.00    +0.037 A 
ATOM     26  C   UNL     1      -0.319  -3.570   3.305  0.00  0.00    -0.026 A 
ATOM     27  C   UNL     1      -0.981  -4.427   2.258  0.00  0.00    +0.046 C 
ENDBRANCH  16  25
ENDBRANCH  15  17
ENDBRANCH   1  15
TORSDOF 3
