REMARK  Name = ZINC16737449
REMARK  5 active torsions:
REMARK  status: ('A' for Active; 'I' for Inactive)
REMARK    1  A    between atoms: C_1  and  C_2
REMARK    2  A    between atoms: C_9  and  N_29
REMARK    3  A    between atoms: C_10  and  C_13
REMARK    4  A    between atoms: N_17  and  C_21
REMARK    5  A    between atoms: C_21  and  C_22
REMARK                            x       y       z     vdW  Elec       q    Type
REMARK                         _______ _______ _______ _____ _____    ______ ____
ROOT
ATOM      1  C   UNL     1      -0.762   1.977   2.779  0.00  0.00    +0.047 C 
ATOM      2  C   UNL     1      -0.822   0.482   2.959  0.00  0.00    -0.007 A 
ATOM      3  C   UNL     1       0.225  -0.183   3.524  0.00  0.00    +0.008 A 
ATOM      4  C   UNL     1       0.155  -1.574   3.686  0.00  0.00    +0.019 A 
ATOM      5  C   UNL     1      -0.946  -2.248   3.283  0.00  0.00    +0.096 A 
ATOM      6  N   UNL     1      -1.998  -1.592   2.717  0.00  0.00    -0.267 N 
ATOM      7  C   UNL     1      -1.961  -0.235   2.551  0.00  0.00    +0.145 A 
ATOM      8  N   UNL     1      -2.982   0.424   2.005  0.00  0.00    -0.213 NA
ATOM      9  C   UNL     1      -4.079  -0.201   1.603  0.00  0.00    +0.136 A 
ATOM     10  C   UNL     1      -4.177  -1.605   1.754  0.00  0.00    +0.081 A 
ATOM     11  C   UNL     1      -3.082  -2.296   2.325  0.00  0.00    +0.267 A 
ATOM     12  O   UNL     1      -3.123  -3.505   2.475  0.00  0.00    -0.267 OA
ENDROOT
BRANCH  10  13
ATOM     13  C   UNL     1      -5.335  -2.300   1.335  0.00  0.00    +0.037 C 
ATOM     14  C   UNL     1      -5.789  -2.160   0.055  0.00  0.00    +0.077 C 
ATOM     15  C   UNL     1      -6.974  -2.672  -0.546  0.00  0.00    +0.259 C 
ATOM     16  O   UNL     1      -7.761  -3.345   0.095  0.00  0.00    -0.269 OA
ATOM     17  N   UNL     1      -7.198  -2.391  -1.818  0.00  0.00    -0.251 N 
ATOM     18  C   UNL     1      -6.321  -1.650  -2.531  0.00  0.00    +0.121 C 
ATOM     19  S   UNL     1      -6.402  -1.176  -4.175  0.00  0.00    -0.027 S 
ATOM     20  S   UNL     1      -5.054  -1.291  -1.324  0.00  0.00    -0.061 S 
BRANCH  17  21
ATOM     21  C   UNL     1      -8.410  -2.897  -2.467  0.00  0.00    +0.151 C 
BRANCH  21  22
ATOM     22  C   UNL     1      -8.257  -4.371  -2.738  0.00  0.00    -0.011 A 
ATOM     23  C   UNL     1      -8.750  -5.295  -1.835  0.00  0.00    +0.006 A 
ATOM     24  C   UNL     1      -8.610  -6.647  -2.084  0.00  0.00    +0.000 A 
ATOM     25  C   UNL     1      -7.977  -7.077  -3.236  0.00  0.00    +0.001 A 
ATOM     26  C   UNL     1      -7.484  -6.155  -4.139  0.00  0.00    +0.020 A 
ATOM     27  C   UNL     1      -7.629  -4.801  -3.893  0.00  0.00    +0.046 A 
ATOM     28 CL   UNL     1      -7.016  -3.641  -5.031  0.00  0.00    -0.083 Cl
ENDBRANCH  21  22
ENDBRANCH  17  21
ENDBRANCH  10  13
BRANCH   9  29
ATOM     29  N   UNL     1      -5.117   0.510   1.041  0.00  0.00    -0.315 N 
ATOM     30  C   UNL     1      -6.369   0.327   1.819  0.00  0.00    +0.106 C 
ATOM     31  C   UNL     1      -7.229   1.546   1.398  0.00  0.00    +0.020 C 
ATOM     32  C   UNL     1      -6.184   2.679   1.272  0.00  0.00    +0.020 C 
ATOM     33  C   UNL     1      -4.837   1.962   1.062  0.00  0.00    +0.106 C 
ENDBRANCH   9  29
TORSDOF 4
