REMARK  Name = ZINC12201379
REMARK  3 active torsions:
REMARK  status: ('A' for Active; 'I' for Inactive)
REMARK    1  A    between atoms: C_3  and  C_6
REMARK    2  A    between atoms: C_6  and  N_7
REMARK    3  A    between atoms: C_23  and  C_25
REMARK                            x       y       z     vdW  Elec       q    Type
REMARK                         _______ _______ _______ _____ _____    ______ ____
ROOT
ATOM      1  N   UNL     1       6.269   6.570   0.943  0.00  0.00    -0.322 N 
ATOM      2  C   UNL     1       6.657   5.873   2.070  0.00  0.00    +0.162 A 
ATOM      3  C   UNL     1       6.250   4.472   2.235  0.00  0.00    +0.164 A 
ATOM      4  N   UNL     1       6.605   3.791   3.304  0.00  0.00    -0.203 NA
ATOM      5  C   UNL     1       7.352   4.381   4.246  0.00  0.00    +0.244 A 
ATOM      6  C   UNL     1       7.763   5.796   4.080  0.00  0.00    +0.244 A 
ATOM      7  N   UNL     1       7.388   6.473   2.986  0.00  0.00    -0.204 NA
ATOM      8  N   UNL     1       8.459   6.025   5.168  0.00  0.00    -0.027 NA
ATOM      9  O   UNL     1       8.481   5.018   5.844  0.00  0.00    -0.238 OA
ATOM     10  N   UNL     1       7.888   4.058   5.399  0.00  0.00    -0.027 NA
ATOM     11  N   UNL     1       5.484   3.864   1.260  0.00  0.00    -0.309 N 
ATOM     12  C   UNL     1       5.878   2.461   1.079  0.00  0.00    +0.125 C 
ATOM     13  C   UNL     1       5.135   1.876  -0.126  0.00  0.00    +0.127 C 
ATOM     14  N   UNL     1       3.693   2.098   0.062  0.00  0.00    -0.294 N 
ATOM     15  C   UNL     1       3.233   3.459   0.378  0.00  0.00    +0.127 C 
ATOM     16  C   UNL     1       4.052   3.980   1.569  0.00  0.00    +0.125 C 
ATOM     17  C   UNL     1       2.815   1.082  -0.057  0.00  0.00    +0.253 C 
ATOM     18  O   UNL     1       1.621   1.293   0.048  0.00  0.00    -0.269 OA
ATOM     19  H   UNL     1       5.795   6.114   0.231  0.00  0.00    +0.148 HD
ENDROOT
BRANCH  17  20
ATOM     20  C   UNL     1       3.299  -0.278  -0.313  0.00  0.00    +0.074 A 
ATOM     21  C   UNL     1       2.777  -1.487   0.119  0.00  0.00    +0.021 A 
ATOM     22  C   UNL     1       3.438  -2.627  -0.266  0.00  0.00    +0.008 A 
ATOM     23  C   UNL     1       4.545  -2.520  -1.047  0.00  0.00    +0.046 A 
ATOM     24  S   UNL     1       4.713  -0.808  -1.263  0.00  0.00    -0.092 S 
ENDBRANCH  17  20
BRANCH   1  25
ATOM     25  C   UNL     1       6.574   7.998   0.823  0.00  0.00    +0.145 C 
BRANCH  25  28
ATOM     26  C   UNL     1       4.564   9.458  -2.065  0.00  0.00    +0.008 A 
ATOM     27  C   UNL     1       4.831   9.043  -0.774  0.00  0.00    +0.013 A 
ATOM     28  C   UNL     1       6.047   8.515  -0.491  0.00  0.00    +0.007 A 
ATOM     29  S   UNL     1       6.864   8.600  -2.076  0.00  0.00    -0.100 S 
ATOM     30  C   UNL     1       5.527   9.324  -3.010  0.00  0.00    +0.045 A 
ENDBRANCH  25  28
ENDBRANCH   1  25
TORSDOF 3
