REMARK  Name = ZINC14012416
REMARK  5 active torsions:
REMARK  status: ('A' for Active; 'I' for Inactive)
REMARK    1  A    between atoms: C_4  and  C_7
REMARK    2  A    between atoms: C_7  and  N_8
REMARK    3  A    between atoms: C_9  and  C_11
REMARK    4  A    between atoms: C_11  and  C_12
REMARK    5  A    between atoms: N_23  and  C_26
REMARK                            x       y       z     vdW  Elec       q    Type
REMARK                         _______ _______ _______ _____ _____    ______ ____
ROOT
ATOM      1  C   UNL     1       3.483   2.399  -0.032  0.00  0.00    +0.112 C 
ATOM      2  C   UNL     1       3.000   3.853  -0.125  0.00  0.00    +0.103 C 
ATOM      3  S   UNL     1       1.184   3.625  -0.078  0.00  0.00    -0.085 S 
ATOM      4  C   UNL     1       1.119   1.850   0.046  0.00  0.00    +0.174 A 
ATOM      5  N   UNL     1       2.411   1.408   0.055  0.00  0.00    -0.283 N 
ATOM      6  C   UNL     1       2.613   0.053   0.145  0.00  0.00    +0.266 A 
ATOM      7  O   UNL     1       3.746  -0.395   0.157  0.00  0.00    -0.267 OA
ATOM      8  C   UNL     1       1.506  -0.818   0.224  0.00  0.00    +0.103 A 
ATOM      9  C   UNL     1       1.362  -2.219   0.324  0.00  0.00    +0.150 A 
ATOM     10  N   UNL     1       0.090  -2.502   0.365  0.00  0.00    -0.172 NA
ATOM     11  N   UNL     1      -0.656  -1.319   0.296  0.00  0.00    -0.214 N 
ATOM     12  C   UNL     1       0.211  -0.273   0.208  0.00  0.00    +0.171 A 
ATOM     13  N   UNL     1       0.076   1.053   0.119  0.00  0.00    -0.203 NA
ENDROOT
BRANCH  11  14
ATOM     14  C   UNL     1      -2.055  -1.226   0.314  0.00  0.00    +0.068 A 
ATOM     15  C   UNL     1      -2.673  -0.156   0.947  0.00  0.00    +0.030 A 
ATOM     16  C   UNL     1      -4.051  -0.064   0.959  0.00  0.00    +0.040 A 
ATOM     17  C   UNL     1      -4.816  -1.045   0.350  0.00  0.00    +0.124 A 
ATOM     18  C   UNL     1      -4.202  -2.116  -0.277  0.00  0.00    +0.040 A 
ATOM     19  C   UNL     1      -2.824  -2.208  -0.296  0.00  0.00    +0.030 A 
ATOM     20  F   UNL     1      -6.164  -0.956   0.368  0.00  0.00    -0.205 F 
ENDBRANCH  11  14
BRANCH   1  21
ATOM     21  C   UNL     1       4.330   2.090  -1.268  0.00  0.00    +0.121 C 
BRANCH  21  23
ATOM     22  N   UNL     1       6.356   2.996  -2.361  0.00  0.00    -0.311 N 
ATOM     23  C   UNL     1       5.529   3.003  -1.297  0.00  0.00    +0.215 C 
ATOM     24  O   UNL     1       5.749   3.744  -0.363  0.00  0.00    -0.276 OA
ATOM     25  H   UNL     1       6.180   2.403  -3.108  0.00  0.00    +0.149 HD
BRANCH  22  26
ATOM     26  C   UNL     1       7.521   3.884  -2.389  0.00  0.00    +0.139 C 
BRANCH  26  30
ATOM     27  C   UNL     1       9.659   3.313  -6.043  0.00  0.00    +0.000 A 
ATOM     28  C   UNL     1       8.652   4.257  -5.972  0.00  0.00    +0.000 A 
ATOM     29  C   UNL     1       7.960   4.441  -4.789  0.00  0.00    +0.005 A 
ATOM     30  C   UNL     1       8.275   3.682  -3.678  0.00  0.00    -0.030 A 
ATOM     31  C   UNL     1       9.286   2.742  -3.748  0.00  0.00    +0.005 A 
ATOM     32  C   UNL     1       9.975   2.554  -4.931  0.00  0.00    +0.000 A 
ENDBRANCH  26  30
ENDBRANCH  22  26
ENDBRANCH  21  23
ENDBRANCH   1  21
TORSDOF 5
