REMARK  Name = ZINC58360493
REMARK  9 active torsions:
REMARK  status: ('A' for Active; 'I' for Inactive)
REMARK    1  A    between atoms: C_1  and  C_2
REMARK    2  A    between atoms: C_2  and  C_22
REMARK    3  A    between atoms: N_5  and  C_9
REMARK    4  A    between atoms: C_9  and  C_10
REMARK    5  A    between atoms: C_10  and  C_12
REMARK    6  A    between atoms: C_15  and  C_18
REMARK    7  A    between atoms: C_18  and  C_19
REMARK    8  A    between atoms: C_18  and  C_20
REMARK    9  A    between atoms: C_18  and  C_21
REMARK                            x       y       z     vdW  Elec       q    Type
REMARK                         _______ _______ _______ _____ _____    ______ ____
ROOT
ATOM      1  C   UNL     1      -0.019   1.526   0.010  0.00  0.00    +0.050 C 
ATOM      2  C   UNL     1       0.002  -0.004   0.002  0.00  0.00    +0.168 C 
ATOM      3  C   UNL     1      -1.404  -0.557   0.121  0.00  0.00    +0.254 C 
ATOM      4  O   UNL     1      -2.324  -0.392  -0.652  0.00  0.00    -0.272 OA
ATOM      5  N   UNL     1      -1.419  -1.272   1.263  0.00  0.00    -0.216 N 
ATOM      6  C   UNL     1      -0.231  -1.248   1.876  0.00  0.00    +0.310 C 
ATOM      7  O   UNL     1       0.001  -1.819   2.923  0.00  0.00    -0.252 OA
ATOM      8  N   UNL     1       0.679  -0.520   1.204  0.00  0.00    -0.279 N 
ATOM      9  H   UNL     1       1.602  -0.365   1.461  0.00  0.00    +0.152 HD
ENDROOT
BRANCH   2  10
ATOM     10  C   UNL     1       0.673  -0.517  -1.246  0.00  0.00    +0.137 A 
ATOM     11  C   UNL     1       1.988  -0.767  -1.386  0.00  0.00    +0.047 A 
ATOM     12  C   UNL     1       2.178  -1.229  -2.709  0.00  0.00    +0.041 A 
ATOM     13  C   UNL     1       0.968  -1.234  -3.297  0.00  0.00    +0.195 A 
ATOM     14  O   UNL     1       0.060  -0.807  -2.405  0.00  0.00    -0.465 OA
ENDBRANCH   2  10
BRANCH   5  15
ATOM     15  C   UNL     1      -2.593  -1.987   1.771  0.00  0.00    +0.197 C 
BRANCH  15  16
ATOM     16  C   UNL     1      -2.601  -3.391   1.225  0.00  0.00    +0.181 C 
ATOM     17  O   UNL     1      -1.714  -3.759   0.485  0.00  0.00    -0.290 OA
BRANCH  16  18
ATOM     18  C   UNL     1      -3.686  -4.316   1.591  0.00  0.00    +0.019 A 
ATOM     19  C   UNL     1      -4.713  -3.894   2.440  0.00  0.00    +0.012 A 
ATOM     20  C   UNL     1      -5.726  -4.767   2.777  0.00  0.00    +0.005 A 
ATOM     21  C   UNL     1      -5.727  -6.058   2.278  0.00  0.00    -0.042 A 
ATOM     22  C   UNL     1      -4.713  -6.483   1.437  0.00  0.00    +0.005 A 
ATOM     23  C   UNL     1      -3.697  -5.621   1.086  0.00  0.00    +0.012 A 
BRANCH  21  24
ATOM     24  C   UNL     1      -6.838  -7.005   2.652  0.00  0.00    -0.013 C 
ATOM     25  C   UNL     1      -8.178  -6.427   2.191  0.00  0.00    +0.015 C 
ATOM     26  C   UNL     1      -6.606  -8.357   1.973  0.00  0.00    +0.015 C 
ATOM     27  C   UNL     1      -6.858  -7.194   4.170  0.00  0.00    +0.015 C 
ENDBRANCH  21  24
ENDBRANCH  16  18
ENDBRANCH  15  16
ENDBRANCH   5  15
TORSDOF 5
