REMARK  Name = ZINC08921904
REMARK  12 active torsions:
REMARK  status: ('A' for Active; 'I' for Inactive)
REMARK    1  A    between atoms: C_1  and  C_2
REMARK    2  A    between atoms: C_2  and  C_3
REMARK    3  A    between atoms: C_3  and  C_32
REMARK    4  A    between atoms: N_6  and  N_10
REMARK    5  A    between atoms: C_11  and  C_12
REMARK    6  A    between atoms: C_15  and  O_20
REMARK    7  A    between atoms: C_16  and  O_18
REMARK    8  A    between atoms: O_18  and  C_19
REMARK    9  A    between atoms: O_20  and  S_21
REMARK   10  A    between atoms: S_21  and  C_24
REMARK   11  A    between atoms: C_26  and  C_31
REMARK   12  A    between atoms: C_29  and  C_30
REMARK                            x       y       z     vdW  Elec       q    Type
REMARK                         _______ _______ _______ _____ _____    ______ ____
ROOT
ATOM      1  C   UNL     1      -4.553  -0.083  -1.272  0.00  0.00    -0.002 A 
ATOM      2  C   UNL     1      -3.901  -1.319  -1.267  0.00  0.00    +0.013 A 
ATOM      3  C   UNL     1      -2.725  -1.476  -0.564  0.00  0.00    +0.053 A 
ATOM      4  C   UNL     1      -2.186  -0.408   0.139  0.00  0.00    +0.198 A 
ATOM      5  C   UNL     1      -2.833   0.826   0.143  0.00  0.00    +0.165 A 
ATOM      6  C   UNL     1      -4.009   0.992  -0.563  0.00  0.00    +0.059 A 
ENDROOT
BRANCH   1   8
ATOM      7  N   UNL     1      -6.314  -0.913  -2.679  0.00  0.00    -0.176 NA
ATOM      8  C   UNL     1      -5.810   0.086  -2.022  0.00  0.00    +0.139 C 
BRANCH   7  12
ATOM      9  C   UNL     1      -9.536   0.029  -4.113  0.00  0.00    +0.111 C 
ATOM     10  C   UNL     1      -8.269   0.361  -3.351  0.00  0.00    +0.266 C 
ATOM     11  O   UNL     1      -7.956   1.435  -2.883  0.00  0.00    -0.271 OA
ATOM     12  N   UNL     1      -7.562  -0.785  -3.301  0.00  0.00    -0.109 N 
ATOM     13  C   UNL     1      -8.198  -1.784  -3.923  0.00  0.00    +0.330 C 
ATOM     14  O   UNL     1      -7.757  -2.913  -4.014  0.00  0.00    -0.250 OA
ATOM     15  N   UNL     1      -9.382  -1.401  -4.434  0.00  0.00    -0.284 N 
ATOM     16  C   UNL     1     -10.768   0.256  -3.235  0.00  0.00    +0.041 C 
ATOM     17  H   UNL     1     -10.010  -1.956  -4.922  0.00  0.00    +0.151 HD
BRANCH   9  19
ATOM     18  C   UNL     1     -10.914   0.505  -6.142  0.00  0.00    +0.006 C 
ATOM     19  C   UNL     1      -9.628   0.861  -5.394  0.00  0.00    +0.032 C 
ENDBRANCH   9  19
ENDBRANCH   7  12
ENDBRANCH   1   8
BRANCH   5  20
ATOM     20  O   UNL     1      -2.305   1.868   0.839  0.00  0.00    -0.491 OA
ATOM     21  C   UNL     1      -3.073   3.072   0.887  0.00  0.00    +0.277 C 
ENDBRANCH   5  20
BRANCH   4  22
ATOM     22  O   UNL     1      -1.026  -0.568   0.830  0.00  0.00    -0.339 OA
BRANCH  22  23
ATOM     23  S   UNL     1       0.214  -0.122   0.069  0.00  0.00    +0.151 S 
ATOM     24  O   UNL     1       1.284  -0.116   1.005  0.00  0.00    -0.131 OA
ATOM     25  O   UNL     1      -0.157   1.032  -0.671  0.00  0.00    -0.131 OA
BRANCH  23  26
ATOM     26  C   UNL     1       0.583  -1.379  -1.109  0.00  0.00    +0.131 A 
ATOM     27  C   UNL     1       0.053  -2.647  -0.955  0.00  0.00    +0.034 A 
ATOM     28  C   UNL     1       0.338  -3.632  -1.882  0.00  0.00    -0.049 A 
ATOM     29  C   UNL     1       1.162  -3.352  -2.957  0.00  0.00    +0.004 A 
ATOM     30  C   UNL     1       1.696  -2.086  -3.107  0.00  0.00    +0.005 A 
ATOM     31  C   UNL     1       1.406  -1.100  -2.183  0.00  0.00    -0.022 A 
ATOM     32  C   UNL     1       1.989   0.281  -2.347  0.00  0.00    +0.046 C 
ATOM     33  C   UNL     1      -0.243  -5.012  -1.718  0.00  0.00    +0.044 C 
ENDBRANCH  23  26
ENDBRANCH  22  23
ENDBRANCH   4  22
TORSDOF 7
