REMARK  Name = ZINC00143597
REMARK  4 active torsions:
REMARK  status: ('A' for Active; 'I' for Inactive)
REMARK    1  A    between atoms: C_4  and  C_7
REMARK    2  A    between atoms: C_7  and  C_8
REMARK    3  A    between atoms: C_8  and  N_9
REMARK    4  A    between atoms: C_22  and  N_26
REMARK                            x       y       z     vdW  Elec       q    Type
REMARK                         _______ _______ _______ _____ _____    ______ ____
ROOT
ATOM      1  N   UNL     1       5.420  -1.663  -1.505  0.00  0.00    -0.308 N 
ATOM      2  C   UNL     1       5.552  -3.032  -1.514  0.00  0.00    +0.149 A 
ATOM      3  C   UNL     1       6.919  -3.351  -1.531  0.00  0.00    +0.086 A 
ATOM      4  C   UNL     1       7.650  -2.075  -1.531  0.00  0.00    +0.121 A 
ATOM      5  C   UNL     1       6.661  -1.056  -1.519  0.00  0.00    +0.162 A 
ATOM      6  N   UNL     1       7.022   0.213  -1.511  0.00  0.00    -0.226 NA
ATOM      7  C   UNL     1       8.320   0.537  -1.522  0.00  0.00    +0.092 A 
ATOM      8  C   UNL     1       8.725   1.884  -1.518  0.00  0.00    +0.030 A 
ATOM      9  C   UNL     1      10.051   2.190  -1.529  0.00  0.00    +0.002 A 
ATOM     10  C   UNL     1      11.020   1.188  -1.546  0.00  0.00    +0.002 A 
ATOM     11  C   UNL     1      10.666  -0.126  -1.550  0.00  0.00    +0.030 A 
ATOM     12  C   UNL     1       9.305  -0.483  -1.539  0.00  0.00    +0.090 A 
ATOM     13  N   UNL     1       8.933  -1.766  -1.542  0.00  0.00    -0.241 NA
ATOM     14  C   UNL     1       7.298  -4.699  -1.543  0.00  0.00    +0.131 A 
ATOM     15  N   UNL     1       6.342  -5.626  -1.538  0.00  0.00    -0.220 NA
ATOM     16  C   UNL     1       5.069  -5.285  -1.523  0.00  0.00    +0.225 A 
ATOM     17  N   UNL     1       4.669  -4.030  -1.511  0.00  0.00    -0.217 NA
ENDROOT
BRANCH  14  18
ATOM     18  N   UNL     1       8.632  -5.059  -1.560  0.00  0.00    -0.342 N 
ATOM     19  H   UNL     1       8.882  -5.996  -1.568  0.00  0.00    +0.144 HD
ATOM     20  H   UNL     1       9.319  -4.374  -1.563  0.00  0.00    +0.144 HD
ENDBRANCH  14  18
BRANCH   1  21
ATOM     21  C   UNL     1       4.142  -0.948  -1.488  0.00  0.00    +0.130 C 
BRANCH  21  22
ATOM     22  C   UNL     1       3.711  -0.707  -0.039  0.00  0.00    +0.057 C 
BRANCH  22  26
ATOM     23  C   UNL     1      -0.017   1.378   0.010  0.00  0.00    +0.000 A 
ATOM     24  C   UNL     1       1.171   2.086   0.002  0.00  0.00    +0.000 A 
ATOM     25  C   UNL     1       2.377   1.411  -0.014  0.00  0.00    +0.004 A 
ATOM     26  C   UNL     1       2.396   0.029  -0.022  0.00  0.00    -0.046 A 
ATOM     27  C   UNL     1       1.208  -0.679  -0.014  0.00  0.00    +0.004 A 
ATOM     28  C   UNL     1       0.002  -0.004   0.002  0.00  0.00    +0.000 A 
ENDBRANCH  22  26
ENDBRANCH  21  22
ENDBRANCH   1  21
TORSDOF 4
