REMARK  Name = ZINC20912227
REMARK  7 active torsions:
REMARK  status: ('A' for Active; 'I' for Inactive)
REMARK    1  A    between atoms: C_10  and  C_11
REMARK    2  A    between atoms: N_12  and  N_13
REMARK    3  A    between atoms: C_17  and  S_20
REMARK    4  A    between atoms: N_18  and  N_19
REMARK    5  A    between atoms: S_20  and  C_21
REMARK    6  A    between atoms: C_21  and  C_22
REMARK    7  A    between atoms: N_24  and  C_25
REMARK                            x       y       z     vdW  Elec       q    Type
REMARK                         _______ _______ _______ _____ _____    ______ ____
ROOT
ATOM      1  N   UNL     1      -2.941   1.581   0.043  0.00  0.00    -0.204 N 
ATOM      2  C   UNL     1      -2.084   1.746  -1.036  0.00  0.00    +0.254 A 
ATOM      3  N   UNL     1      -2.417   2.187  -2.224  0.00  0.00    -0.109 NA
ATOM      4  N   UNL     1      -1.264   2.201  -3.019  0.00  0.00    -0.119 NA
ATOM      5  C   UNL     1      -0.262   1.773  -2.288  0.00  0.00    +0.210 A 
ATOM      6  N   UNL     1      -0.744   1.475  -1.046  0.00  0.00    -0.211 N 
ATOM      7  H   UNL     1      -2.554   1.201   1.000  0.00  0.00    +0.177 HD
ENDROOT
BRANCH   6   8
ATOM      8  N   UNL     1      -0.013   0.996   0.005  0.00  0.00    -0.294 N 
ATOM      9  H   UNL     1       1.065   0.813  -0.113  0.00  0.00    +0.163 HD
ATOM     10  H   UNL     1      -0.504   0.793   0.968  0.00  0.00    +0.163 HD
ENDBRANCH   6   8
BRANCH   1  12
ATOM     11  C   UNL     1      -5.102   1.746   0.924  0.00  0.00    +0.139 C 
ATOM     12  N   UNL     1      -4.299   1.900  -0.087  0.00  0.00    -0.187 NA
BRANCH  11  22
ATOM     13  C   UNL     1      -8.068   3.846  -2.736  0.00  0.00    +0.001 A 
ATOM     14  C   UNL     1      -6.711   3.545  -2.645  0.00  0.00    +0.001 A 
ATOM     15  C   UNL     1      -6.194   2.975  -1.519  0.00  0.00    +0.009 A 
ATOM     16  C   UNL     1      -7.038   2.689  -0.439  0.00  0.00    -0.009 A 
ATOM     17  C   UNL     1      -8.418   2.995  -0.528  0.00  0.00    -0.017 A 
ATOM     18  C   UNL     1      -8.916   3.582  -1.704  0.00  0.00    +0.008 A 
ATOM     19  C   UNL     1      -9.261   2.708   0.559  0.00  0.00    +0.008 A 
ATOM     20  C   UNL     1      -8.764   2.140   1.692  0.00  0.00    +0.001 A 
ATOM     21  C   UNL     1      -7.420   1.817   1.821  0.00  0.00    +0.010 A 
ATOM     22  C   UNL     1      -6.528   2.079   0.788  0.00  0.00    +0.002 A 
ENDBRANCH  11  22
ENDBRANCH   1  12
BRANCH   5  23
ATOM     23  S   UNL     1       1.410   1.608  -2.818  0.00  0.00    -0.075 S 
BRANCH  23  24
ATOM     24  C   UNL     1       1.257   2.181  -4.528  0.00  0.00    +0.173 C 
BRANCH  24  25
ATOM     25  C   UNL     1       2.605   2.126  -5.199  0.00  0.00    +0.224 C 
ATOM     26  O   UNL     1       3.574   1.737  -4.583  0.00  0.00    -0.275 OA
ATOM     27  N   UNL     1       2.733   2.508  -6.485  0.00  0.00    -0.311 N 
ATOM     28  H   UNL     1       1.854   2.861  -7.045  0.00  0.00    +0.149 HD
BRANCH  27  29
ATOM     29  C   UNL     1       4.043   2.454  -7.138  0.00  0.00    +0.079 C 
ATOM     30  C   UNL     1       4.819   3.737  -6.832  0.00  0.00    +0.010 C 
ATOM     31  C   UNL     1       6.187   3.681  -7.514  0.00  0.00    +0.009 C 
ATOM     32  C   UNL     1       5.999   3.547  -9.027  0.00  0.00    -0.010 C 
ATOM     33  C   UNL     1       5.217   4.753  -9.551  0.00  0.00    +0.007 C 
ATOM     34  C   UNL     1       3.848   4.810  -8.870  0.00  0.00    -0.010 C 
ATOM     35  C   UNL     1       4.037   4.943  -7.357  0.00  0.00    +0.009 C 
ATOM     36  C   UNL     1       3.073   3.527  -9.175  0.00  0.00    +0.009 C 
ATOM     37  C   UNL     1       3.855   2.321  -8.651  0.00  0.00    +0.010 C 
ATOM     38  C   UNL     1       5.223   2.264  -9.332  0.00  0.00    +0.009 C 
ENDBRANCH  27  29
ENDBRANCH  24  25
ENDBRANCH  23  24
ENDBRANCH   5  23
TORSDOF 7
