REMARK  Name = ZINC11479927
REMARK  7 active torsions:
REMARK  status: ('A' for Active; 'I' for Inactive)
REMARK    1  A    between atoms: C_1  and  C_2
REMARK    2  A    between atoms: C_2  and  C_4
REMARK    3  A    between atoms: C_2  and  S_20
REMARK    4  A    between atoms: N_6  and  C_7
REMARK    5  A    between atoms: C_7  and  C_8
REMARK    6  A    between atoms: N_10  and  C_11
REMARK    7  A    between atoms: S_20  and  C_21
REMARK                            x       y       z     vdW  Elec       q    Type
REMARK                         _______ _______ _______ _____ _____    ______ ____
ROOT
ATOM      1  C   UNL     1       3.895   7.507   0.427  0.00  0.00    +0.227 C 
ATOM      2  O   UNL     1       2.962   8.281   0.459  0.00  0.00    -0.275 OA
ATOM      3  N   UNL     1       3.669   6.183   0.312  0.00  0.00    -0.306 N 
ATOM      4  H   UNL     1       4.416   5.564   0.286  0.00  0.00    +0.149 HD
ENDROOT
BRANCH   1   6
ATOM      5  C   UNL     1       5.877   8.199  -0.893  0.00  0.00    +0.029 C 
ATOM      6  C   UNL     1       5.308   8.025   0.516  0.00  0.00    +0.136 C 
BRANCH   6   7
ATOM      7  S   UNL     1       5.312   9.625   1.372  0.00  0.00    -0.084 S 
BRANCH   7   8
ATOM      8  C   UNL     1       7.021  10.021   1.526  0.00  0.00    +0.161 A 
ATOM      9  N   UNL     1       8.077   9.336   1.131  0.00  0.00    -0.133 NA
ATOM     10  N   UNL     1       9.340   9.838   1.350  0.00  0.00    -0.125 NA
ATOM     11  C   UNL     1       9.488  10.995   1.964  0.00  0.00    +0.180 A 
ATOM     12  S   UNL     1       7.789  11.454   2.267  0.00  0.00    -0.025 S 
ATOM     13  N   UNL     1      10.656  11.676   2.290  0.00  0.00    -0.336 N 
ATOM     14  H   UNL     1      10.608  12.529   2.748  0.00  0.00    +0.144 HD
ATOM     15  H   UNL     1      11.518  11.297   2.058  0.00  0.00    +0.144 HD
ENDBRANCH   7   8
ENDBRANCH   6   7
ENDBRANCH   1   6
BRANCH   3  16
ATOM     16  C   UNL     1       2.296   5.679   0.225  0.00  0.00    +0.200 C 
BRANCH  16  17
ATOM     17  C   UNL     1       2.319   4.177   0.104  0.00  0.00    +0.234 C 
ATOM     18  O   UNL     1       3.378   3.586   0.091  0.00  0.00    -0.274 OA
ATOM     19  N   UNL     1       1.163   3.491   0.009  0.00  0.00    -0.282 N 
ATOM     20  H   UNL     1       0.321   3.967  -0.061  0.00  0.00    +0.155 HD
BRANCH  19  21
ATOM     21  C   UNL     1       1.178   2.090   0.013  0.00  0.00    +0.072 A 
ATOM     22  C   UNL     1       2.230   1.407   0.608  0.00  0.00    +0.029 A 
ATOM     23  C   UNL     1       2.244   0.026   0.611  0.00  0.00    +0.043 A 
ATOM     24  C   UNL     1       1.210  -0.680   0.022  0.00  0.00    +0.161 A 
ATOM     25  C   UNL     1       0.156  -0.003  -0.574  0.00  0.00    +0.195 A 
ATOM     26  C   UNL     1       0.139   1.381  -0.579  0.00  0.00    +0.182 A 
ATOM     27  F   UNL     1      -0.884   2.043  -1.163  0.00  0.00    -0.200 F 
ATOM     28  F   UNL     1      -0.852  -0.694  -1.149  0.00  0.00    -0.199 F 
ATOM     29  F   UNL     1       1.226  -2.031   0.026  0.00  0.00    -0.202 F 
ENDBRANCH  19  21
ENDBRANCH  16  17
ENDBRANCH   3  16
TORSDOF 6
