REMARK  Name = ZINC36045119
REMARK  11 active torsions:
REMARK  status: ('A' for Active; 'I' for Inactive)
REMARK    1  A    between atoms: C_1  and  C_2
REMARK    2  A    between atoms: C_5  and  N_9
REMARK    3  A    between atoms: C_7  and  C_8
REMARK    4  A    between atoms: C_11  and  C_32
REMARK    5  A    between atoms: C_15  and  C_17
REMARK    6  A    between atoms: C_17  and  N_18
REMARK    7  A    between atoms: N_18  and  C_19
REMARK    8  A    between atoms: C_19  and  C_20
REMARK    9  A    between atoms: N_28  and  C_29
REMARK   10  A    between atoms: C_29  and  C_30
REMARK   11  A    between atoms: C_29  and  C_31
REMARK                            x       y       z     vdW  Elec       q    Type
REMARK                         _______ _______ _______ _____ _____    ______ ____
ROOT
ATOM      1  N   UNL     1       0.059  -4.172  -0.021  0.00  0.00    -0.287 N 
ATOM      2  C   UNL     1       0.916  -4.980   0.686  0.00  0.00    +0.122 A 
ATOM      3  C   UNL     1       0.584  -6.261   0.386  0.00  0.00    +0.091 A 
ATOM      4  N   UNL     1      -0.450  -6.234  -0.481  0.00  0.00    -0.214 NA
ATOM      5  C   UNL     1      -0.775  -4.989  -0.726  0.00  0.00    +0.207 A 
ATOM      6  N   UNL     1      -1.797  -4.570  -1.568  0.00  0.00    -0.254 N 
ATOM      7  C   UNL     1      -2.555  -5.479  -2.212  0.00  0.00    +0.237 C 
ATOM      8  O   UNL     1      -2.345  -6.663  -2.057  0.00  0.00    -0.274 OA
ATOM      9  H   UNL     1      -1.965  -3.623  -1.693  0.00  0.00    +0.158 HD
ENDROOT
BRANCH   1  14
ATOM     10  C   UNL     1      -0.018   1.503   0.010  0.00  0.00    +0.044 C 
ATOM     11  C   UNL     1       0.002  -0.004   0.002  0.00  0.00    -0.047 A 
ATOM     12  C   UNL     1       0.006  -0.688  -1.200  0.00  0.00    +0.005 A 
ATOM     13  C   UNL     1       0.025  -2.068  -1.211  0.00  0.00    +0.026 A 
ATOM     14  C   UNL     1       0.040  -2.771  -0.013  0.00  0.00    +0.049 A 
ATOM     15  C   UNL     1       0.037  -2.082   1.192  0.00  0.00    +0.029 A 
ATOM     16  C   UNL     1       0.023  -0.700   1.196  0.00  0.00    -0.046 A 
ATOM     17  C   UNL     1       0.025   0.048   2.504  0.00  0.00    +0.044 C 
ENDBRANCH   1  14
BRANCH   3  18
ATOM     18  C   UNL     1       1.243  -7.479   0.919  0.00  0.00    +0.002 A 
ATOM     19  C   UNL     1       2.302  -7.365   1.817  0.00  0.00    +0.011 A 
ATOM     20  C   UNL     1       2.911  -8.502   2.310  0.00  0.00    +0.020 A 
ATOM     21  C   UNL     1       2.471  -9.753   1.913  0.00  0.00    +0.041 A 
ATOM     22  C   UNL     1       1.419  -9.871   1.021  0.00  0.00    +0.020 A 
ATOM     23  C   UNL     1       0.800  -8.742   0.527  0.00  0.00    +0.011 A 
ATOM     24 CL   UNL     1       3.242 -11.178   2.536  0.00  0.00    -0.084 Cl
ENDBRANCH   3  18
BRANCH   7  25
ATOM     25  C   UNL     1      -3.664  -5.024  -3.126  0.00  0.00    +0.205 C 
BRANCH  25  26
ATOM     26  N   UNL     1      -4.333  -6.194  -3.701  0.00  0.00    -0.274 N 
ATOM     27  C   UNL     1      -3.896  -6.717  -4.863  0.00  0.00    +0.303 C 
ATOM     28  O   UNL     1      -2.945  -6.219  -5.434  0.00  0.00    -0.253 OA
ATOM     29  N   UNL     1      -4.512  -7.793  -5.392  0.00  0.00    -0.297 N 
ATOM     30  H   UNL     1      -5.270  -8.191  -4.936  0.00  0.00    +0.150 HD
BRANCH  29  31
ATOM     31  C   UNL     1      -4.036  -8.362  -6.655  0.00  0.00    +0.068 C 
ATOM     32  C   UNL     1      -4.428  -9.839  -6.729  0.00  0.00    +0.027 C 
ATOM     33  C   UNL     1      -4.670  -7.607  -7.825  0.00  0.00    +0.027 C 
ENDBRANCH  29  31
BRANCH  26  34
ATOM     34  C   UNL     1      -5.479  -6.794  -3.012  0.00  0.00    +0.141 C 
BRANCH  34  35
ATOM     35  C   UNL     1      -6.770  -6.135  -3.500  0.00  0.00    +0.136 C 
ATOM     36  C   UNL     1      -7.992  -6.731  -2.758  0.00  0.00    +0.035 C 
ATOM     37  C   UNL     1      -9.011  -5.566  -2.882  0.00  0.00    +0.031 C 
ATOM     38  C   UNL     1      -8.098  -4.323  -2.809  0.00  0.00    +0.160 C 
ATOM     39  O   UNL     1      -6.772  -4.737  -3.167  0.00  0.00    -0.375 OA
ENDBRANCH  34  35
ENDBRANCH  26  34
ENDBRANCH  25  26
ENDBRANCH   7  25
TORSDOF 7
