REMARK  Name = ZINC64032404
REMARK  9 active torsions:
REMARK  status: ('A' for Active; 'I' for Inactive)
REMARK    1  A    between atoms: C_1  and  C_2
REMARK    2  A    between atoms: C_2  and  C_3
REMARK    3  A    between atoms: C_2  and  C_4
REMARK    4  A    between atoms: N_18  and  C_19
REMARK    5  A    between atoms: C_19  and  N_21
REMARK    6  A    between atoms: N_21  and  C_22
REMARK    7  A    between atoms: C_27  and  C_28
REMARK    8  A    between atoms: C_28  and  O_30
REMARK    9  A    between atoms: O_30  and  C_31
REMARK                            x       y       z     vdW  Elec       q    Type
REMARK                         _______ _______ _______ _____ _____    ______ ____
ROOT
ATOM      1  C   UNL     1      -1.575  -1.469  -1.113  0.00  0.00    +0.104 C 
ATOM      2  C   UNL     1      -2.326  -2.708  -1.613  0.00  0.00    +0.127 C 
ATOM      3  C   UNL     1      -3.809  -2.362  -1.578  0.00  0.00    -0.035 C 
ATOM      4  C   UNL     1      -4.393  -3.288  -0.827  0.00  0.00    -0.001 A 
ATOM      5  C   UNL     1      -5.804  -3.524  -0.484  0.00  0.00    +0.010 A 
ATOM      6  C   UNL     1      -6.053  -4.579   0.336  0.00  0.00    +0.001 A 
ATOM      7  C   UNL     1      -5.051  -5.413   0.843  0.00  0.00    +0.002 A 
ATOM      8  C   UNL     1      -3.728  -5.272   0.577  0.00  0.00    +0.026 A 
ATOM      9  C   UNL     1      -3.342  -4.200  -0.279  0.00  0.00    +0.043 A 
ATOM     10  N   UNL     1      -2.145  -3.852  -0.718  0.00  0.00    -0.376 N 
ATOM     11  C   UNL     1      -4.369  -1.128  -2.243  0.00  0.00    +0.052 C 
ATOM     12  C   UNL     1      -3.513   0.059  -1.766  0.00  0.00    +0.111 C 
ATOM     13  N   UNL     1      -2.093  -0.301  -1.843  0.00  0.00    -0.307 N 
ATOM     14  H   UNL     1      -1.298  -4.267  -0.492  0.00  0.00    +0.160 HD
ENDROOT
BRANCH   1  16
ATOM     15  C   UNL     1       0.444  -2.868  -0.659  0.00  0.00    +0.009 C 
ATOM     16  C   UNL     1      -0.078  -1.626  -1.384  0.00  0.00    +0.006 C 
ATOM     17  C   UNL     1       0.155  -1.779  -2.889  0.00  0.00    +0.009 C 
ENDBRANCH   1  16
BRANCH  13  18
ATOM     18  C   UNL     1      -1.256   0.444  -2.591  0.00  0.00    +0.137 C 
ATOM     19  S   UNL     1       0.430   0.393  -2.296  0.00  0.00    -0.018 S 
BRANCH  18  20
ATOM     20  N   UNL     1      -1.745   1.229  -3.572  0.00  0.00    -0.296 N 
ATOM     21  H   UNL     1      -2.703   1.299  -3.704  0.00  0.00    +0.154 HD
BRANCH  20  22
ATOM     22  C   UNL     1      -0.875   1.938  -4.394  0.00  0.00    +0.047 A 
ATOM     23  C   UNL     1       0.142   2.704  -3.839  0.00  0.00    +0.024 A 
ATOM     24  C   UNL     1       1.004   3.406  -4.657  0.00  0.00    +0.002 A 
ATOM     25  C   UNL     1       0.863   3.355  -6.035  0.00  0.00    +0.001 A 
ATOM     26  C   UNL     1      -0.140   2.601  -6.604  0.00  0.00    +0.017 A 
ATOM     27  C   UNL     1      -1.017   1.880  -5.789  0.00  0.00    +0.080 A 
BRANCH  27  28
ATOM     28  C   UNL     1      -2.089   1.067  -6.391  0.00  0.00    +0.341 C 
ATOM     29  O   UNL     1      -2.906   0.515  -5.680  0.00  0.00    -0.245 OA
BRANCH  28  30
ATOM     30  O   UNL     1      -2.163   0.935  -7.731  0.00  0.00    -0.464 OA
ATOM     31  C   UNL     1      -3.228   0.133  -8.245  0.00  0.00    +0.280 C 
ENDBRANCH  28  30
ENDBRANCH  27  28
ENDBRANCH  20  22
ENDBRANCH  18  20
ENDBRANCH  13  18
TORSDOF 6
