REMARK  Name = ZINC63676498
REMARK  6 active torsions:
REMARK  status: ('A' for Active; 'I' for Inactive)
REMARK    1  A    between atoms: C_1  and  C_2
REMARK    2  A    between atoms: C_4  and  C_13
REMARK    3  A    between atoms: C_13  and  C_14
REMARK    4  A    between atoms: C_14  and  N_15
REMARK    5  A    between atoms: N_18  and  S_19
REMARK    6  A    between atoms: S_19  and  C_22
REMARK                            x       y       z     vdW  Elec       q    Type
REMARK                         _______ _______ _______ _____ _____    ______ ____
ROOT
ATOM      1  N   UNL     1      -4.819  -0.826  -1.544  0.00  0.00    -0.355 N 
ATOM      2  C   UNL     1      -6.061  -1.390  -1.367  0.00  0.00    +0.215 C 
ATOM      3  N   UNL     1      -6.313  -2.163  -0.259  0.00  0.00    -0.369 N 
ATOM      4  N   UNL     1      -6.998  -1.192  -2.251  0.00  0.00    -0.093 NA
ATOM      5  H   UNL     1      -4.641  -0.280  -2.326  0.00  0.00    +0.163 HD
ATOM      6  H   UNL     1      -5.615  -2.311   0.398  0.00  0.00    +0.159 HD
ATOM      7  H   UNL     1      -7.188  -2.562  -0.135  0.00  0.00    +0.159 HD
ENDROOT
BRANCH   4   8
ATOM      8  S   UNL     1      -8.493  -1.871  -2.038  0.00  0.00    +0.102 S 
ATOM      9  O   UNL     1      -8.317  -3.278  -2.136  0.00  0.00    -0.146 OA
ATOM     10  O   UNL     1      -9.061  -1.253  -0.892  0.00  0.00    -0.146 OA
BRANCH   8  11
ATOM     11  C   UNL     1      -9.484  -1.391  -3.413  0.00  0.00    +0.113 A 
ATOM     12  C   UNL     1     -10.226  -0.226  -3.357  0.00  0.00    +0.029 A 
ATOM     13  C   UNL     1     -11.004   0.151  -4.436  0.00  0.00    +0.002 A 
ATOM     14  C   UNL     1     -11.039  -0.636  -5.571  0.00  0.00    +0.000 A 
ATOM     15  C   UNL     1     -10.297  -1.801  -5.628  0.00  0.00    +0.002 A 
ATOM     16  C   UNL     1      -9.516  -2.176  -4.551  0.00  0.00    +0.029 A 
ENDBRANCH   8  11
ENDBRANCH   4   8
BRANCH   1  17
ATOM     17  C   UNL     1      -3.765  -1.048  -0.551  0.00  0.00    +0.120 C 
BRANCH  17  18
ATOM     18  C   UNL     1      -2.494  -0.316  -0.984  0.00  0.00    +0.054 C 
BRANCH  18  21
ATOM     19  C   UNL     1      -0.019   1.526   0.010  0.00  0.00    +0.035 C 
ATOM     20  C   UNL     1       0.002  -0.004   0.002  0.00  0.00    +0.103 C 
ATOM     21  C   UNL     1      -1.410  -0.545   0.038  0.00  0.00    -0.037 C 
ATOM     22  C   UNL     1      -1.503  -1.275   1.172  0.00  0.00    +0.002 A 
ATOM     23  C   UNL     1      -2.599  -2.045   1.771  0.00  0.00    +0.048 A 
ATOM     24  C   UNL     1      -2.387  -2.687   2.945  0.00  0.00    +0.124 A 
ATOM     25  C   UNL     1      -1.146  -2.633   3.600  0.00  0.00    +0.040 A 
ATOM     26  C   UNL     1      -0.093  -1.946   3.110  0.00  0.00    +0.029 A 
ATOM     27  C   UNL     1      -0.205  -1.235   1.884  0.00  0.00    +0.043 A 
ATOM     28  N   UNL     1       0.658  -0.508   1.214  0.00  0.00    -0.378 N 
ATOM     29  F   UNL     1      -3.394  -3.396   3.499  0.00  0.00    -0.205 F 
ATOM     30  H   UNL     1       1.576  -0.333   1.475  0.00  0.00    +0.160 HD
ENDBRANCH  18  21
ENDBRANCH  17  18
ENDBRANCH   1  17
TORSDOF 5
