REMARK  Name = ZINC66466687
REMARK  6 active torsions:
REMARK  status: ('A' for Active; 'I' for Inactive)
REMARK    1  A    between atoms: C_1  and  C_2
REMARK    2  A    between atoms: C_5  and  C_8
REMARK    3  A    between atoms: N_6  and  C_7
REMARK    4  A    between atoms: C_8  and  C_10
REMARK    5  A    between atoms: C_8  and  N_16
REMARK    6  A    between atoms: C_22  and  N_26
REMARK                            x       y       z     vdW  Elec       q    Type
REMARK                         _______ _______ _______ _____ _____    ______ ____
ROOT
ATOM      1  C   UNL     1       0.056  -3.344   1.433  0.00  0.00    +0.171 C 
ENDROOT
BRANCH   1   2
ATOM      2  N   UNL     1       1.043  -4.272   0.877  0.00  0.00    -0.310 N 
ATOM      3  C   UNL     1       2.370  -4.169   1.243  0.00  0.00    +0.160 A 
ATOM      4  N   UNL     1       2.932  -3.318   2.071  0.00  0.00    -0.225 NA
ATOM      5  C   UNL     1       4.257  -3.334   2.338  0.00  0.00    +0.080 A 
ATOM      6  C   UNL     1       4.983  -2.482   3.202  0.00  0.00    +0.031 A 
ATOM      7  C   UNL     1       6.335  -2.634   3.361  0.00  0.00    +0.035 A 
ATOM      8  C   UNL     1       7.038  -3.621   2.686  0.00  0.00    +0.127 A 
ATOM      9  C   UNL     1       6.360  -4.472   1.833  0.00  0.00    +0.050 A 
ATOM     10  C   UNL     1       5.005  -4.327   1.668  0.00  0.00    +0.043 A 
ATOM     11  S   UNL     1       3.759  -5.163   0.716  0.00  0.00    -0.052 S 
ATOM     12  H   UNL     1       0.765  -4.959   0.251  0.00  0.00    +0.149 HD
BRANCH   8  13
ATOM     13  N   UNL     1       8.500  -3.761   2.876  0.00  0.00    +0.056 N 
ATOM     14  O   UNL     1       9.087  -3.014   3.623  0.00  0.00    -0.126 OA
ATOM     15  O   UNL     1       9.106  -4.624   2.284  0.00  0.00    -0.126 OA
ENDBRANCH   8  13
ENDBRANCH   1   2
BRANCH   1  20
ATOM     16  C   UNL     1      -0.018   1.503   0.010  0.00  0.00    +0.088 C 
ATOM     17  C   UNL     1       0.002  -0.004   0.002  0.00  0.00    +0.130 A 
ATOM     18  N   UNL     1       0.008  -0.772  -1.054  0.00  0.00    -0.135 NA
ATOM     19  N   UNL     1       0.027  -2.006  -0.691  0.00  0.00    -0.132 NA
ATOM     20  C   UNL     1       0.034  -2.081   0.612  0.00  0.00    +0.158 A 
ATOM     21  N   UNL     1       0.023  -0.813   1.089  0.00  0.00    -0.316 N 
ATOM     22  C   UNL     1       0.030  -0.400   2.494  0.00  0.00    +0.152 C 
ENDBRANCH   1  20
BRANCH   1  23
ATOM     23  C   UNL     1      -1.308  -3.985   1.404  0.00  0.00    -0.020 A 
ATOM     24  C   UNL     1      -1.691  -4.747   0.316  0.00  0.00    +0.006 A 
ATOM     25  C   UNL     1      -2.941  -5.335   0.289  0.00  0.00    +0.000 A 
ATOM     26  C   UNL     1      -3.809  -5.162   1.351  0.00  0.00    +0.000 A 
ATOM     27  C   UNL     1      -3.426  -4.401   2.440  0.00  0.00    +0.000 A 
ATOM     28  C   UNL     1      -2.174  -3.817   2.469  0.00  0.00    +0.006 A 
ENDBRANCH   1  23
TORSDOF 4
