REMARK  Name = ZINC67441520
REMARK  8 active torsions:
REMARK  status: ('A' for Active; 'I' for Inactive)
REMARK    1  A    between atoms: C_6  and  O_7
REMARK    2  A    between atoms: O_7  and  C_8
REMARK    3  A    between atoms: C_8  and  C_9
REMARK    4  A    between atoms: C_9  and  C_11
REMARK    5  A    between atoms: C_9  and  O_27
REMARK    6  A    between atoms: C_11  and  N_12
REMARK    7  A    between atoms: C_13  and  C_15
REMARK    8  A    between atoms: N_17  and  C_18
REMARK                            x       y       z     vdW  Elec       q    Type
REMARK                         _______ _______ _______ _____ _____    ______ ____
ROOT
ATOM      1  N   UNL     1      -3.724  -4.817  -0.258  0.00  0.00    -0.305 N 
ATOM      2  C   UNL     1      -3.884  -6.150  -0.380  0.00  0.00    +0.299 C 
ATOM      3  O   UNL     1      -2.913  -6.878  -0.408  0.00  0.00    -0.265 OA
ATOM      4  H   UNL     1      -4.500  -4.236  -0.235  0.00  0.00    +0.149 HD
ENDROOT
BRANCH   2   5
ATOM      5  C   UNL     1      -5.256  -6.731  -0.480  0.00  0.00    +0.303 C 
ATOM      6  O   UNL     1      -6.227  -6.003  -0.451  0.00  0.00    -0.265 OA
ATOM      7  N   UNL     1      -5.417  -8.063  -0.602  0.00  0.00    -0.275 N 
ATOM      8  H   UNL     1      -4.641  -8.639  -0.690  0.00  0.00    +0.155 HD
BRANCH   7   9
ATOM      9  C   UNL     1      -6.702  -8.617  -0.602  0.00  0.00    +0.072 A 
ATOM     10  C   UNL     1      -7.758  -7.922  -1.178  0.00  0.00    +0.029 A 
ATOM     11  C   UNL     1      -9.026  -8.469  -1.177  0.00  0.00    +0.043 A 
ATOM     12  C   UNL     1      -9.248  -9.709  -0.602  0.00  0.00    +0.161 A 
ATOM     13  C   UNL     1      -8.197 -10.406  -0.025  0.00  0.00    +0.195 A 
ATOM     14  C   UNL     1      -6.923  -9.864  -0.029  0.00  0.00    +0.182 A 
ATOM     15  F   UNL     1      -5.896 -10.545   0.527  0.00  0.00    -0.200 F 
ATOM     16  F   UNL     1      -8.415 -11.615   0.536  0.00  0.00    -0.199 F 
ATOM     17  F   UNL     1     -10.490 -10.241  -0.603  0.00  0.00    -0.202 F 
ENDBRANCH   7   9
ENDBRANCH   2   5
BRANCH   1  18
ATOM     18  C   UNL     1      -2.378  -4.247  -0.160  0.00  0.00    +0.139 C 
BRANCH  18  19
ATOM     19  C   UNL     1      -2.477  -2.726  -0.030  0.00  0.00    +0.169 C 
BRANCH  19  20
ATOM     20  O   UNL     1      -3.119  -2.393   1.202  0.00  0.00    -0.387 OA
ATOM     21  H   UNL     1      -2.656  -2.717   1.987  0.00  0.00    +0.210 HD
ENDBRANCH  19  20
BRANCH  19  22
ATOM     22  C   UNL     1      -1.072  -2.120  -0.053  0.00  0.00    +0.261 C 
BRANCH  22  23
ATOM     23  O   UNL     1      -1.168  -0.694  -0.050  0.00  0.00    -0.489 OA
BRANCH  23  29
ATOM     24  C   UNL     1      -0.021   1.390  -0.067  0.00  0.00    +0.048 A 
ATOM     25  C   UNL     1       1.166   2.097  -0.085  0.00  0.00    +0.042 A 
ATOM     26  C   UNL     1       2.374   1.422  -0.106  0.00  0.00    +0.124 A 
ATOM     27  C   UNL     1       2.396   0.038  -0.108  0.00  0.00    +0.042 A 
ATOM     28  C   UNL     1       1.211  -0.672  -0.090  0.00  0.00    +0.048 A 
ATOM     29  C   UNL     1      -0.001   0.003  -0.069  0.00  0.00    +0.121 A 
ATOM     30  F   UNL     1       3.534   2.115  -0.124  0.00  0.00    -0.205 F 
ENDBRANCH  23  29
ENDBRANCH  22  23
ENDBRANCH  19  22
ENDBRANCH  18  19
ENDBRANCH   1  18
TORSDOF 8
