REMARK  Name = ZINC19458821
REMARK  7 active torsions:
REMARK  status: ('A' for Active; 'I' for Inactive)
REMARK    1  A    between atoms: C_1  and  C_2
REMARK    2  A    between atoms: C_2  and  C_4
REMARK    3  A    between atoms: C_2  and  N_14
REMARK    4  A    between atoms: C_15  and  C_17
REMARK    5  A    between atoms: C_22  and  C_26
REMARK    6  A    between atoms: C_26  and  C_27
REMARK    7  A    between atoms: C_27  and  O_28
REMARK                            x       y       z     vdW  Elec       q    Type
REMARK                         _______ _______ _______ _____ _____    ______ ____
ROOT
ATOM      1  N   UNL     1       6.622  -0.317  -0.062  0.00  0.00    -0.303 N 
ATOM      2  C   UNL     1       5.918   0.833  -0.049  0.00  0.00    +0.265 C 
ATOM      3  O   UNL     1       6.499   1.901  -0.049  0.00  0.00    -0.268 OA
ATOM      4  H   UNL     1       6.097  -1.283  -0.062  0.00  0.00    +0.150 HD
ENDROOT
BRANCH   2   5
ATOM      5  C   UNL     1       4.440   0.794  -0.035  0.00  0.00    +0.150 A 
ATOM      6  C   UNL     1       3.595   1.909  -0.021  0.00  0.00    +0.083 A 
ATOM      7  C   UNL     1       2.289   1.445  -0.012  0.00  0.00    +0.156 A 
ATOM      8  N   UNL     1       1.106   2.076   0.003  0.00  0.00    -0.236 NA
ATOM      9  C   UNL     1      -0.017   1.399   0.010  0.00  0.00    +0.118 A 
ATOM     10  C   UNL     1       0.002  -0.004   0.002  0.00  0.00    -0.009 A 
ATOM     11  C   UNL     1       1.190  -0.654  -0.013  0.00  0.00    +0.119 A 
ATOM     12  N   UNL     1       2.347   0.073  -0.020  0.00  0.00    -0.221 N 
ATOM     13  N   UNL     1       3.696  -0.300  -0.034  0.00  0.00    -0.160 NA
BRANCH  10  14
ATOM     14  C   UNL     1      -1.289  -0.781   0.011  0.00  0.00    +0.066 C 
BRANCH  14  15
ATOM     15  C   UNL     1      -1.740  -1.037  -1.429  0.00  0.00    +0.160 C 
BRANCH  15  16
ATOM     16  O   UNL     1      -2.965  -1.774  -1.421  0.00  0.00    -0.395 OA
ATOM     17  H   UNL     1      -3.445  -2.052  -2.370  0.00  0.00    +0.209 HD
ENDBRANCH  15  16
ENDBRANCH  14  15
ENDBRANCH  10  14
ENDBRANCH   2   5
BRANCH   1  19
ATOM     18  C   UNL     1       8.607  -0.148   1.356  0.00  0.00    +0.033 C 
ATOM     19  C   UNL     1       8.086  -0.279  -0.076  0.00  0.00    +0.100 C 
BRANCH  19  20
ATOM     20  C   UNL     1       8.616  -1.550  -0.689  0.00  0.00    -0.027 A 
ATOM     21  C   UNL     1       8.017  -2.762  -0.398  0.00  0.00    +0.006 A 
ATOM     22  C   UNL     1       8.509  -3.921  -0.960  0.00  0.00    +0.004 A 
ATOM     23  C   UNL     1       9.602  -3.882  -1.817  0.00  0.00    -0.044 A 
ATOM     24  C   UNL     1      10.195  -2.675  -2.111  0.00  0.00    -0.044 A 
ATOM     25  C   UNL     1       9.696  -1.508  -1.546  0.00  0.00    +0.009 A 
ATOM     26  C   UNL     1      11.376  -2.556  -3.038  0.00  0.00    +0.035 C 
ATOM     27  C   UNL     1      12.055  -3.912  -3.219  0.00  0.00    +0.005 C 
ATOM     28  C   UNL     1      10.985  -4.941  -3.602  0.00  0.00    +0.005 C 
ATOM     29  C   UNL     1      10.096  -5.187  -2.385  0.00  0.00    +0.035 C 
ENDBRANCH  19  20
ENDBRANCH   1  19
TORSDOF 6
