REMARK  Name = ZINC65219726
REMARK  8 active torsions:
REMARK  status: ('A' for Active; 'I' for Inactive)
REMARK    1  A    between atoms: C_1  and  C_2
REMARK    2  A    between atoms: C_2  and  C_3
REMARK    3  A    between atoms: C_3  and  C_4
REMARK    4  A    between atoms: N_9  and  C_10
REMARK    5  A    between atoms: C_10  and  C_11
REMARK    6  A    between atoms: C_17  and  C_19
REMARK    7  A    between atoms: C_22  and  C_26
REMARK    8  A    between atoms: C_24  and  C_25
REMARK                            x       y       z     vdW  Elec       q    Type
REMARK                         _______ _______ _______ _____ _____    ______ ____
ROOT
ATOM      1  C   UNL     1       4.061  -2.223   0.938  0.00  0.00    +0.239 C 
ATOM      2  O   UNL     1       3.881  -2.457   2.115  0.00  0.00    -0.273 OA
ATOM      3  N   UNL     1       5.275  -1.828   0.507  0.00  0.00    -0.262 N 
ATOM      4  C   UNL     1       6.321  -1.687   1.411  0.00  0.00    +0.188 A 
ATOM      5  N   UNL     1       6.327  -1.897   2.714  0.00  0.00    -0.125 NA
ATOM      6  N   UNL     1       7.366  -1.726   3.414  0.00  0.00    -0.140 NA
ATOM      7  C   UNL     1       8.481  -1.325   2.817  0.00  0.00    +0.134 A 
ATOM      8  S   UNL     1       7.913  -1.213   1.126  0.00  0.00    -0.030 S 
ATOM      9  H   UNL     1       5.419  -1.641  -0.434  0.00  0.00    +0.157 HD
ENDROOT
BRANCH   7  10
ATOM     10  C   UNL     1       9.817  -1.052   3.389  0.00  0.00    +0.012 A 
ATOM     11  C   UNL     1      10.859  -0.627   2.564  0.00  0.00    +0.011 A 
ATOM     12  C   UNL     1      12.103  -0.374   3.103  0.00  0.00    +0.004 A 
ATOM     13  C   UNL     1      12.319  -0.542   4.460  0.00  0.00    -0.050 A 
ATOM     14  C   UNL     1      11.290  -0.963   5.284  0.00  0.00    +0.007 A 
ATOM     15  C   UNL     1      10.040  -1.213   4.757  0.00  0.00    -0.040 A 
ATOM     16  C   UNL     1       8.918  -1.665   5.657  0.00  0.00    +0.044 C 
ATOM     17  C   UNL     1      13.681  -0.264   5.043  0.00  0.00    +0.044 C 
ENDBRANCH   7  10
BRANCH   1  18
ATOM     18  C   UNL     1       2.926  -2.375  -0.042  0.00  0.00    +0.221 C 
BRANCH  18  24
ATOM     19  C   UNL     1       0.762  -2.018   1.233  0.00  0.00    +0.135 A 
ATOM     20  N   UNL     1      -0.134  -2.805   1.757  0.00  0.00    -0.133 NA
ATOM     21  N   UNL     1       0.194  -4.034   1.569  0.00  0.00    -0.122 NA
ATOM     22  C   UNL     1       1.326  -4.097   0.908  0.00  0.00    +0.203 A 
ATOM     23  S   UNL     1       2.172  -5.562   0.417  0.00  0.00    -0.009 SA
ATOM     24  N   UNL     1       1.722  -2.812   0.669  0.00  0.00    -0.296 N 
BRANCH  19  25
ATOM     25  C   UNL     1       0.742  -0.511   1.242  0.00  0.00    +0.076 C 
BRANCH  25  27
ATOM     26  C   UNL     1      -0.019   1.526   0.010  0.00  0.00    +0.004 C 
ATOM     27  C   UNL     1       0.002  -0.004   0.002  0.00  0.00    +0.004 C 
ENDBRANCH  25  27
ENDBRANCH  19  25
ENDBRANCH  18  24
ENDBRANCH   1  18
TORSDOF 5
