REMARK  Name = ZINC12703955
REMARK  9 active torsions:
REMARK  status: ('A' for Active; 'I' for Inactive)
REMARK    1  A    between atoms: C_1  and  C_2
REMARK    2  A    between atoms: C_5  and  C_7
REMARK    3  A    between atoms: C_7  and  C_9
REMARK    4  A    between atoms: C_7  and  N_17
REMARK    5  A    between atoms: N_11  and  C_12
REMARK    6  A    between atoms: N_17  and  C_18
REMARK    7  A    between atoms: C_25  and  C_27
REMARK    8  A    between atoms: C_27  and  N_28
REMARK    9  A    between atoms: C_30  and  C_33
REMARK                            x       y       z     vdW  Elec       q    Type
REMARK                         _______ _______ _______ _____ _____    ______ ____
ROOT
ATOM      1  N   UNL     1       0.858  -2.658   0.867  0.00  0.00    -0.248 N 
ATOM      2  C   UNL     1       1.394  -3.312   1.916  0.00  0.00    +0.244 C 
ATOM      3  O   UNL     1       2.588  -3.254   2.121  0.00  0.00    -0.273 OA
ENDROOT
BRANCH   1   4
ATOM      4  C   UNL     1      -0.521  -2.725   0.630  0.00  0.00    +0.073 A 
ATOM      5  C   UNL     1      -1.039  -3.728  -0.178  0.00  0.00    +0.026 A 
ATOM      6  C   UNL     1      -2.399  -3.793  -0.410  0.00  0.00    +0.002 A 
ATOM      7  C   UNL     1      -3.246  -2.861   0.162  0.00  0.00    +0.003 A 
ATOM      8  C   UNL     1      -2.734  -1.860   0.968  0.00  0.00    +0.040 A 
ATOM      9  C   UNL     1      -1.374  -1.792   1.208  0.00  0.00    +0.145 A 
ATOM     10  F   UNL     1      -0.875  -0.818   1.999  0.00  0.00    -0.204 F 
ENDBRANCH   1   4
BRANCH   1  11
ATOM     11  C   UNL     1       1.717  -1.875  -0.025  0.00  0.00    +0.233 C 
BRANCH  11  16
ATOM     12  C   UNL     1      -1.250   2.203   0.020  0.00  0.00    +0.086 C 
ATOM     13  C   UNL     1      -0.016   1.339   0.009  0.00  0.00    +0.102 A 
ATOM     14  C   UNL     1       1.254   1.781  -0.000  0.00  0.00    +0.045 A 
ATOM     15  C   UNL     1       2.086   0.638  -0.014  0.00  0.00    +0.047 A 
ATOM     16  C   UNL     1       1.274  -0.435  -0.012  0.00  0.00    +0.135 A 
ATOM     17  O   UNL     1       0.002  -0.004   0.002  0.00  0.00    -0.462 OA
ENDBRANCH  11  16
BRANCH  11  18
ATOM     18  C   UNL     1       1.615  -2.420  -1.426  0.00  0.00    +0.242 C 
ATOM     19  O   UNL     1       0.896  -3.369  -1.657  0.00  0.00    -0.273 OA
ATOM     20  N   UNL     1       2.323  -1.853  -2.423  0.00  0.00    -0.311 N 
ATOM     21  H   UNL     1       2.899  -1.094  -2.238  0.00  0.00    +0.149 HD
BRANCH  20  22
ATOM     22  C   UNL     1       2.224  -2.382  -3.785  0.00  0.00    +0.073 C 
ATOM     23  C   UNL     1       3.254  -3.513  -3.989  0.00  0.00    +0.022 C 
ATOM     24  C   UNL     1       3.741  -3.324  -5.447  0.00  0.00    +0.002 C 
ATOM     25  C   UNL     1       3.799  -1.783  -5.593  0.00  0.00    +0.002 C 
ATOM     26  C   UNL     1       2.570  -1.283  -4.805  0.00  0.00    +0.022 C 
ENDBRANCH  20  22
ENDBRANCH  11  18
ENDBRANCH   1  11
BRANCH   2  27
ATOM     27  C   UNL     1       0.511  -4.118   2.833  0.00  0.00    +0.264 C 
BRANCH  27  28
ATOM     28  N   UNL     1       1.327  -4.727   3.886  0.00  0.00    -0.154 N 
ATOM     29  N   UNL     1       1.883  -5.888   3.820  0.00  0.00    -0.130 NA
ATOM     30  C   UNL     1       2.532  -6.089   4.950  0.00  0.00    +0.205 A 
ATOM     31  N   UNL     1       2.335  -4.999   5.705  0.00  0.00    -0.108 NA
ATOM     32  N   UNL     1       1.595  -4.190   5.025  0.00  0.00    -0.045 NA
BRANCH  30  33
ATOM     33  C   UNL     1       3.322  -7.291   5.317  0.00  0.00    +0.023 A 
ATOM     34  C   UNL     1       3.432  -8.354   4.423  0.00  0.00    +0.014 A 
ATOM     35  C   UNL     1       4.172  -9.467   4.766  0.00  0.00    +0.039 A 
ATOM     36  C   UNL     1       4.796  -9.533   6.001  0.00  0.00    +0.123 A 
ATOM     37  C   UNL     1       4.685  -8.480   6.895  0.00  0.00    +0.039 A 
ATOM     38  C   UNL     1       3.952  -7.361   6.558  0.00  0.00    +0.014 A 
ATOM     39  F   UNL     1       5.515 -10.627   6.335  0.00  0.00    -0.205 F 
ENDBRANCH  30  33
ENDBRANCH  27  28
ENDBRANCH   2  27
TORSDOF 8
