REMARK  Name = ZINC64178525
REMARK  7 active torsions:
REMARK  status: ('A' for Active; 'I' for Inactive)
REMARK    1  A    between atoms: C_1  and  C_2
REMARK    2  A    between atoms: C_2  and  C_4
REMARK    3  A    between atoms: C_2  and  S_19
REMARK    4  A    between atoms: C_9  and  C_14
REMARK    5  A    between atoms: S_19  and  C_20
REMARK    6  A    between atoms: N_25  and  C_26
REMARK    7  A    between atoms: C_26  and  C_27
REMARK                            x       y       z     vdW  Elec       q    Type
REMARK                         _______ _______ _______ _____ _____    ______ ____
ROOT
ATOM      1  C   UNL     1      -0.135   1.737  -0.406  0.00  0.00    +0.027 C 
ATOM      2  C   UNL     1      -0.099   0.212  -0.295  0.00  0.00    +0.112 C 
ENDROOT
BRANCH   2   3
ATOM      3  C   UNL     1       0.817  -0.188   0.832  0.00  0.00    +0.136 C 
ATOM      4  N   UNL     1       0.351  -0.971   1.780  0.00  0.00    -0.160 NA
ATOM      5  C   UNL     1       1.109  -1.364   2.807  0.00  0.00    +0.272 C 
ATOM      6  O   UNL     1       0.654  -2.092   3.676  0.00  0.00    -0.268 OA
ATOM      7  C   UNL     1       2.521  -0.895   2.868  0.00  0.00    +0.078 C 
ATOM      8  C   UNL     1       3.463  -1.188   3.843  0.00  0.00    +0.020 C 
ATOM      9  C   UNL     1       4.835  -0.577   3.662  0.00  0.00    +0.115 C 
ATOM     10  S   UNL     1       4.608   0.357   2.096  0.00  0.00    -0.100 S 
ATOM     11  C   UNL     1       2.908  -0.055   1.789  0.00  0.00    +0.112 C 
ATOM     12  N   UNL     1       2.062   0.256   0.829  0.00  0.00    -0.226 NA
BRANCH   8  13
ATOM     13  C   UNL     1       3.161  -2.007   4.937  0.00  0.00    +0.132 A 
ATOM     14  C   UNL     1       3.723  -3.248   5.214  0.00  0.00    +0.049 A 
ATOM     15  C   UNL     1       3.128  -3.697   6.396  0.00  0.00    +0.042 A 
ATOM     16  C   UNL     1       2.247  -2.744   6.791  0.00  0.00    +0.195 A 
ATOM     17  O   UNL     1       2.273  -1.731   5.918  0.00  0.00    -0.463 OA
ENDBRANCH   8  13
ENDBRANCH   2   3
BRANCH   2  18
ATOM     18  S   UNL     1      -1.771  -0.410   0.035  0.00  0.00    -0.106 S 
BRANCH  18  19
ATOM     19  C   UNL     1      -2.678  -0.066  -1.497  0.00  0.00    +0.256 C 
ATOM     20  N   UNL     1      -3.155   1.329  -1.520  0.00  0.00    -0.218 N 
ATOM     21  N   UNL     1      -4.552   1.256  -1.578  0.00  0.00    -0.063 NA
ATOM     22  N   UNL     1      -4.965   0.100  -1.593  0.00  0.00    -0.060 NA
ATOM     23  N   UNL     1      -3.929  -0.847  -1.550  0.00  0.00    -0.198 N 
ATOM     24  H   UNL     1      -2.613   2.133  -1.498  0.00  0.00    +0.173 HD
BRANCH  23  25
ATOM     25  C   UNL     1      -4.059  -2.306  -1.557  0.00  0.00    +0.204 C 
BRANCH  25  26
ATOM     26  C   UNL     1      -4.174  -2.806  -0.140  0.00  0.00    +0.124 A 
ATOM     27  C   UNL     1      -5.319  -2.957   0.551  0.00  0.00    +0.046 A 
ATOM     28  C   UNL     1      -4.964  -3.447   1.829  0.00  0.00    +0.041 A 
ATOM     29  C   UNL     1      -3.624  -3.566   1.843  0.00  0.00    +0.195 A 
ATOM     30  O   UNL     1      -3.152  -3.182   0.646  0.00  0.00    -0.466 OA
ENDBRANCH  25  26
ENDBRANCH  23  25
ENDBRANCH  18  19
ENDBRANCH   2  18
TORSDOF 6
