REMARK  Name = ZINC38479344
REMARK  9 active torsions:
REMARK  status: ('A' for Active; 'I' for Inactive)
REMARK    1  A    between atoms: C_1  and  C_2
REMARK    2  A    between atoms: C_2  and  O_3
REMARK    3  A    between atoms: O_3  and  C_4
REMARK    4  A    between atoms: C_4  and  C_6
REMARK    5  A    between atoms: C_10  and  N_11
REMARK    6  A    between atoms: C_12  and  C_14
REMARK    7  A    between atoms: C_14  and  C_16
REMARK    8  A    between atoms: C_14  and  N_17
REMARK    9  A    between atoms: C_22  and  C_24
REMARK                            x       y       z     vdW  Elec       q    Type
REMARK                         _______ _______ _______ _____ _____    ______ ____
ROOT
ATOM      1  C   UNL     1      -2.590  -2.597  -5.387  0.00  0.00    +0.194 C 
ATOM      2  C   UNL     1      -2.959  -1.122  -5.216  0.00  0.00    +0.043 C 
ENDROOT
BRANCH   1   3
ATOM      3  N   UNL     1      -2.898  -3.022  -6.754  0.00  0.00    -0.217 N 
ATOM      4  C   UNL     1      -3.783  -4.018  -6.947  0.00  0.00    +0.268 A 
ATOM      5  O   UNL     1      -4.320  -4.557  -5.993  0.00  0.00    -0.266 OA
ATOM      6  C   UNL     1      -4.087  -4.434  -8.263  0.00  0.00    +0.074 A 
ATOM      7  C   UNL     1      -3.459  -3.800  -9.294  0.00  0.00    +0.035 A 
ATOM      8  C   UNL     1      -2.545  -2.765  -8.986  0.00  0.00    +0.092 A 
ATOM      9  N   UNL     1      -2.320  -2.432  -7.737  0.00  0.00    -0.168 NA
BRANCH   8  10
ATOM     10  C   UNL     1      -1.843  -2.050 -10.079  0.00  0.00    +0.006 A 
ATOM     11  C   UNL     1      -0.937  -1.034  -9.780  0.00  0.00    +0.014 A 
ATOM     12  C   UNL     1      -0.284  -0.370 -10.798  0.00  0.00    +0.050 A 
ATOM     13  C   UNL     1      -0.525  -0.710 -12.121  0.00  0.00    +0.166 A 
ATOM     14  C   UNL     1      -1.430  -1.726 -12.426  0.00  0.00    +0.167 A 
ATOM     15  C   UNL     1      -2.083  -2.398 -11.408  0.00  0.00    +0.059 A 
ATOM     16  O   UNL     1      -1.488  -1.865 -13.783  0.00  0.00    -0.453 OA
ATOM     17  C   UNL     1      -0.922  -0.655 -14.318  0.00  0.00    +0.466 C 
ATOM     18  O   UNL     1      -0.018  -0.215 -13.287  0.00  0.00    -0.453 OA
ENDBRANCH   8  10
ENDBRANCH   1   3
BRANCH   1  20
ATOM     19  N   UNL     1      -0.603  -2.454  -3.921  0.00  0.00    -0.278 N 
ATOM     20  C   UNL     1      -1.118  -2.781  -5.122  0.00  0.00    +0.242 C 
ATOM     21  O   UNL     1      -0.397  -3.224  -5.991  0.00  0.00    -0.273 OA
ATOM     22  H   UNL     1      -1.180  -2.100  -3.226  0.00  0.00    +0.155 HD
BRANCH  19  27
ATOM     23  C   UNL     1       1.449  -2.344  -2.516  0.00  0.00    +0.091 A 
ATOM     24  C   UNL     1       2.885  -2.621  -2.515  0.00  0.00    -0.021 A 
ATOM     25  C   UNL     1       3.349  -3.116  -3.676  0.00  0.00    -0.004 A 
ATOM     26  S   UNL     1       1.922  -3.210  -4.726  0.00  0.00    -0.077 S 
ATOM     27  C   UNL     1       0.751  -2.623  -3.678  0.00  0.00    +0.086 A 
ATOM     28  C   UNL     1       4.830  -3.378  -3.621  0.00  0.00    +0.043 C 
ATOM     29  C   UNL     1       5.324  -2.577  -2.396  0.00  0.00    +0.010 C 
ATOM     30  C   UNL     1       4.048  -2.505  -1.532  0.00  0.00    +0.037 C 
BRANCH  23  31
ATOM     31  C   UNL     1       0.776  -1.800  -1.335  0.00  0.00    +0.342 C 
ATOM     32  O   UNL     1       0.312  -2.552  -0.499  0.00  0.00    -0.245 OA
BRANCH  31  33
ATOM     33  O   UNL     1       0.671  -0.465  -1.174  0.00  0.00    -0.461 OA
BRANCH  33  35
ATOM     34  C   UNL     1      -0.019   1.526   0.010  0.00  0.00    +0.048 C 
ATOM     35  C   UNL     1       0.002  -0.004   0.002  0.00  0.00    +0.229 C 
ENDBRANCH  33  35
ENDBRANCH  31  33
ENDBRANCH  23  31
ENDBRANCH  19  27
ENDBRANCH   1  20
TORSDOF 7
