REMARK  Name = ZINC04516652
REMARK  6 active torsions:
REMARK  status: ('A' for Active; 'I' for Inactive)
REMARK    1  A    between atoms: C_1  and  C_2
REMARK    2  A    between atoms: C_2  and  C_4
REMARK    3  A    between atoms: C_2  and  O_7
REMARK    4  A    between atoms: O_7  and  C_8
REMARK    5  A    between atoms: C_8  and  C_10
REMARK    6  A    between atoms: C_23  and  C_24
REMARK                            x       y       z     vdW  Elec       q    Type
REMARK                         _______ _______ _______ _____ _____    ______ ____
ROOT
ATOM      1  C   UNL     1      -0.042   5.307   0.028  0.00  0.00    +0.073 A 
ATOM      2  C   UNL     1      -0.004   3.844   0.021  0.00  0.00    +0.015 A 
ATOM      3  C   UNL     1       1.204   3.141   0.006  0.00  0.00    +0.011 A 
ATOM      4  C   UNL     1       1.191   1.777   0.000  0.00  0.00    +0.001 A 
ATOM      5  C   UNL     1      -0.013   1.076   0.008  0.00  0.00    +0.002 A 
ATOM      6  C   UNL     1      -1.207   1.729   0.017  0.00  0.00    +0.028 A 
ATOM      7  C   UNL     1      -1.233   3.136   0.030  0.00  0.00    +0.072 A 
ATOM      8  N   UNL     1      -2.385   3.802   0.043  0.00  0.00    -0.247 NA
ATOM      9  C   UNL     1      -2.453   5.130   0.050  0.00  0.00    +0.072 A 
ATOM     10  C   UNL     1      -1.288   5.917   0.042  0.00  0.00    -0.007 A 
ATOM     11  C   UNL     1      -1.660   7.379   0.052  0.00  0.00    +0.043 C 
ATOM     12  C   UNL     1      -3.193   7.432   0.066  0.00  0.00    +0.042 C 
ATOM     13  C   UNL     1      -3.647   5.994   0.064  0.00  0.00    -0.018 C 
ATOM     14  C   UNL     1      -4.929   5.569   0.075  0.00  0.00    +0.052 C 
ENDROOT
BRANCH  14  15
ATOM     15  C   UNL     1      -6.021   6.542   0.089  0.00  0.00    +0.128 A 
ATOM     16  C   UNL     1      -7.357   6.251   0.096  0.00  0.00    +0.049 A 
ATOM     17  C   UNL     1      -8.038   7.480   0.112  0.00  0.00    +0.042 A 
ATOM     18  C   UNL     1      -7.103   8.453   0.107  0.00  0.00    +0.195 A 
ATOM     19  O   UNL     1      -5.887   7.884   0.093  0.00  0.00    -0.464 OA
ENDBRANCH  14  15
BRANCH   1  20
ATOM     20  C   UNL     1       1.202   6.105   0.019  0.00  0.00    +0.341 C 
ATOM     21  O   UNL     1       1.702   6.438  -1.036  0.00  0.00    -0.245 OA
BRANCH  20  22
ATOM     22  O   UNL     1       1.780   6.464   1.182  0.00  0.00    -0.449 OA
BRANCH  22  24
ATOM     23  C   UNL     1       4.207   6.309   1.055  0.00  0.00    +0.062 C 
ATOM     24  C   UNL     1       2.999   7.248   1.098  0.00  0.00    +0.259 C 
BRANCH  24  25
ATOM     25  C   UNL     1       3.103   8.146   2.303  0.00  0.00    +0.251 C 
ATOM     26  O   UNL     1       2.284   8.064   3.194  0.00  0.00    -0.272 OA
ATOM     27  N   UNL     1       4.107   9.041   2.392  0.00  0.00    -0.326 N 
ATOM     28  H   UNL     1       4.762   9.107   1.679  0.00  0.00    +0.145 HD
ATOM     29  H   UNL     1       4.174   9.620   3.167  0.00  0.00    +0.145 HD
ENDBRANCH  24  25
ENDBRANCH  22  24
ENDBRANCH  20  22
ENDBRANCH   1  20
TORSDOF 5
