REMARK  Name = ZINC48237132
REMARK  5 active torsions:
REMARK  status: ('A' for Active; 'I' for Inactive)
REMARK    1  A    between atoms: C_6  and  S_7
REMARK    2  A    between atoms: S_7  and  N_10
REMARK    3  A    between atoms: N_10  and  C_11
REMARK    4  A    between atoms: C_11  and  C_12
REMARK    5  A    between atoms: C_16  and  C_17
REMARK                            x       y       z     vdW  Elec       q    Type
REMARK                         _______ _______ _______ _____ _____    ______ ____
ROOT
ATOM      1  C   UNL     1       0.147   1.113  -1.767  0.00  0.00    +0.030 A 
ATOM      2  C   UNL     1       1.265   1.888  -1.531  0.00  0.00    +0.026 A 
ATOM      3  C   UNL     1       2.439   1.298  -1.076  0.00  0.00    +0.042 A 
ATOM      4  C   UNL     1       2.467  -0.087  -0.863  0.00  0.00    +0.010 A 
ATOM      5  C   UNL     1       1.336  -0.859  -1.105  0.00  0.00    +0.039 A 
ATOM      6  C   UNL     1       0.179  -0.255  -1.556  0.00  0.00    +0.106 A 
ATOM      7  C   UNL     1       3.832  -0.407  -0.388  0.00  0.00    +0.047 C 
ATOM      8  C   UNL     1       4.334  -1.651  -0.049  0.00  0.00    +0.028 C 
ATOM      9  C   UNL     1       4.537   0.879  -0.356  0.00  0.00    +0.249 C 
ATOM     10  O   UNL     1       5.695   1.052  -0.018  0.00  0.00    -0.270 OA
ATOM     11  N   UNL     1       3.682   1.833  -0.764  0.00  0.00    -0.281 N 
ATOM     12  H   UNL     1       3.906   2.774  -0.832  0.00  0.00    +0.155 HD
ENDROOT
BRANCH   8  13
ATOM     13  C   UNL     1       3.467  -2.755   0.059  0.00  0.00    +0.014 A 
ATOM     14  C   UNL     1       2.199  -2.824   0.635  0.00  0.00    +0.017 A 
ATOM     15  C   UNL     1       1.592  -4.053   0.587  0.00  0.00    +0.023 A 
ATOM     16  C   UNL     1       2.244  -5.090  -0.000  0.00  0.00    +0.055 A 
ATOM     17  S   UNL     1       3.700  -4.427  -0.513  0.00  0.00    -0.082 S 
ATOM     18 BR   UNL     1       1.646  -6.873  -0.202  0.00  0.00    -0.043 Br
ENDBRANCH   8  13
BRANCH   6  19
ATOM     19  S   UNL     1      -1.258  -1.227  -1.865  0.00  0.00    +0.059 S 
ATOM     20  O   UNL     1      -1.133  -2.399  -1.071  0.00  0.00    -0.153 OA
ATOM     21  O   UNL     1      -2.371  -0.351  -1.760  0.00  0.00    -0.153 OA
BRANCH  19  22
ATOM     22  N   UNL     1      -1.188  -1.717  -3.445  0.00  0.00    -0.179 NA
ATOM     23  H   UNL     1      -1.854  -1.406  -4.079  0.00  0.00    +0.149 HD
BRANCH  22  24
ATOM     24  C   UNL     1      -0.121  -2.619  -3.886  0.00  0.00    +0.230 C 
BRANCH  24  25
ATOM     25  C   UNL     1      -0.477  -3.198  -5.231  0.00  0.00    +0.371 C 
ATOM     26  O   UNL     1      -1.525  -2.887  -5.771  0.00  0.00    -0.245 OA
ATOM     27  O   UNL     1       0.283  -3.978  -5.779  0.00  0.00    -0.245 OA
ENDBRANCH  24  25
ENDBRANCH  22  24
ENDBRANCH  19  22
ENDBRANCH   6  19
TORSDOF 5
