REMARK  Name = ZINC23417378
REMARK  9 active torsions:
REMARK  status: ('A' for Active; 'I' for Inactive)
REMARK    1  A    between atoms: C_1  and  C_2
REMARK    2  A    between atoms: C_5  and  S_8
REMARK    3  A    between atoms: S_8  and  C_11
REMARK    4  A    between atoms: C_14  and  N_17
REMARK    5  A    between atoms: N_17  and  N_18
REMARK    6  A    between atoms: C_19  and  C_21
REMARK    7  A    between atoms: C_24  and  C_29
REMARK    8  A    between atoms: C_25  and  O_27
REMARK    9  A    between atoms: O_27  and  C_28
REMARK                            x       y       z     vdW  Elec       q    Type
REMARK                         _______ _______ _______ _____ _____    ______ ____
ROOT
ATOM      1  C   UNL     1      -8.488   1.734   0.090  0.00  0.00    +0.094 A 
ATOM      2  C   UNL     1      -8.507   3.117   0.097  0.00  0.00    +0.029 A 
ATOM      3  C   UNL     1      -7.322   3.826   0.090  0.00  0.00    +0.026 A 
ATOM      4  C   UNL     1      -6.109   3.148   0.075  0.00  0.00    +0.045 A 
ATOM      5  C   UNL     1      -6.093   1.759   0.062  0.00  0.00    +0.026 A 
ATOM      6  C   UNL     1      -7.282   1.057   0.075  0.00  0.00    +0.029 A 
ENDROOT
BRANCH   1   7
ATOM      7  S   UNL     1     -10.002   0.834   0.100  0.00  0.00    +0.025 S 
ATOM      8  O   UNL     1      -9.710  -0.447   0.642  0.00  0.00    -0.164 OA
ATOM      9  O   UNL     1     -10.982   1.694   0.665  0.00  0.00    -0.164 OA
BRANCH   7  14
ATOM     10  C   UNL     1     -11.591  -0.048  -5.653  0.00  0.00    +0.044 C 
ATOM     11  C   UNL     1     -11.195   0.172  -4.216  0.00  0.00    -0.050 A 
ATOM     12  C   UNL     1     -10.401  -0.756  -3.568  0.00  0.00    +0.005 A 
ATOM     13  C   UNL     1     -10.037  -0.554  -2.250  0.00  0.00    +0.027 A 
ATOM     14  C   UNL     1     -10.466   0.576  -1.580  0.00  0.00    +0.094 A 
ATOM     15  C   UNL     1     -11.265   1.501  -2.226  0.00  0.00    +0.027 A 
ATOM     16  C   UNL     1     -11.625   1.301  -3.546  0.00  0.00    +0.005 A 
ENDBRANCH   7  14
ENDBRANCH   1   7
BRANCH   4  17
ATOM     17  N   UNL     1      -4.909   3.862   0.068  0.00  0.00    -0.264 N 
ATOM     18  H   UNL     1      -4.923   4.962   0.073  0.00  0.00    +0.170 HD
BRANCH  17  19
ATOM     19  N   UNL     1      -3.687   3.177   0.053  0.00  0.00    -0.232 N 
ATOM     20  C   UNL     1      -2.528   3.866   0.046  0.00  0.00    +0.260 C 
ATOM     21  O   UNL     1      -2.544   5.081   0.052  0.00  0.00    -0.269 OA
ATOM     22  H   UNL     1      -3.673   2.077   0.047  0.00  0.00    +0.173 HD
BRANCH  20  23
ATOM     23  C   UNL     1      -1.238   3.143   0.030  0.00  0.00    +0.042 A 
ATOM     24  C   UNL     1      -1.218   1.747   0.017  0.00  0.00    +0.013 A 
ATOM     25  C   UNL     1      -0.013   1.076   0.008  0.00  0.00    +0.007 A 
ATOM     26  C   UNL     1       1.177   1.781   0.000  0.00  0.00    -0.009 A 
ATOM     27  C   UNL     1       1.166   3.169   0.007  0.00  0.00    +0.124 A 
ATOM     28  C   UNL     1      -0.038   3.853   0.022  0.00  0.00    +0.059 A 
ATOM     29  C   UNL     1       2.489   1.041  -0.016  0.00  0.00    +0.047 C 
BRANCH  27  30
ATOM     30  O   UNL     1       2.338   3.858   0.000  0.00  0.00    -0.495 OA
ATOM     31  C   UNL     1       2.253   5.284   0.008  0.00  0.00    +0.277 C 
ENDBRANCH  27  30
ENDBRANCH  20  23
ENDBRANCH  17  19
ENDBRANCH   4  17
TORSDOF 6
