REMARK  Name = ZINC67196115
REMARK  9 active torsions:
REMARK  status: ('A' for Active; 'I' for Inactive)
REMARK    1  A    between atoms: C_2  and  C_3
REMARK    2  A    between atoms: C_7  and  N_9
REMARK    3  A    between atoms: N_9  and  C_10
REMARK    4  A    between atoms: C_10  and  N_12
REMARK    5  A    between atoms: N_12  and  N_13
REMARK    6  A    between atoms: C_14  and  C_16
REMARK    7  A    between atoms: C_16  and  N_17
REMARK    8  A    between atoms: C_18  and  C_20
REMARK    9  A    between atoms: C_23  and  C_26
REMARK                            x       y       z     vdW  Elec       q    Type
REMARK                         _______ _______ _______ _____ _____    ______ ____
ROOT
ATOM      1  N   UNL     1       4.702   5.605  -0.242  0.00  0.00    -0.234 N 
ATOM      2  C   UNL     1       5.854   6.294  -0.358  0.00  0.00    +0.246 C 
ATOM      3  O   UNL     1       5.832   7.503  -0.443  0.00  0.00    -0.273 OA
ATOM      4  H   UNL     1       4.720   4.637  -0.174  0.00  0.00    +0.173 HD
ENDROOT
BRANCH   1   5
ATOM      5  N   UNL     1       3.478   6.286  -0.221  0.00  0.00    -0.246 N 
ATOM      6  H   UNL     1       3.459   7.253  -0.289  0.00  0.00    +0.172 HD
BRANCH   5   7
ATOM      7  C   UNL     1       2.325   5.597  -0.105  0.00  0.00    +0.151 C 
ATOM      8  S   UNL     1       0.829   6.429  -0.079  0.00  0.00    -0.017 S 
BRANCH   7   9
ATOM      9  N   UNL     1       2.350   4.253  -0.011  0.00  0.00    -0.296 N 
ATOM     10  H   UNL     1       3.198   3.787   0.056  0.00  0.00    +0.154 HD
BRANCH   9  15
ATOM     11  C   UNL     1      -1.062   3.155  -0.868  0.00  0.00    +0.026 A 
ATOM     12  C   UNL     1      -1.217   2.083   0.012  0.00  0.00    +0.017 A 
ATOM     13  C   UNL     1      -0.193   1.742   0.871  0.00  0.00    +0.003 A 
ATOM     14  C   UNL     1       0.989   2.459   0.864  0.00  0.00    +0.023 A 
ATOM     15  C   UNL     1       1.153   3.529  -0.008  0.00  0.00    +0.034 A 
ATOM     16  C   UNL     1       0.131   3.875  -0.879  0.00  0.00    +0.040 A 
BRANCH  11  18
ATOM     17  C   UNL     1      -2.995   3.803  -2.492  0.00  0.00    +0.009 C 
ATOM     18  C   UNL     1      -2.124   3.511  -1.760  0.00  0.00    -0.070 C 
ENDBRANCH  11  18
ENDBRANCH   9  15
ENDBRANCH   7   9
ENDBRANCH   5   7
ENDBRANCH   1   5
BRANCH   2  19
ATOM     19  C   UNL     1       7.171   5.561  -0.381  0.00  0.00    +0.202 C 
BRANCH  19  20
ATOM     20  N   UNL     1       8.265   6.527  -0.513  0.00  0.00    -0.303 N 
ATOM     21  C   UNL     1       9.541   6.098  -0.555  0.00  0.00    +0.244 C 
ATOM     22  O   UNL     1       9.786   4.909  -0.484  0.00  0.00    -0.270 OA
ATOM     23  H   UNL     1       8.070   7.476  -0.570  0.00  0.00    +0.150 HD
BRANCH  21  24
ATOM     24  C   UNL     1      10.646   7.073  -0.688  0.00  0.00    +0.037 A 
ATOM     25  C   UNL     1      10.366   8.438  -0.764  0.00  0.00    +0.014 A 
ATOM     26  C   UNL     1      11.394   9.347  -0.888  0.00  0.00    +0.019 A 
ATOM     27  C   UNL     1      12.717   8.901  -0.938  0.00  0.00    +0.052 A 
ATOM     28  C   UNL     1      12.996   7.535  -0.862  0.00  0.00    +0.019 A 
ATOM     29  C   UNL     1      11.968   6.628  -0.732  0.00  0.00    +0.014 A 
BRANCH  27  30
ATOM     30  C   UNL     1      13.786   9.845  -1.067  0.00  0.00    +0.099 C 
ATOM     31  N   UNL     1      14.634  10.594  -1.170  0.00  0.00    -0.191 NA
ENDBRANCH  27  30
ENDBRANCH  21  24
ENDBRANCH  19  20
ENDBRANCH   2  19
TORSDOF 9
