REMARK  Name = ZINC28719897
REMARK  10 active torsions:
REMARK  status: ('A' for Active; 'I' for Inactive)
REMARK    1  A    between atoms: C_1  and  C_2
REMARK    2  A    between atoms: C_7  and  C_8
REMARK    3  A    between atoms: N_10  and  C_11
REMARK    4  A    between atoms: C_11  and  C_13
REMARK    5  A    between atoms: C_11  and  C_16
REMARK    6  A    between atoms: C_13  and  C_14
REMARK    7  A    between atoms: C_13  and  C_15
REMARK    8  A    between atoms: N_18  and  N_19
REMARK    9  A    between atoms: C_20  and  C_22
REMARK   10  A    between atoms: N_26  and  C_27
REMARK                            x       y       z     vdW  Elec       q    Type
REMARK                         _______ _______ _______ _____ _____    ______ ____
ROOT
ATOM      1  C   UNL     1       0.325  -0.369   5.503  0.00  0.00    +0.163 C 
ENDROOT
BRANCH   1   4
ATOM      2  C   UNL     1      -0.266  -0.519   3.144  0.00  0.00    +0.245 C 
ATOM      3  O   UNL     1      -0.714   0.609   3.215  0.00  0.00    -0.270 OA
ATOM      4  N   UNL     1       0.276  -1.099   4.233  0.00  0.00    -0.300 N 
ATOM      5  H   UNL     1       0.633  -1.999   4.177  0.00  0.00    +0.150 HD
BRANCH   2  12
ATOM      6  C   UNL     1      -1.682   0.622   0.893  0.00  0.00    +0.044 C 
ATOM      7  C   UNL     1      -0.996  -0.715   0.770  0.00  0.00    -0.038 A 
ATOM      8  C   UNL     1      -1.034  -1.404  -0.424  0.00  0.00    +0.004 A 
ATOM      9  C   UNL     1      -0.405  -2.631  -0.539  0.00  0.00    +0.000 A 
ATOM     10  C   UNL     1       0.266  -3.175   0.542  0.00  0.00    +0.001 A 
ATOM     11  C   UNL     1       0.312  -2.496   1.742  0.00  0.00    +0.013 A 
ATOM     12  C   UNL     1      -0.316  -1.255   1.863  0.00  0.00    +0.040 A 
ENDBRANCH   2  12
ENDBRANCH   1   4
BRANCH   1  13
ATOM     13  C   UNL     1       1.452  -0.906   6.347  0.00  0.00    +0.250 C 
ATOM     14  O   UNL     1       1.916  -2.002   6.114  0.00  0.00    -0.272 OA
ATOM     15  N   UNL     1       1.945  -0.168   7.361  0.00  0.00    -0.233 N 
ATOM     16  H   UNL     1       1.524   0.673   7.598  0.00  0.00    +0.173 HD
BRANCH  15  17
ATOM     17  N   UNL     1       3.066  -0.615   8.073  0.00  0.00    -0.229 N 
ATOM     18  C   UNL     1       3.559   0.123   9.087  0.00  0.00    +0.277 C 
ATOM     19  O   UNL     1       2.965   1.118   9.460  0.00  0.00    -0.267 OA
ATOM     20  H   UNL     1       3.487  -1.456   7.836  0.00  0.00    +0.173 HD
BRANCH  18  21
ATOM     21  C   UNL     1       4.811  -0.272   9.741  0.00  0.00    +0.107 A 
ATOM     22  C   UNL     1       5.632  -1.315   9.367  0.00  0.00    +0.047 A 
ATOM     23  C   UNL     1       6.708  -1.332  10.260  0.00  0.00    +0.036 A 
ATOM     24  C   UNL     1       6.530  -0.321  11.145  0.00  0.00    +0.101 A 
ATOM     25  N   UNL     1       5.383   0.333  10.837  0.00  0.00    -0.345 N 
ATOM     26  C   UNL     1       4.841   1.491  11.553  0.00  0.00    +0.149 C 
ATOM     27 BR   UNL     1       8.155  -2.549  10.236  0.00  0.00    -0.049 Br
ENDBRANCH  18  21
ENDBRANCH  15  17
ENDBRANCH   1  13
BRANCH   1  28
ATOM     28  C   UNL     1      -1.000  -0.550   6.247  0.00  0.00    +0.012 C 
ATOM     29  C   UNL     1      -2.127   0.108   5.448  0.00  0.00    +0.009 C 
ATOM     30  C   UNL     1      -1.293  -2.043   6.410  0.00  0.00    +0.009 C 
ENDBRANCH   1  28
TORSDOF 6
