REMARK  Name = ZINC36256882
REMARK  5 active torsions:
REMARK  status: ('A' for Active; 'I' for Inactive)
REMARK    1  A    between atoms: C_1  and  C_2
REMARK    2  A    between atoms: C_5  and  C_8
REMARK    3  A    between atoms: C_9  and  C_17
REMARK    4  A    between atoms: C_12  and  C_16
REMARK    5  A    between atoms: C_17  and  C_18
REMARK                            x       y       z     vdW  Elec       q    Type
REMARK                         _______ _______ _______ _____ _____    ______ ____
ROOT
ATOM      1  C   UNL     1      -0.088  -4.275   0.109  0.00  0.00    +0.094 A 
ATOM      2  C   UNL     1       0.775  -5.047   0.815  0.00  0.00    +0.065 A 
ATOM      3  N   UNL     1       0.662  -6.348   0.338  0.00  0.00    -0.296 N 
ATOM      4  C   UNL     1       1.217  -7.584   0.589  0.00  0.00    +0.104 A 
ATOM      5  C   UNL     1       0.840  -8.655  -0.106  0.00  0.00    +0.007 A 
ATOM      6  S   UNL     1      -0.380  -7.966  -1.214  0.00  0.00    -0.055 S 
ATOM      7  C   UNL     1      -0.286  -6.283  -0.651  0.00  0.00    +0.178 A 
ATOM      8  N   UNL     1      -0.727  -5.066  -0.778  0.00  0.00    -0.221 NA
ATOM      9  C   UNL     1       1.319 -10.079   0.011  0.00  0.00    +0.053 C 
ENDROOT
BRANCH   1  14
ATOM     10  C   UNL     1      -0.900   1.385   0.794  0.00  0.00    +0.044 C 
ATOM     11  C   UNL     1      -0.688  -0.096   0.615  0.00  0.00    -0.050 A 
ATOM     12  C   UNL     1       0.594  -0.616   0.640  0.00  0.00    +0.004 A 
ATOM     13  C   UNL     1       0.794  -1.972   0.476  0.00  0.00    +0.010 A 
ATOM     14  C   UNL     1      -0.297  -2.817   0.286  0.00  0.00    +0.002 A 
ATOM     15  C   UNL     1      -1.586  -2.288   0.262  0.00  0.00    +0.010 A 
ATOM     16  C   UNL     1      -1.775  -0.931   0.432  0.00  0.00    +0.004 A 
ENDBRANCH   1  14
BRANCH   2  17
ATOM     17  C   UNL     1       1.691  -4.579   1.916  0.00  0.00    +0.174 C 
BRANCH  17  18
ATOM     18  C   UNL     1       3.023  -4.292   1.357  0.00  0.00    +0.069 C 
ATOM     19  N   UNL     1       4.050  -4.071   0.927  0.00  0.00    -0.196 NA
ENDBRANCH  17  18
ENDBRANCH   2  17
TORSDOF 3
