REMARK  Name = ZINC17857175
REMARK  1 active torsions:
REMARK  status: ('A' for Active; 'I' for Inactive)
REMARK    1  A    between atoms: C_9  and  C_12
REMARK                            x       y       z     vdW  Elec       q    Type
REMARK                         _______ _______ _______ _____ _____    ______ ____
ROOT
ATOM      1  C   UNL     1      -0.019   1.526   0.010  0.00  0.00    +0.000 C 
ATOM      2  C   UNL     1       1.416   2.057  -0.000  0.00  0.00    +0.005 C 
ATOM      3  C   UNL     1       2.132   1.566  -1.261  0.00  0.00    +0.065 C 
ATOM      4  C   UNL     1       2.148   0.037  -1.275  0.00  0.00    +0.171 C 
ATOM      5  C   UNL     1       0.715  -0.497  -1.259  0.00  0.00    +0.065 C 
ATOM      6  C   UNL     1       0.002  -0.004   0.002  0.00  0.00    +0.005 C 
ATOM      7  O   UNL     1       2.850  -0.444  -0.116  0.00  0.00    -0.346 OA
ATOM      8  C   UNL     1       3.551  -1.625  -0.572  0.00  0.00    +0.199 C 
ATOM      9  C   UNL     1       3.947  -1.220  -2.014  0.00  0.00    +0.195 C 
ATOM     10  O   UNL     1       2.823  -0.428  -2.450  0.00  0.00    -0.339 OA
ENDROOT
BRANCH   9  11
ATOM     11  C   UNL     1       4.115  -2.458  -2.897  0.00  0.00    +0.276 C 
ATOM     12  C   UNL     1       4.503  -2.041  -4.304  0.00  0.00    +0.219 C 
ATOM     13  O   UNL     1       3.890  -1.334  -5.069  0.00  0.00    -0.290 OA
ATOM     14  C   UNL     1       5.844  -2.724  -4.524  0.00  0.00    +0.333 C 
ATOM     15  C   UNL     1       5.891  -3.769  -3.424  0.00  0.00    +0.348 C 
ATOM     16  O   UNL     1       5.179  -3.274  -2.394  0.00  0.00    -0.449 OA
ATOM     17  O   UNL     1       6.457  -4.836  -3.464  0.00  0.00    -0.247 OA
ATOM     18  O   UNL     1       5.889  -3.345  -5.810  0.00  0.00    -0.211 OA
ENDBRANCH   9  11
TORSDOF 1
