REMARK  Name = ZINC64239834
REMARK  9 active torsions:
REMARK  status: ('A' for Active; 'I' for Inactive)
REMARK    1  A    between atoms: C_1  and  C_2
REMARK    2  A    between atoms: C_2  and  C_3
REMARK    3  A    between atoms: C_2  and  C_4
REMARK    4  A    between atoms: C_2  and  N_25
REMARK    5  A    between atoms: C_4  and  N_5
REMARK    6  A    between atoms: N_8  and  C_9
REMARK    7  A    between atoms: C_9  and  C_10
REMARK    8  A    between atoms: N_25  and  C_26
REMARK    9  A    between atoms: N_25  and  C_27
REMARK                            x       y       z     vdW  Elec       q    Type
REMARK                         _______ _______ _______ _____ _____    ______ ____
ROOT
ATOM      1  C   UNL     1      -4.218  -4.165  -0.998  0.00  0.00    +0.142 C 
ENDROOT
BRANCH   1   2
ATOM      2  C   UNL     1      -4.087  -5.653  -1.195  0.00  0.00    -0.012 A 
ATOM      3  C   UNL     1      -3.845  -6.174  -2.459  0.00  0.00    +0.010 A 
ATOM      4  C   UNL     1      -3.732  -7.547  -2.596  0.00  0.00    +0.047 A 
ATOM      5  C   UNL     1      -3.863  -8.352  -1.471  0.00  0.00    +0.139 A 
ATOM      6  N   UNL     1      -4.093  -7.817  -0.282  0.00  0.00    -0.237 NA
ATOM      7  C   UNL     1      -4.201  -6.512  -0.120  0.00  0.00    +0.118 A 
ATOM      8  N   UNL     1      -3.751  -9.738  -1.595  0.00  0.00    -0.283 N 
ATOM      9  C   UNL     1      -3.510 -10.431  -2.745  0.00  0.00    +0.206 A 
ATOM     10  N   UNL     1      -3.468 -11.707  -2.498  0.00  0.00    -0.235 NA
ATOM     11  C   UNL     1      -3.677 -11.924  -1.173  0.00  0.00    +0.089 A 
ATOM     12  C   UNL     1      -3.857 -10.665  -0.574  0.00  0.00    +0.075 A 
ATOM     13  C   UNL     1      -4.087 -10.575   0.791  0.00  0.00    +0.028 A 
ATOM     14  C   UNL     1      -4.136 -11.721   1.556  0.00  0.00    +0.002 A 
ATOM     15  C   UNL     1      -3.957 -12.966   0.970  0.00  0.00    +0.002 A 
ATOM     16  C   UNL     1      -3.735 -13.075  -0.384  0.00  0.00    +0.030 A 
ENDBRANCH   1   2
BRANCH   1  20
ATOM     17  N   UNL     1      -1.558  -1.740  -0.246  0.00  0.00    -0.301 N 
ATOM     18  C   UNL     1      -2.771  -2.267  -0.505  0.00  0.00    +0.300 C 
ATOM     19  O   UNL     1      -3.751  -1.548  -0.546  0.00  0.00    -0.253 OA
ATOM     20  N   UNL     1      -2.899  -3.592  -0.717  0.00  0.00    -0.295 N 
ATOM     21  H   UNL     1      -0.777  -2.314  -0.213  0.00  0.00    +0.150 HD
ATOM     22  H   UNL     1      -2.118  -4.166  -0.684  0.00  0.00    +0.151 HD
BRANCH  17  23
ATOM     23  C   UNL     1      -1.419  -0.300  -0.016  0.00  0.00    +0.093 C 
BRANCH  23  25
ATOM     24  C   UNL     1       0.811  -0.220  -1.140  0.00  0.00    -0.008 C 
ATOM     25  C   UNL     1       0.060   0.047   0.166  0.00  0.00    -0.056 C 
ATOM     26  C   UNL     1       0.195   1.525   0.539  0.00  0.00    -0.008 C 
BRANCH  25  27
ATOM     27  N   UNL     1       0.629  -0.781   1.237  0.00  0.00    +0.380 N 
ATOM     28  C   UNL     1       2.044  -0.433   1.426  0.00  0.00    -0.096 C 
ATOM     29  C   UNL     1      -0.106  -0.541   2.486  0.00  0.00    -0.096 C 
ATOM     30  H   UNL     1       0.554  -1.756   0.985  0.00  0.00    -0.082 HD
ENDBRANCH  25  27
ENDBRANCH  23  25
ENDBRANCH  17  23
ENDBRANCH   1  20
TORSDOF 5
