REMARK  Name = ZINC00755104
REMARK  6 active torsions:
REMARK  status: ('A' for Active; 'I' for Inactive)
REMARK    1  A    between atoms: C_3  and  O_22
REMARK    2  A    between atoms: C_6  and  C_7
REMARK    3  A    between atoms: C_9  and  C_20
REMARK    4  A    between atoms: C_10  and  N_19
REMARK    5  A    between atoms: O_22  and  C_23
REMARK    6  A    between atoms: C_26  and  N_30
REMARK                            x       y       z     vdW  Elec       q    Type
REMARK                         _______ _______ _______ _____ _____    ______ ____
ROOT
ATOM      1  C   UNL     1      -1.326  -2.027   0.298  0.00  0.00    +0.008 A 
ATOM      2  C   UNL     1      -1.282  -0.649   0.223  0.00  0.00    +0.046 A 
ATOM      3  C   UNL     1      -0.063  -0.001   0.084  0.00  0.00    +0.129 A 
ATOM      4  C   UNL     1       1.109  -0.742   0.016  0.00  0.00    +0.046 A 
ATOM      5  C   UNL     1       1.060  -2.120   0.097  0.00  0.00    +0.008 A 
ATOM      6  C   UNL     1      -0.157  -2.762   0.235  0.00  0.00    -0.034 A 
ENDROOT
BRANCH   6   7
ATOM      7  C   UNL     1      -0.208  -4.266   0.317  0.00  0.00    +0.101 C 
ATOM      8  C   UNL     1       0.375  -4.854  -0.938  0.00  0.00    +0.098 C 
ATOM      9  C   UNL     1       1.636  -5.351  -0.940  0.00  0.00    +0.198 C 
ATOM     10  O   UNL     1       2.398  -5.329   0.165  0.00  0.00    -0.445 OA
ATOM     11  C   UNL     1       1.821  -5.225   1.377  0.00  0.00    +0.115 C 
ATOM     12  C   UNL     1       0.578  -4.729   1.520  0.00  0.00    +0.046 C 
ATOM     13  C   UNL     1      -0.028  -4.629   2.787  0.00  0.00    +0.163 C 
ATOM     14  O   UNL     1      -1.146  -4.161   2.878  0.00  0.00    -0.292 OA
ATOM     15  C   UNL     1       0.683  -5.090   4.030  0.00  0.00    +0.080 C 
ATOM     16  C   UNL     1       1.662  -6.207   3.654  0.00  0.00    +0.016 C 
ATOM     17  C   UNL     1       2.614  -5.677   2.580  0.00  0.00    +0.075 C 
BRANCH   9  18
ATOM     18  N   UNL     1       2.145  -5.887  -2.096  0.00  0.00    -0.328 N 
ATOM     19  H   UNL     1       1.603  -5.908  -2.900  0.00  0.00    +0.145 HD
ATOM     20  H   UNL     1       3.046  -6.246  -2.109  0.00  0.00    +0.145 HD
ENDBRANCH   9  18
BRANCH   8  21
ATOM     21  C   UNL     1      -0.406  -4.889  -2.137  0.00  0.00    +0.101 C 
ATOM     22  N   UNL     1      -1.025  -4.917  -3.089  0.00  0.00    -0.191 NA
ENDBRANCH   8  21
ENDBRANCH   6   7
BRANCH   3  23
ATOM     23  O   UNL     1      -0.016   1.355   0.009  0.00  0.00    -0.455 OA
BRANCH  23  24
ATOM     24  C   UNL     1      -0.354   2.067   1.117  0.00  0.00    +0.147 A 
ATOM     25  C   UNL     1      -0.606   1.412   2.314  0.00  0.00    +0.050 A 
ATOM     26  C   UNL     1      -0.949   2.138   3.438  0.00  0.00    +0.036 A 
ATOM     27  C   UNL     1      -1.040   3.516   3.372  0.00  0.00    +0.128 A 
ATOM     28  C   UNL     1      -0.789   4.172   2.181  0.00  0.00    +0.056 A 
ATOM     29  C   UNL     1      -0.441   3.451   1.054  0.00  0.00    +0.085 A 
ATOM     30 CL   UNL     1      -0.120   4.275  -0.440  0.00  0.00    -0.080 Cl
BRANCH  27  31
ATOM     31  N   UNL     1      -1.407   4.291   4.579  0.00  0.00    +0.056 N 
ATOM     32  O   UNL     1      -1.628   3.714   5.629  0.00  0.00    -0.126 OA
ATOM     33  O   UNL     1      -1.488   5.505   4.522  0.00  0.00    -0.126 OA
ENDBRANCH  27  31
ENDBRANCH  23  24
ENDBRANCH   3  23
TORSDOF 6
