REMARK  Name = ZINC39358417
REMARK  9 active torsions:
REMARK  status: ('A' for Active; 'I' for Inactive)
REMARK    1  A    between atoms: C_1  and  C_2
REMARK    2  A    between atoms: C_3  and  C_7
REMARK    3  A    between atoms: N_9  and  C_10
REMARK    4  A    between atoms: N_9  and  C_11
REMARK    5  A    between atoms: C_11  and  C_13
REMARK    6  A    between atoms: C_11  and  C_20
REMARK    7  A    between atoms: C_13  and  C_14
REMARK    8  A    between atoms: N_23  and  C_26
REMARK    9  A    between atoms: C_26  and  C_27
REMARK                            x       y       z     vdW  Elec       q    Type
REMARK                         _______ _______ _______ _____ _____    ______ ____
ROOT
ATOM      1  C   UNL     1      -5.789  -1.570   0.443  0.00  0.00    +0.006 C 
ATOM      2  C   UNL     1      -7.253  -1.131   0.533  0.00  0.00    -0.013 C 
ATOM      3  C   UNL     1      -7.978  -1.997   1.565  0.00  0.00    -0.078 C 
ATOM      4  N   UNL     1      -7.338  -1.841   2.876  0.00  0.00    +0.380 N 
ATOM      5  C   UNL     1      -5.954  -2.328   2.816  0.00  0.00    -0.078 C 
ATOM      6  C   UNL     1      -5.152  -1.474   1.832  0.00  0.00    -0.013 C 
ATOM      7  H   UNL     1      -7.339  -0.866   3.136  0.00  0.00    -0.082 HD
ENDROOT
BRANCH   1   8
ATOM      8  C   UNL     1      -5.039  -0.657  -0.528  0.00  0.00    +0.083 C 
BRANCH   8  11
ATOM      9  C   UNL     1      -2.658  -0.211  -0.261  0.00  0.00    +0.250 C 
ATOM     10  O   UNL     1      -2.942   0.884   0.184  0.00  0.00    -0.270 OA
ATOM     11  N   UNL     1      -3.636  -1.072  -0.606  0.00  0.00    -0.297 N 
ATOM     12  C   UNL     1      -3.297  -2.424  -1.057  0.00  0.00    +0.132 C 
BRANCH   9  15
ATOM     13  C   UNL     1      -0.311   1.665  -1.162  0.00  0.00    +0.087 C 
ATOM     14  C   UNL     1      -0.211   0.202  -0.814  0.00  0.00    +0.114 A 
ATOM     15  C   UNL     1      -1.245  -0.598  -0.424  0.00  0.00    +0.077 A 
ATOM     16  C   UNL     1      -0.656  -1.926  -0.200  0.00  0.00    +0.054 A 
ATOM     17  C   UNL     1       0.652  -1.799  -0.471  0.00  0.00    +0.196 A 
ATOM     18  O   UNL     1       0.904  -0.533  -0.840  0.00  0.00    -0.467 OA
ENDBRANCH   9  15
ENDBRANCH   8  11
BRANCH   8  19
ATOM     19  C   UNL     1      -5.677  -0.754  -1.916  0.00  0.00    +0.058 C 
BRANCH  19  20
ATOM     20  C   UNL     1      -5.018   0.235  -2.842  0.00  0.00    -0.046 A 
ATOM     21  C   UNL     1      -5.519   1.520  -2.950  0.00  0.00    +0.004 A 
ATOM     22  C   UNL     1      -4.914   2.427  -3.800  0.00  0.00    +0.000 A 
ATOM     23  C   UNL     1      -3.810   2.051  -4.541  0.00  0.00    +0.000 A 
ATOM     24  C   UNL     1      -3.309   0.767  -4.432  0.00  0.00    +0.000 A 
ATOM     25  C   UNL     1      -3.911  -0.140  -3.579  0.00  0.00    +0.004 A 
ENDBRANCH  19  20
ENDBRANCH   8  19
ENDBRANCH   1   8
BRANCH   4  26
ATOM     26  C   UNL     1      -8.084  -2.614   3.879  0.00  0.00    -0.062 C 
BRANCH  26  27
ATOM     27  C   UNL     1      -7.521  -2.320   5.271  0.00  0.00    +0.082 C 
ATOM     28  C   UNL     1      -8.047  -3.381   6.218  0.00  0.00    -0.007 C 
ATOM     29  C   UNL     1      -8.760  -2.955   7.299  0.00  0.00    -0.007 A 
ATOM     30  C   UNL     1      -9.305  -3.912   8.263  0.00  0.00    +0.009 A 
ATOM     31  C   UNL     1     -10.009  -3.442   9.325  0.00  0.00    +0.001 A 
ATOM     32  C   UNL     1     -10.221  -2.075   9.509  0.00  0.00    +0.002 A 
ATOM     33  C   UNL     1      -9.743  -1.137   8.650  0.00  0.00    +0.024 A 
ATOM     34  C   UNL     1      -8.999  -1.518   7.519  0.00  0.00    +0.040 A 
ATOM     35  N   UNL     1      -8.534  -0.589   6.684  0.00  0.00    -0.285 N 
ATOM     36  C   UNL     1      -7.831  -0.878   5.602  0.00  0.00    +0.222 C 
ATOM     37  O   UNL     1      -7.434   0.014   4.877  0.00  0.00    -0.275 OA
ATOM     38  H   UNL     1      -8.721   0.343   6.878  0.00  0.00    +0.155 HD
ENDBRANCH  26  27
ENDBRANCH   4  26
TORSDOF 7
