REMARK  Name = ZINC36848851
REMARK  14 active torsions:
REMARK  status: ('A' for Active; 'I' for Inactive)
REMARK    1  A    between atoms: C_1  and  C_2
REMARK    2  A    between atoms: C_5  and  C_9
REMARK    3  A    between atoms: C_7  and  C_8
REMARK    4  A    between atoms: C_9  and  C_11
REMARK    5  A    between atoms: C_9  and  N_12
REMARK    6  A    between atoms: C_13  and  C_15
REMARK    7  A    between atoms: C_15  and  S_16
REMARK    8  A    between atoms: S_16  and  C_17
REMARK    9  A    between atoms: C_20  and  C_29
REMARK   10  A    between atoms: N_21  and  C_22
REMARK   11  A    between atoms: C_29  and  C_31
REMARK   12  A    between atoms: C_29  and  N_32
REMARK   13  A    between atoms: N_32  and  C_33
REMARK   14  A    between atoms: N_32  and  C_34
REMARK                            x       y       z     vdW  Elec       q    Type
REMARK                         _______ _______ _______ _____ _____    ______ ____
ROOT
ATOM      1  C   UNL     1       4.088  -8.524  -3.041  0.00  0.00    +0.197 A 
ATOM      2  N   UNL     1       4.342  -7.777  -4.090  0.00  0.00    -0.122 NA
ATOM      3  N   UNL     1       5.140  -8.395  -4.885  0.00  0.00    -0.135 NA
ATOM      4  C   UNL     1       5.443  -9.564  -4.397  0.00  0.00    +0.125 A 
ATOM      5  N   UNL     1       4.789  -9.688  -3.200  0.00  0.00    -0.275 N 
ENDROOT
BRANCH   5   6
ATOM      6  C   UNL     1       4.826 -10.781  -2.322  0.00  0.00    +0.050 A 
ATOM      7  C   UNL     1       6.011 -11.120  -1.683  0.00  0.00    +0.028 A 
ATOM      8  C   UNL     1       6.046 -12.196  -0.819  0.00  0.00    +0.022 A 
ATOM      9  C   UNL     1       4.901 -12.938  -0.590  0.00  0.00    +0.041 A 
ATOM     10  C   UNL     1       3.718 -12.603  -1.226  0.00  0.00    +0.022 A 
ATOM     11  C   UNL     1       3.677 -11.524  -2.086  0.00  0.00    +0.028 A 
ATOM     12 CL   UNL     1       4.947 -14.292   0.496  0.00  0.00    -0.084 Cl
ENDBRANCH   5   6
BRANCH   4  13
ATOM     13  C   UNL     1       6.350 -10.589  -5.029  0.00  0.00    -0.003 C 
ATOM     14  C   UNL     1       5.623 -11.264  -6.193  0.00  0.00    -0.005 C 
BRANCH  13  15
ATOM     15  N   UNL     1       7.564  -9.927  -5.527  0.00  0.00    +0.382 N 
ATOM     16  C   UNL     1       8.262  -9.278  -4.409  0.00  0.00    -0.096 C 
ATOM     17  C   UNL     1       8.448 -10.925  -6.143  0.00  0.00    -0.096 C 
ATOM     18  H   UNL     1       7.310  -9.233  -6.213  0.00  0.00    -0.082 HD
ENDBRANCH  13  15
ENDBRANCH   4  13
BRANCH   1  19
ATOM     19  S   UNL     1       3.049  -8.104  -1.681  0.00  0.00    -0.076 S 
BRANCH  19  20
ATOM     20  C   UNL     1       2.437  -6.446  -2.092  0.00  0.00    +0.173 C 
BRANCH  20  22
ATOM     21  N   UNL     1       0.948  -4.746  -1.087  0.00  0.00    -0.308 N 
ATOM     22  C   UNL     1       1.524  -5.962  -0.996  0.00  0.00    +0.224 C 
ATOM     23  O   UNL     1       1.306  -6.665  -0.033  0.00  0.00    -0.275 OA
ATOM     24  H   UNL     1       1.121  -4.184  -1.858  0.00  0.00    +0.149 HD
BRANCH  21  25
ATOM     25  C   UNL     1       0.059  -4.275  -0.021  0.00  0.00    +0.100 C 
ATOM     26  C   UNL     1      -1.356  -4.802  -0.267  0.00  0.00    +0.033 C 
BRANCH  25  31
ATOM     27  C   UNL     1      -0.018   1.503   0.010  0.00  0.00    +0.044 C 
ATOM     28  C   UNL     1       0.002  -0.004   0.002  0.00  0.00    -0.048 A 
ATOM     29  C   UNL     1       0.006  -0.689  -1.199  0.00  0.00    +0.004 A 
ATOM     30  C   UNL     1       0.025  -2.071  -1.207  0.00  0.00    +0.006 A 
ATOM     31  C   UNL     1       0.040  -2.768  -0.013  0.00  0.00    -0.027 A 
ATOM     32  C   UNL     1       0.037  -2.084   1.188  0.00  0.00    +0.009 A 
ATOM     33  C   UNL     1       0.023  -0.702   1.195  0.00  0.00    -0.047 A 
ATOM     34  C   UNL     1       0.025   0.045   2.504  0.00  0.00    +0.044 C 
ENDBRANCH  25  31
ENDBRANCH  21  25
ENDBRANCH  20  22
ENDBRANCH  19  20
ENDBRANCH   1  19
TORSDOF 8
