REMARK  Name = ZINC63731114
REMARK  6 active torsions:
REMARK  status: ('A' for Active; 'I' for Inactive)
REMARK    1  A    between atoms: C_7  and  C_10
REMARK    2  A    between atoms: C_10  and  C_11
REMARK    3  A    between atoms: C_11  and  O_13
REMARK    4  A    between atoms: O_13  and  C_14
REMARK    5  A    between atoms: C_14  and  C_15
REMARK    6  A    between atoms: N_17  and  C_18
REMARK                            x       y       z     vdW  Elec       q    Type
REMARK                         _______ _______ _______ _____ _____    ______ ____
ROOT
ATOM      1  C   UNL     1       0.434  -3.627  -1.441  0.00  0.00    +0.312 C 
ATOM      2  O   UNL     1       0.974  -3.055  -2.358  0.00  0.00    -0.250 OA
ENDROOT
BRANCH   1   3
ATOM      3  C   UNL     1       0.660  -3.163  -0.025  0.00  0.00    +0.153 C 
BRANCH   3  10
ATOM      4  C   UNL     1      -0.081   1.365   0.004  0.00  0.00    +0.001 A 
ATOM      5  C   UNL     1       1.095   2.127  -0.003  0.00  0.00    +0.002 A 
ATOM      6  C   UNL     1       2.325   1.570  -0.017  0.00  0.00    +0.026 A 
ATOM      7  C   UNL     1       2.473   0.156  -0.025  0.00  0.00    +0.043 A 
ATOM      8  N   UNL     1       3.537  -0.610  -0.038  0.00  0.00    -0.380 N 
ATOM      9  C   UNL     1       3.104  -2.012  -0.041  0.00  0.00    +0.145 C 
ATOM     10  C   UNL     1       1.592  -1.979  -0.027  0.00  0.00    -0.031 C 
ATOM     11  C   UNL     1       1.246  -0.672  -0.017  0.00  0.00    -0.001 A 
ATOM     12  C   UNL     1      -0.053   0.013  -0.002  0.00  0.00    +0.010 A 
ATOM     13  H   UNL     1       4.457  -0.302  -0.046  0.00  0.00    +0.160 HD
ENDBRANCH   3  10
ENDBRANCH   1   3
BRANCH   1  14
ATOM     14  O   UNL     1      -0.367  -4.676  -1.684  0.00  0.00    -0.455 OA
BRANCH  14  15
ATOM     15  C   UNL     1      -0.536  -5.061  -3.050  0.00  0.00    +0.328 C 
BRANCH  15  16
ATOM     16  C   UNL     1      -1.462  -6.247  -3.127  0.00  0.00    +0.255 C 
ATOM     17  O   UNL     1      -1.932  -6.717  -2.111  0.00  0.00    -0.272 OA
ATOM     18  N   UNL     1      -1.769  -6.787  -4.323  0.00  0.00    -0.282 N 
ATOM     19  H   UNL     1      -1.447  -6.372  -5.139  0.00  0.00    +0.155 HD
BRANCH  18  20
ATOM     20  C   UNL     1      -2.553  -7.944  -4.389  0.00  0.00    +0.048 A 
ATOM     21  C   UNL     1      -3.567  -8.151  -3.463  0.00  0.00    +0.024 A 
ATOM     22  C   UNL     1      -4.339  -9.295  -3.531  0.00  0.00    +0.002 A 
ATOM     23  C   UNL     1      -4.102 -10.234  -4.519  0.00  0.00    +0.001 A 
ATOM     24  C   UNL     1      -3.093 -10.031  -5.441  0.00  0.00    +0.017 A 
ATOM     25  C   UNL     1      -2.321  -8.886  -5.383  0.00  0.00    +0.039 A 
ATOM     26 BR   UNL     1      -0.945  -8.607  -6.650  0.00  0.00    -0.048 Br
ENDBRANCH  18  20
ENDBRANCH  15  16
ENDBRANCH  14  15
ENDBRANCH   1  14
TORSDOF 6
