REMARK  Name = ZINC58744820
REMARK  8 active torsions:
REMARK  status: ('A' for Active; 'I' for Inactive)
REMARK    1  A    between atoms: C_1  and  C_2
REMARK    2  A    between atoms: C_2  and  C_3
REMARK    3  A    between atoms: C_2  and  C_4
REMARK    4  A    between atoms: C_2  and  C_5
REMARK    5  A    between atoms: C_12  and  C_14
REMARK    6  A    between atoms: N_16  and  C_17
REMARK    7  A    between atoms: C_21  and  C_23
REMARK    8  A    between atoms: C_23  and  N_24
REMARK                            x       y       z     vdW  Elec       q    Type
REMARK                         _______ _______ _______ _____ _____    ______ ____
ROOT
ATOM      1  C   UNL     1       6.007  -0.736  -4.546  0.00  0.00    +0.255 C 
ATOM      2  O   UNL     1       6.936  -0.488  -3.800  0.00  0.00    -0.269 OA
ATOM      3  N   UNL     1       6.245  -1.083  -5.827  0.00  0.00    -0.281 N 
ATOM      4  H   UNL     1       5.511  -1.346  -6.403  0.00  0.00    +0.155 HD
ENDROOT
BRANCH   1  11
ATOM      5  C   UNL     1       0.722  -0.523  -1.249  0.00  0.00    -0.001 C 
ATOM      6  C   UNL     1      -0.027  -0.026  -2.489  0.00  0.00    +0.009 C 
ATOM      7  C   UNL     1       0.534  -0.741  -3.725  0.00  0.00    +0.043 C 
ATOM      8  C   UNL     1       2.032  -0.665  -3.678  0.00  0.00    -0.006 A 
ATOM      9  C   UNL     1       2.799  -0.332  -2.600  0.00  0.00    -0.036 A 
ATOM     10  C   UNL     1       4.172  -0.326  -2.790  0.00  0.00    +0.024 A 
ATOM     11  C   UNL     1       4.629  -0.658  -4.053  0.00  0.00    +0.075 A 
ATOM     12  S   UNL     1       3.104  -0.967  -4.923  0.00  0.00    -0.088 S 
ATOM     13  C   UNL     1       2.154   0.013  -1.260  0.00  0.00    +0.040 C 
BRANCH   5  15
ATOM     14  C   UNL     1      -0.026   1.498   0.015  0.00  0.00    +0.011 C 
ATOM     15  C   UNL     1       0.005  -0.031   0.010  0.00  0.00    -0.035 C 
ATOM     16  C   UNL     1       0.750  -0.530   1.249  0.00  0.00    +0.011 C 
ATOM     17  C   UNL     1      -1.427  -0.570   0.024  0.00  0.00    +0.011 C 
ENDBRANCH   5  15
ENDBRANCH   1  11
BRANCH   3  18
ATOM     18  C   UNL     1       7.552  -1.063  -6.324  0.00  0.00    +0.034 A 
ATOM     19  C   UNL     1       8.615  -1.417  -5.503  0.00  0.00    +0.023 A 
ATOM     20  C   UNL     1       9.904  -1.397  -5.998  0.00  0.00    +0.002 A 
ATOM     21  C   UNL     1      10.137  -1.026  -7.310  0.00  0.00    +0.005 A 
ATOM     22  C   UNL     1       9.081  -0.673  -8.130  0.00  0.00    -0.028 A 
ATOM     23  C   UNL     1       7.789  -0.696  -7.643  0.00  0.00    +0.028 A 
BRANCH  22  24
ATOM     24  C   UNL     1       9.340  -0.268  -9.558  0.00  0.00    +0.153 C 
BRANCH  24  25
ATOM     25  N   UNL     1       9.292  -1.454 -10.418  0.00  0.00    -0.220 N 
ATOM     26  C   UNL     1      10.360  -2.225 -10.704  0.00  0.00    +0.240 C 
ATOM     27  O   UNL     1      11.497  -2.074 -10.313  0.00  0.00    -0.273 OA
ATOM     28  C   UNL     1       9.841  -3.320 -11.615  0.00  0.00    +0.202 C 
ATOM     29  N   UNL     1       8.408  -3.009 -11.749  0.00  0.00    -0.290 N 
ATOM     30  C   UNL     1       8.182  -1.907 -11.011  0.00  0.00    +0.309 C 
ATOM     31  O   UNL     1       7.093  -1.381 -10.899  0.00  0.00    -0.252 OA
ATOM     32  H   UNL     1       7.753  -3.505 -12.266  0.00  0.00    +0.151 HD
ENDBRANCH  24  25
ENDBRANCH  22  24
ENDBRANCH   3  18
TORSDOF 5
