REMARK  Name = ZINC42402888
REMARK  6 active torsions:
REMARK  status: ('A' for Active; 'I' for Inactive)
REMARK    1  A    between atoms: C_1  and  N_2
REMARK    2  A    between atoms: N_2  and  C_3
REMARK    3  A    between atoms: N_2  and  S_10
REMARK    4  A    between atoms: C_3  and  C_4
REMARK    5  A    between atoms: S_10  and  C_13
REMARK    6  A    between atoms: C_16  and  O_19
REMARK                            x       y       z     vdW  Elec       q    Type
REMARK                         _______ _______ _______ _____ _____    ______ ____
ROOT
ATOM      1  S   UNL     1      -0.000  -0.824  -1.437  0.00  0.00    +0.061 S 
ATOM      2  O   UNL     1      -0.531  -2.115  -1.167  0.00  0.00    -0.153 OA
ATOM      3  O   UNL     1      -0.572   0.049  -2.401  0.00  0.00    -0.153 OA
ENDROOT
BRANCH   1   4
ATOM      4  C   UNL     1       1.682  -1.059  -1.905  0.00  0.00    +0.106 A 
ATOM      5  C   UNL     1       2.323  -0.108  -2.677  0.00  0.00    +0.032 A 
ATOM      6  C   UNL     1       3.641  -0.290  -3.046  0.00  0.00    +0.047 A 
ATOM      7  C   UNL     1       4.323  -1.429  -2.641  0.00  0.00    +0.117 A 
ATOM      8  C   UNL     1       3.678  -2.382  -1.866  0.00  0.00    +0.047 A 
ATOM      9  C   UNL     1       2.361  -2.192  -1.495  0.00  0.00    +0.032 A 
BRANCH   7  10
ATOM     10  O   UNL     1       5.620  -1.611  -3.003  0.00  0.00    -0.507 OA
ATOM     11  H   UNL     1       6.258  -1.245  -2.376  0.00  0.00    +0.292 HD
ENDBRANCH   7  10
ENDBRANCH   1   4
BRANCH   1  13
ATOM     12  C   UNL     1      -0.018   1.461   0.010  0.00  0.00    +0.132 C 
ATOM     13  N   UNL     1       0.002  -0.004   0.002  0.00  0.00    -0.175 NA
BRANCH  13  14
ATOM     14  C   UNL     1       0.024  -0.743   1.267  0.00  0.00    +0.151 C 
BRANCH  14  15
ATOM     15  C   UNL     1      -1.384  -0.909   1.776  0.00  0.00    +0.007 A 
ATOM     16  C   UNL     1      -2.265  -1.913   1.540  0.00  0.00    +0.027 A 
ATOM     17  C   UNL     1      -3.518  -1.855   2.121  0.00  0.00    +0.025 A 
ATOM     18  C   UNL     1      -3.830  -0.796   2.908  0.00  0.00    +0.060 A 
ATOM     19  S   UNL     1      -2.324   0.161   2.853  0.00  0.00    -0.099 S 
ATOM     20 BR   UNL     1      -4.780  -3.231   1.820  0.00  0.00    -0.050 Br
ENDBRANCH  14  15
ENDBRANCH  13  14
ENDBRANCH   1  13
TORSDOF 5
