REMARK  Name = ZINC64664336
REMARK  6 active torsions:
REMARK  status: ('A' for Active; 'I' for Inactive)
REMARK    1  A    between atoms: C_1  and  C_2
REMARK    2  A    between atoms: C_5  and  C_26
REMARK    3  A    between atoms: C_6  and  C_8
REMARK    4  A    between atoms: C_11  and  C_13
REMARK    5  A    between atoms: C_14  and  N_25
REMARK    6  A    between atoms: N_15  and  C_18
REMARK                            x       y       z     vdW  Elec       q    Type
REMARK                         _______ _______ _______ _____ _____    ______ ____
ROOT
ATOM      1  C   UNL     1       0.494  -6.837   2.965  0.00  0.00    +0.159 A 
ATOM      2  C   UNL     1       0.596  -7.667   4.069  0.00  0.00    +0.150 A 
ATOM      3  N   UNL     1       0.644  -8.942   3.586  0.00  0.00    -0.198 N 
ATOM      4  N   UNL     1       0.569  -8.845   2.189  0.00  0.00    -0.058 NA
ATOM      5  N   UNL     1       0.478  -7.604   1.863  0.00  0.00    -0.125 NA
ENDROOT
BRANCH   3   6
ATOM      6  C   UNL     1       0.747 -10.120   4.340  0.00  0.00    +0.072 A 
ATOM      7  C   UNL     1       1.492 -10.132   5.511  0.00  0.00    +0.028 A 
ATOM      8  C   UNL     1       1.593 -11.293   6.253  0.00  0.00    +0.005 A 
ATOM      9  C   UNL     1       0.954 -12.444   5.830  0.00  0.00    +0.038 A 
ATOM     10  C   UNL     1       0.210 -12.436   4.662  0.00  0.00    +0.125 A 
ATOM     11  C   UNL     1       0.101 -11.273   3.919  0.00  0.00    +0.066 A 
ATOM     12  F   UNL     1      -0.414 -13.561   4.250  0.00  0.00    -0.205 F 
ENDBRANCH   3   6
BRANCH   1  16
ATOM     13  C   UNL     1       0.246  -3.206   2.200  0.00  0.00    +0.079 A 
ATOM     14  C   UNL     1       0.288  -2.730   3.483  0.00  0.00    +0.075 A 
ATOM     15  S   UNL     1       0.425  -4.259   4.400  0.00  0.00    -0.073 S 
ATOM     16  C   UNL     1       0.412  -5.364   2.995  0.00  0.00    +0.132 A 
ATOM     17  N   UNL     1       0.303  -4.510   1.989  0.00  0.00    -0.237 NA
BRANCH  13  23
ATOM     18  C   UNL     1       1.744   0.929  -0.163  0.00  0.00    +0.044 C 
ATOM     19  C   UNL     1       0.848  -0.279  -0.081  0.00  0.00    -0.050 A 
ATOM     20  C   UNL     1      -0.086  -0.514  -1.074  0.00  0.00    +0.003 A 
ATOM     21  C   UNL     1      -0.912  -1.622  -1.006  0.00  0.00    +0.004 A 
ATOM     22  C   UNL     1      -0.809  -2.499   0.054  0.00  0.00    -0.041 A 
ATOM     23  C   UNL     1       0.130  -2.267   1.058  0.00  0.00    +0.004 A 
ATOM     24  C   UNL     1       0.963  -1.152   0.981  0.00  0.00    +0.013 A 
ATOM     25  C   UNL     1      -1.710  -3.705   0.127  0.00  0.00    +0.044 C 
ENDBRANCH  13  23
ENDBRANCH   1  16
BRANCH   2  26
ATOM     26  N   UNL     1       0.640  -7.280   5.399  0.00  0.00    -0.341 N 
ATOM     27  H   UNL     1       0.598  -6.339   5.632  0.00  0.00    +0.144 HD
ATOM     28  H   UNL     1       0.712  -7.949   6.097  0.00  0.00    +0.144 HD
ENDBRANCH   2  26
TORSDOF 4
