REMARK  Name = ZINC38984520
REMARK  6 active torsions:
REMARK  status: ('A' for Active; 'I' for Inactive)
REMARK    1  A    between atoms: C_1  and  C_2
REMARK    2  A    between atoms: C_2  and  N_3
REMARK    3  A    between atoms: N_3  and  C_4
REMARK    4  A    between atoms: C_4  and  C_5
REMARK    5  A    between atoms: C_10  and  C_17
REMARK    6  A    between atoms: C_18  and  C_20
REMARK                            x       y       z     vdW  Elec       q    Type
REMARK                         _______ _______ _______ _____ _____    ______ ____
ROOT
ATOM      1  C   UNL     1      -0.809  -1.582   2.464  0.00  0.00    +0.116 C 
ATOM      2  C   UNL     1      -1.679  -1.631   3.704  0.00  0.00    -0.003 C 
ATOM      3  C   UNL     1      -1.640  -2.772   4.451  0.00  0.00    -0.007 A 
ATOM      4  C   UNL     1      -2.448  -2.903   5.663  0.00  0.00    +0.012 A 
ATOM      5  C   UNL     1      -2.377  -4.057   6.376  0.00  0.00    -0.050 A 
ATOM      6  C   UNL     1      -1.553  -5.109   5.974  0.00  0.00    +0.005 A 
ATOM      7  C   UNL     1      -0.779  -5.049   4.860  0.00  0.00    +0.024 A 
ATOM      8  C   UNL     1      -0.779  -3.898   4.050  0.00  0.00    +0.040 A 
ATOM      9  N   UNL     1      -0.016  -3.851   2.959  0.00  0.00    -0.284 N 
ATOM     10  C   UNL     1       0.032  -2.801   2.157  0.00  0.00    +0.226 C 
ATOM     11  O   UNL     1       0.749  -2.817   1.174  0.00  0.00    -0.275 OA
ATOM     12  C   UNL     1      -3.204  -4.204   7.627  0.00  0.00    +0.044 C 
ATOM     13  H   UNL     1       0.530  -4.623   2.743  0.00  0.00    +0.155 HD
ENDROOT
BRANCH   1  14
ATOM     14  C   UNL     1       0.133  -0.384   2.599  0.00  0.00    +0.124 C 
BRANCH  14  15
ATOM     15  N   UNL     1       0.843  -0.177   1.334  0.00  0.00    -0.300 N 
ATOM     16  C   UNL     1       2.022  -0.792   1.114  0.00  0.00    +0.219 C 
ATOM     17  O   UNL     1       2.468  -1.560   1.940  0.00  0.00    -0.275 OA
BRANCH  16  18
ATOM     18  C   UNL     1       2.785  -0.525  -0.157  0.00  0.00    +0.075 C 
ATOM     19  C   UNL     1       2.085  -1.217  -1.328  0.00  0.00    +0.013 C 
ATOM     20  C   UNL     1       2.860  -0.946  -2.619  0.00  0.00    +0.001 C 
ATOM     21  C   UNL     1       4.284  -1.490  -2.483  0.00  0.00    +0.000 C 
ATOM     22  C   UNL     1       4.984  -0.798  -1.312  0.00  0.00    +0.001 C 
ATOM     23  C   UNL     1       4.209  -1.069  -0.021  0.00  0.00    +0.013 C 
ENDBRANCH  16  18
BRANCH  15  25
ATOM     24  C   UNL     1       0.647   2.152   0.612  0.00  0.00    +0.024 C 
ATOM     25  C   UNL     1       0.272   0.700   0.308  0.00  0.00    +0.104 C 
ENDBRANCH  15  25
ENDBRANCH  14  15
ENDBRANCH   1  14
TORSDOF 4
