REMARK  Name = ZINC36930740
REMARK  6 active torsions:
REMARK  status: ('A' for Active; 'I' for Inactive)
REMARK    1  A    between atoms: C_1  and  C_2
REMARK    2  A    between atoms: C_5  and  C_9
REMARK    3  A    between atoms: C_6  and  C_8
REMARK    4  A    between atoms: C_9  and  C_11
REMARK    5  A    between atoms: C_11  and  C_13
REMARK    6  A    between atoms: C_11  and  C_15
REMARK                            x       y       z     vdW  Elec       q    Type
REMARK                         _______ _______ _______ _____ _____    ______ ____
ROOT
ATOM      1  C   UNL     1       0.586  -4.180   0.222  0.00  0.00    +0.185 C 
ATOM      2  O   UNL     1       0.702  -4.688   1.317  0.00  0.00    -0.290 OA
ENDROOT
BRANCH   1   7
ATOM      3  C   UNL     1      -0.548   1.437  -0.235  0.00  0.00    +0.044 C 
ATOM      4  C   UNL     1      -0.251  -0.035  -0.115  0.00  0.00    -0.050 A 
ATOM      5  C   UNL     1       0.012  -0.779  -1.252  0.00  0.00    +0.004 A 
ATOM      6  C   UNL     1       0.285  -2.127  -1.151  0.00  0.00    +0.012 A 
ATOM      7  C   UNL     1       0.296  -2.742   0.105  0.00  0.00    +0.022 A 
ATOM      8  C   UNL     1       0.029  -1.984   1.249  0.00  0.00    -0.040 A 
ATOM      9  C   UNL     1      -0.237  -0.636   1.132  0.00  0.00    +0.007 A 
ATOM     10  C   UNL     1       0.037  -2.637   2.607  0.00  0.00    +0.044 C 
ENDBRANCH   1   7
BRANCH   1  11
ATOM     11  C   UNL     1       0.738  -5.022  -1.019  0.00  0.00    +0.192 C 
BRANCH  11  12
ATOM     12  C   UNL     1       1.595  -6.222  -0.710  0.00  0.00    -0.023 A 
ATOM     13  C   UNL     1       1.194  -7.127   0.255  0.00  0.00    +0.006 A 
ATOM     14  C   UNL     1       1.980  -8.229   0.538  0.00  0.00    +0.015 A 
ATOM     15  C   UNL     1       3.167  -8.425  -0.143  0.00  0.00    +0.018 A 
ATOM     16  C   UNL     1       3.568  -7.518  -1.108  0.00  0.00    +0.015 A 
ATOM     17  C   UNL     1       2.780  -6.420  -1.395  0.00  0.00    +0.006 A 
ATOM     18 BR   UNL     1       4.243  -9.931   0.244  0.00  0.00    -0.050 Br
ENDBRANCH  11  12
BRANCH  11  19
ATOM     19  C   UNL     1      -0.588  -5.470  -1.474  0.00  0.00    +0.079 C 
ATOM     20  N   UNL     1      -1.612  -5.816  -1.825  0.00  0.00    -0.195 NA
ENDBRANCH  11  19
ENDBRANCH   1  11
TORSDOF 4
