REMARK  Name = ZINC49908343
REMARK  6 active torsions:
REMARK  status: ('A' for Active; 'I' for Inactive)
REMARK    1  A    between atoms: C_1  and  C_2
REMARK    2  A    between atoms: C_2  and  C_4
REMARK    3  A    between atoms: C_2  and  S_17
REMARK    4  A    between atoms: C_4  and  C_6
REMARK    5  A    between atoms: S_17  and  C_18
REMARK    6  A    between atoms: C_21  and  C_24
REMARK                            x       y       z     vdW  Elec       q    Type
REMARK                         _______ _______ _______ _____ _____    ______ ____
ROOT
ATOM      1  C   UNL     1      -0.019   1.526   0.010  0.00  0.00    +0.028 C 
ATOM      2  C   UNL     1       0.002  -0.004   0.002  0.00  0.00    +0.122 C 
ENDROOT
BRANCH   2   3
ATOM      3  C   UNL     1       0.707  -0.490  -1.238  0.00  0.00    +0.176 C 
ATOM      4  O   UNL     1       1.889  -0.763  -1.196  0.00  0.00    -0.291 OA
BRANCH   3   5
ATOM      5  C   UNL     1      -0.035  -0.633  -2.497  0.00  0.00    +0.020 A 
ATOM      6  C   UNL     1      -1.398  -0.314  -2.548  0.00  0.00    +0.015 A 
ATOM      7  C   UNL     1      -2.094  -0.448  -3.729  0.00  0.00    +0.048 A 
ATOM      8  C   UNL     1      -1.448  -0.900  -4.871  0.00  0.00    +0.142 A 
ATOM      9  C   UNL     1      -0.088  -1.221  -4.827  0.00  0.00    +0.076 A 
ATOM     10  C   UNL     1       0.619  -1.085  -3.650  0.00  0.00    +0.038 A 
ATOM     11  N   UNL     1       0.545  -1.677  -5.993  0.00  0.00    -0.280 N 
ATOM     12  C   UNL     1      -0.068  -1.499  -7.183  0.00  0.00    +0.255 C 
ATOM     13  O   UNL     1       0.447  -1.911  -8.201  0.00  0.00    -0.272 OA
ATOM     14  C   UNL     1      -1.394  -0.785  -7.241  0.00  0.00    +0.325 C 
ATOM     15  O   UNL     1      -2.127  -1.034  -6.039  0.00  0.00    -0.481 OA
ATOM     16  H   UNL     1       1.410  -2.114  -5.945  0.00  0.00    +0.155 HD
ENDBRANCH   3   5
ENDBRANCH   2   3
BRANCH   2  17
ATOM     17  S   UNL     1       0.879  -0.605   1.472  0.00  0.00    -0.075 S 
BRANCH  17  18
ATOM     18  C   UNL     1      -0.136  -0.087   2.816  0.00  0.00    +0.185 A 
ATOM     19  N   UNL     1      -1.264   0.581   2.719  0.00  0.00    -0.201 NA
ATOM     20  H   UNL     1       0.865  -0.784   4.503  0.00  0.00    +0.191 HD
ATOM     21  C   UNL     1      -1.763   0.803   3.943  0.00  0.00    +0.185 A 
ATOM     22  N   UNL     1      -0.954   0.276   4.834  0.00  0.00    -0.151 NA
ATOM     23  N   UNL     1       0.107  -0.312   4.126  0.00  0.00    -0.253 N 
BRANCH  21  24
ATOM     24  C   UNL     1      -3.024   1.525   4.243  0.00  0.00    +0.056 A 
ATOM     25  C   UNL     1      -3.802   2.035   3.206  0.00  0.00    +0.014 A 
ATOM     26  C   UNL     1      -4.974   2.706   3.490  0.00  0.00    +0.001 A 
ATOM     27  C   UNL     1      -5.378   2.874   4.803  0.00  0.00    +0.003 A 
ATOM     28  C   UNL     1      -4.612   2.371   5.838  0.00  0.00    +0.039 A 
ATOM     29  C   UNL     1      -3.438   1.691   5.565  0.00  0.00    +0.134 A 
ATOM     30  F   UNL     1      -2.693   1.195   6.577  0.00  0.00    -0.205 F 
ENDBRANCH  21  24
ENDBRANCH  17  18
ENDBRANCH   2  17
TORSDOF 5
