REMARK  Name = ZINC61855672
REMARK  3 active torsions:
REMARK  status: ('A' for Active; 'I' for Inactive)
REMARK    1  A    between atoms: C_3  and  C_19
REMARK    2  A    between atoms: C_6  and  S_7
REMARK    3  A    between atoms: S_7  and  C_8
REMARK                            x       y       z     vdW  Elec       q    Type
REMARK                         _______ _______ _______ _____ _____    ______ ____
ROOT
ATOM      1  S   UNL     1      -1.513  -0.903   0.012  0.00  0.00    -0.068 S 
ENDROOT
BRANCH   1   2
ATOM      2  C   UNL     1      -1.012  -2.585  -0.151  0.00  0.00    +0.130 A 
ATOM      3  C   UNL     1      -1.958  -3.602  -0.292  0.00  0.00    +0.118 A 
ATOM      4  C   UNL     1      -1.509  -4.926  -0.419  0.00  0.00    +0.182 A 
ATOM      5  N   UNL     1      -2.605  -5.700  -0.539  0.00  0.00    -0.216 NA
ATOM      6  H   UNL     1      -3.944  -2.906  -0.285  0.00  0.00    +0.167 HD
ATOM      7  C   UNL     1      -3.676  -4.958  -0.496  0.00  0.00    +0.199 A 
ATOM      8  N   UNL     1      -3.335  -3.658  -0.345  0.00  0.00    -0.341 N 
ATOM      9  N   UNL     1      -0.193  -5.162  -0.400  0.00  0.00    -0.214 NA
ATOM     10  C   UNL     1       0.661  -4.172  -0.264  0.00  0.00    +0.224 A 
ATOM     11  N   UNL     1       0.278  -2.914  -0.148  0.00  0.00    -0.227 NA
ENDBRANCH   1   2
BRANCH   1  17
ATOM     12  C   UNL     1       0.591   0.358  -1.201  0.00  0.00    +0.016 A 
ATOM     13  C   UNL     1       1.774   1.060  -1.209  0.00  0.00    +0.021 A 
ATOM     14  C   UNL     1       2.386   1.411  -0.002  0.00  0.00    +0.070 A 
ATOM     15  C   UNL     1       1.792   1.045   1.212  0.00  0.00    +0.059 A 
ATOM     16  C   UNL     1       0.608   0.342   1.212  0.00  0.00    +0.036 A 
ATOM     17  C   UNL     1       0.002  -0.004   0.008  0.00  0.00    +0.016 A 
ATOM     18 CL   UNL     1       2.547   1.477   2.715  0.00  0.00    -0.082 Cl
BRANCH  14  19
ATOM     19  C   UNL     1       3.618   2.142  -0.006  0.00  0.00    +0.101 C 
ATOM     20  N   UNL     1       4.595   2.721  -0.010  0.00  0.00    -0.191 NA
ENDBRANCH  14  19
ENDBRANCH   1  17
TORSDOF 3
