REMARK  Name = ZINC36122431
REMARK  15 active torsions:
REMARK  status: ('A' for Active; 'I' for Inactive)
REMARK    1  A    between atoms: C_1  and  C_2
REMARK    2  A    between atoms: C_2  and  C_3
REMARK    3  A    between atoms: C_3  and  C_5
REMARK    4  A    between atoms: C_3  and  N_6
REMARK    5  A    between atoms: N_6  and  C_7
REMARK    6  A    between atoms: C_7  and  C_8
REMARK    7  A    between atoms: C_18  and  C_20
REMARK    8  A    between atoms: C_20  and  O_21
REMARK    9  A    between atoms: O_21  and  C_22
REMARK   10  A    between atoms: C_27  and  O_28
REMARK   11  A    between atoms: O_28  and  C_29
REMARK   12  A    between atoms: N_32  and  C_33
REMARK   13  A    between atoms: C_33  and  C_34
REMARK   14  A    between atoms: C_33  and  C_35
REMARK   15  A    between atoms: C_33  and  C_36
REMARK                            x       y       z     vdW  Elec       q    Type
REMARK                         _______ _______ _______ _____ _____    ______ ____
ROOT
ATOM      1  C   UNL     1       2.296   2.273  -1.721  0.00  0.00    +0.234 C 
ATOM      2  O   UNL     1       1.897   2.533  -0.605  0.00  0.00    -0.274 OA
ATOM      3  N   UNL     1       2.567   3.269  -2.588  0.00  0.00    -0.289 N 
ATOM      4  C   UNL     1       3.046   2.966  -3.945  0.00  0.00    +0.114 C 
ATOM      5  C   UNL     1       1.982   3.438  -4.948  0.00  0.00    +0.061 C 
ATOM      6  C   UNL     1       1.487   4.782  -4.524  0.00  0.00    -0.004 A 
ATOM      7  C   UNL     1       1.631   5.382  -3.311  0.00  0.00    -0.014 A 
ATOM      8  C   UNL     1       1.063   6.647  -3.167  0.00  0.00    +0.013 A 
ATOM      9  C   UNL     1       0.414   7.219  -4.207  0.00  0.00    +0.046 A 
ATOM     10  S   UNL     1       0.575   5.970  -5.474  0.00  0.00    -0.101 S 
ATOM     11  C   UNL     1       2.383   4.671  -2.193  0.00  0.00    +0.144 C 
ENDROOT
BRANCH   1  12
ATOM     12  C   UNL     1       2.489   0.838  -2.137  0.00  0.00    +0.205 C 
BRANCH  12  13
ATOM     13  N   UNL     1       2.012  -0.048  -1.072  0.00  0.00    -0.274 N 
ATOM     14  C   UNL     1       2.822  -0.360  -0.042  0.00  0.00    +0.303 C 
ATOM     15  O   UNL     1       3.916   0.164   0.052  0.00  0.00    -0.253 OA
ATOM     16  N   UNL     1       2.422  -1.252   0.885  0.00  0.00    -0.294 N 
ATOM     17  H   UNL     1       1.582  -1.724   0.773  0.00  0.00    +0.151 HD
BRANCH  16  18
ATOM     18  C   UNL     1       3.254  -1.510   2.063  0.00  0.00    +0.028 C 
ATOM     19  C   UNL     1       3.435  -0.212   2.853  0.00  0.00    +0.031 C 
ATOM     20  C   UNL     1       2.575  -2.556   2.949  0.00  0.00    +0.031 C 
ATOM     21  C   UNL     1       4.622  -2.030   1.617  0.00  0.00    +0.031 C 
ENDBRANCH  16  18
BRANCH  13  22
ATOM     22  C   UNL     1       0.654  -0.595  -1.127  0.00  0.00    +0.075 C 
ATOM     23  C   UNL     1      -0.360   0.547  -1.033  0.00  0.00    +0.028 C 
BRANCH  22  25
ATOM     24  C   UNL     1       1.401  -2.547  -2.495  0.00  0.00    +0.006 C 
ATOM     25  C   UNL     1       0.458  -1.343  -2.447  0.00  0.00    +0.019 C 
ENDBRANCH  22  25
ENDBRANCH  13  22
ENDBRANCH  12  13
ENDBRANCH   1  12
BRANCH  11  26
ATOM     26  C   UNL     1       3.746   5.335  -1.988  0.00  0.00    +0.256 C 
BRANCH  26  27
ATOM     27  O   UNL     1       4.443   5.386  -3.235  0.00  0.00    -0.486 OA
BRANCH  27  28
ATOM     28  C   UNL     1       5.680   5.950  -3.228  0.00  0.00    +0.162 A 
ATOM     29  C   UNL     1       6.214   6.439  -2.046  0.00  0.00    +0.049 A 
ATOM     30  C   UNL     1       7.472   7.012  -2.040  0.00  0.00    +0.004 A 
ATOM     31  C   UNL     1       8.200   7.099  -3.212  0.00  0.00    +0.004 A 
ATOM     32  C   UNL     1       7.674   6.614  -4.395  0.00  0.00    +0.049 A 
ATOM     33  C   UNL     1       6.416   6.033  -4.406  0.00  0.00    +0.161 A 
BRANCH  33  34
ATOM     34  O   UNL     1       5.899   5.550  -5.567  0.00  0.00    -0.491 OA
ATOM     35  C   UNL     1       6.710   5.668  -6.738  0.00  0.00    +0.277 C 
ENDBRANCH  33  34
ENDBRANCH  27  28
ENDBRANCH  26  27
ENDBRANCH  11  26
TORSDOF 9
