REMARK  Name = ZINC67442201
REMARK  9 active torsions:
REMARK  status: ('A' for Active; 'I' for Inactive)
REMARK    1  A    between atoms: C_1  and  C_2
REMARK    2  A    between atoms: C_7  and  O_8
REMARK    3  A    between atoms: O_8  and  C_9
REMARK    4  A    between atoms: C_9  and  C_10
REMARK    5  A    between atoms: C_10  and  C_11
REMARK    6  A    between atoms: C_11  and  N_12
REMARK    7  A    between atoms: C_13  and  C_15
REMARK    8  A    between atoms: N_17  and  C_18
REMARK    9  A    between atoms: C_19  and  C_23
REMARK                            x       y       z     vdW  Elec       q    Type
REMARK                         _______ _______ _______ _____ _____    ______ ____
ROOT
ATOM      1  N   UNL     1       0.070   0.149   7.239  0.00  0.00    -0.307 N 
ATOM      2  C   UNL     1       0.089  -0.374   8.480  0.00  0.00    +0.299 C 
ATOM      3  O   UNL     1       0.106  -1.578   8.631  0.00  0.00    -0.265 OA
ATOM      4  H   UNL     1       0.056   1.111   7.118  0.00  0.00    +0.149 HD
ENDROOT
BRANCH   2   5
ATOM      5  C   UNL     1       0.089   0.527   9.670  0.00  0.00    +0.304 C 
ATOM      6  O   UNL     1       0.071   1.732   9.519  0.00  0.00    -0.265 OA
ATOM      7  N   UNL     1       0.108   0.004  10.912  0.00  0.00    -0.272 N 
ATOM      8  H   UNL     1       0.122  -0.958  11.033  0.00  0.00    +0.156 HD
BRANCH   7   9
ATOM      9  C   UNL     1       0.107   0.840  12.015  0.00  0.00    +0.084 A 
ATOM     10  C   UNL     1       0.131   0.483  13.357  0.00  0.00    +0.065 A 
ATOM     11  C   UNL     1       0.124   1.565  14.313  0.00  0.00    +0.022 A 
ATOM     12  C   UNL     1       0.096   2.807  13.794  0.00  0.00    +0.048 A 
ATOM     13  S   UNL     1       0.086   2.518  12.038  0.00  0.00    -0.081 S 
BRANCH  10  14
ATOM     14  C   UNL     1       0.160  -0.921  13.780  0.00  0.00    +0.244 C 
ATOM     15  O   UNL     1       0.164  -1.808  12.947  0.00  0.00    -0.270 OA
ATOM     16  N   UNL     1       0.182  -1.228  15.092  0.00  0.00    -0.325 N 
ATOM     17  H   UNL     1       0.179  -0.521  15.756  0.00  0.00    +0.145 HD
ATOM     18  H   UNL     1       0.202  -2.156  15.373  0.00  0.00    +0.145 HD
ENDBRANCH  10  14
ENDBRANCH   7   9
ENDBRANCH   2   5
BRANCH   1  19
ATOM     19  C   UNL     1       0.071  -0.736   6.071  0.00  0.00    +0.108 C 
BRANCH  19  20
ATOM     20  C   UNL     1       0.047   0.106   4.793  0.00  0.00    +0.060 C 
BRANCH  20  21
ATOM     21  C   UNL     1       0.048  -0.819   3.574  0.00  0.00    +0.230 C 
BRANCH  21  22
ATOM     22  O   UNL     1       0.025  -0.033   2.381  0.00  0.00    -0.492 OA
BRANCH  22  29
ATOM     23  C   UNL     1      -0.018   1.503   0.010  0.00  0.00    +0.047 C 
ATOM     24  C   UNL     1       0.002  -0.004   0.002  0.00  0.00    -0.007 A 
ATOM     25  C   UNL     1       0.006  -0.689  -1.198  0.00  0.00    +0.027 A 
ATOM     26  C   UNL     1       0.024  -2.072  -1.206  0.00  0.00    +0.041 A 
ATOM     27  C   UNL     1       0.040  -2.773  -0.013  0.00  0.00    +0.023 A 
ATOM     28  C   UNL     1       0.036  -2.092   1.189  0.00  0.00    +0.047 A 
ATOM     29  C   UNL     1       0.023  -0.704   1.199  0.00  0.00    +0.123 A 
ATOM     30 CL   UNL     1       0.028  -2.930  -2.715  0.00  0.00    -0.084 Cl
ENDBRANCH  22  29
ENDBRANCH  21  22
ENDBRANCH  20  21
ENDBRANCH  19  20
ENDBRANCH   1  19
TORSDOF 8
