REMARK  Name = ZINC05576780
REMARK  9 active torsions:
REMARK  status: ('A' for Active; 'I' for Inactive)
REMARK    1  A    between atoms: C_1  and  N_48
REMARK    2  A    between atoms: C_2  and  N_48
REMARK    3  A    between atoms: C_3  and  C_4
REMARK    4  A    between atoms: C_3  and  N_48
REMARK    5  A    between atoms: C_4  and  C_5
REMARK    6  A    between atoms: C_5  and  N_6
REMARK    7  A    between atoms: C_7  and  C_23
REMARK    8  A    between atoms: C_10  and  C_11
REMARK    9  A    between atoms: C_10  and  O_18
REMARK                            x       y       z     vdW  Elec       q    Type
REMARK                         _______ _______ _______ _____ _____    ______ ____
ROOT
ATOM      1  N   UNL     1       5.965   2.356  -0.348  0.00  0.00    -0.283 N 
ATOM      2  C   UNL     1       5.048   1.215  -0.264  0.00  0.00    +0.151 C 
ATOM      3  C   UNL     1       3.656   1.787  -0.127  0.00  0.00    +0.072 C 
ATOM      4  C   UNL     1       2.476   1.079  -0.015  0.00  0.00    +0.133 C 
ATOM      5  C   UNL     1       3.805   3.183  -0.142  0.00  0.00    +0.249 C 
ATOM      6  O   UNL     1       2.904   3.998  -0.059  0.00  0.00    -0.282 OA
ATOM      7  C   UNL     1       5.254   3.494  -0.275  0.00  0.00    +0.288 C 
ATOM      8  O   UNL     1       5.725   4.612  -0.317  0.00  0.00    -0.266 OA
ENDROOT
BRANCH   4   9
ATOM      9  C   UNL     1       1.214   1.790   0.248  0.00  0.00    +0.017 A 
ATOM     10  C   UNL     1       1.129   2.702   1.306  0.00  0.00    +0.014 A 
ATOM     11  C   UNL     1      -0.057   3.360   1.551  0.00  0.00    +0.039 A 
ATOM     12  C   UNL     1      -1.161   3.128   0.744  0.00  0.00    +0.123 A 
ATOM     13  C   UNL     1      -1.083   2.226  -0.307  0.00  0.00    +0.039 A 
ATOM     14  C   UNL     1       0.095   1.557  -0.558  0.00  0.00    +0.014 A 
ATOM     15  F   UNL     1      -2.319   3.781   0.985  0.00  0.00    -0.205 F 
ENDBRANCH   4   9
BRANCH   2  16
ATOM     16  C   UNL     1       5.143   0.383  -1.517  0.00  0.00    +0.015 A 
ATOM     17  C   UNL     1       5.112  -0.966  -1.650  0.00  0.00    +0.013 A 
ATOM     18  C   UNL     1       5.214  -1.517  -2.914  0.00  0.00    +0.008 A 
ATOM     19  C   UNL     1       5.352  -0.693  -3.981  0.00  0.00    +0.045 A 
ATOM     20  S   UNL     1       5.334   0.917  -3.210  0.00  0.00    -0.099 S 
ENDBRANCH   2  16
BRANCH   4  21
ATOM     21  O   UNL     1       2.479  -0.264  -0.148  0.00  0.00    -0.506 OA
ATOM     22  H   UNL     1       1.548  -0.612  -0.039  0.00  0.00    +0.292 HD
ENDBRANCH   4  21
BRANCH   1  23
ATOM     23  C   UNL     1       7.420   2.269  -0.490  0.00  0.00    +0.107 C 
BRANCH  23  24
ATOM     24  C   UNL     1       7.788   2.245  -1.975  0.00  0.00    +0.000 C 
BRANCH  24  25
ATOM     25  C   UNL     1       9.308   2.155  -2.123  0.00  0.00    -0.078 C 
BRANCH  25  28
ATOM     26  C   UNL     1       9.321   3.406  -4.196  0.00  0.00    -0.097 C 
ATOM     27  C   UNL     1      11.081   1.809  -3.735  0.00  0.00    -0.097 C 
ATOM     28  N   UNL     1       9.645   2.111  -3.562  0.00  0.00    +0.376 N 
ATOM     29  H   UNL     1       9.092   1.372  -4.011  0.00  0.00    -0.083 HD
ENDBRANCH  25  28
ENDBRANCH  24  25
ENDBRANCH  23  24
ENDBRANCH   1  23
TORSDOF 7
