REMARK  Name = ZINC01898465
REMARK  7 active torsions:
REMARK  status: ('A' for Active; 'I' for Inactive)
REMARK    1  A    between atoms: C_1  and  C_2
REMARK    2  A    between atoms: C_3  and  N_9
REMARK    3  A    between atoms: C_14  and  C_28
REMARK    4  A    between atoms: N_16  and  C_22
REMARK    5  A    between atoms: C_31  and  O_34
REMARK    6  A    between atoms: O_34  and  S_35
REMARK    7  A    between atoms: S_35  and  C_38
REMARK                            x       y       z     vdW  Elec       q    Type
REMARK                         _______ _______ _______ _____ _____    ______ ____
ROOT
ATOM      1  N   UNL     1       1.379   9.954  -1.554  0.00  0.00    -0.208 N 
ATOM      2  C   UNL     1       1.384   8.618  -1.480  0.00  0.00    +0.235 C 
ATOM      3  O   UNL     1       2.337   7.906  -1.715  0.00  0.00    -0.274 OA
ATOM      4  C   UNL     1       0.015   8.135  -1.056  0.00  0.00    +0.145 C 
ATOM      5  C   UNL     1      -0.648   7.383  -2.231  0.00  0.00    +0.157 C 
ATOM      6  N   UNL     1      -2.021   7.957  -2.261  0.00  0.00    -0.244 N 
ATOM      7  O   UNL     1      -1.816   9.386  -1.950  0.00  0.00    -0.257 OA
ATOM      8  C   UNL     1      -0.817   9.437  -0.914  0.00  0.00    +0.249 C 
ATOM      9  C   UNL     1       0.204  10.523  -1.257  0.00  0.00    +0.259 C 
ATOM     10  O   UNL     1      -0.016  11.714  -1.254  0.00  0.00    -0.272 OA
ENDROOT
BRANCH   1  13
ATOM     11  C   UNL     1       3.142  10.805   0.512  0.00  0.00    +0.047 C 
ATOM     12  C   UNL     1       3.397  11.132  -0.937  0.00  0.00    -0.010 A 
ATOM     13  C   UNL     1       2.512  10.698  -1.913  0.00  0.00    +0.048 A 
ATOM     14  C   UNL     1       2.752  10.996  -3.248  0.00  0.00    +0.024 A 
ATOM     15  C   UNL     1       3.867  11.733  -3.599  0.00  0.00    +0.003 A 
ATOM     16  C   UNL     1       4.748  12.165  -2.625  0.00  0.00    +0.020 A 
ATOM     17  C   UNL     1       4.514  11.864  -1.295  0.00  0.00    +0.046 A 
ATOM     18 CL   UNL     1       5.622  12.408  -0.074  0.00  0.00    -0.083 Cl
ENDBRANCH   1  13
BRANCH   6  19
ATOM     19  C   UNL     1      -2.602   7.798  -3.522  0.00  0.00    +0.065 A 
ATOM     20  C   UNL     1      -2.779   6.526  -4.051  0.00  0.00    +0.028 A 
ATOM     21  C   UNL     1      -3.358   6.372  -5.295  0.00  0.00    +0.002 A 
ATOM     22  C   UNL     1      -3.752   7.483  -6.018  0.00  0.00    +0.000 A 
ATOM     23  C   UNL     1      -3.572   8.751  -5.497  0.00  0.00    +0.002 A 
ATOM     24  C   UNL     1      -2.998   8.912  -4.251  0.00  0.00    +0.028 A 
ENDBRANCH   6  19
BRANCH   5  25
ATOM     25  C   UNL     1      -0.696   5.902  -1.956  0.00  0.00    -0.022 A 
ATOM     26  C   UNL     1       0.244   5.064  -2.528  0.00  0.00    +0.009 A 
ATOM     27  C   UNL     1       0.202   3.706  -2.278  0.00  0.00    +0.049 A 
ATOM     28  C   UNL     1      -0.783   3.183  -1.453  0.00  0.00    +0.157 A 
ATOM     29  C   UNL     1      -1.728   4.026  -0.885  0.00  0.00    +0.049 A 
ATOM     30  C   UNL     1      -1.679   5.384  -1.134  0.00  0.00    +0.009 A 
BRANCH  28  31
ATOM     31  O   UNL     1      -0.826   1.847  -1.205  0.00  0.00    -0.342 OA
BRANCH  31  32
ATOM     32  S   UNL     1      -0.017   1.417   0.010  0.00  0.00    +0.151 S 
ATOM     33  O   UNL     1       0.002  -0.004   0.002  0.00  0.00    -0.131 OA
ATOM     34  O   UNL     1       1.172   2.195   0.003  0.00  0.00    -0.131 OA
BRANCH  32  35
ATOM     35  C   UNL     1      -0.927   1.900   1.439  0.00  0.00    +0.128 A 
ATOM     36  C   UNL     1      -0.717   3.145   2.004  0.00  0.00    +0.030 A 
ATOM     37  C   UNL     1      -1.434   3.526   3.123  0.00  0.00    +0.002 A 
ATOM     38  C   UNL     1      -2.353   2.659   3.683  0.00  0.00    +0.000 A 
ATOM     39  C   UNL     1      -2.559   1.412   3.121  0.00  0.00    +0.002 A 
ATOM     40  C   UNL     1      -1.846   1.033   2.000  0.00  0.00    +0.030 A 
ENDBRANCH  32  35
ENDBRANCH  31  32
ENDBRANCH  28  31
ENDBRANCH   5  25
TORSDOF 6
