REMARK  Name = ZINC03374106
REMARK  7 active torsions:
REMARK  status: ('A' for Active; 'I' for Inactive)
REMARK    1  A    between atoms: C_1  and  C_2
REMARK    2  A    between atoms: C_2  and  N_3
REMARK    3  A    between atoms: C_7  and  C_22
REMARK    4  A    between atoms: C_8  and  C_21
REMARK    5  A    between atoms: C_12  and  S_13
REMARK    6  A    between atoms: S_13  and  C_14
REMARK    7  A    between atoms: C_14  and  C_15
REMARK                            x       y       z     vdW  Elec       q    Type
REMARK                         _______ _______ _______ _____ _____    ______ ____
ROOT
ATOM      1  N   UNL     1      -0.721   1.571  -1.179  0.00  0.00    -0.288 N 
ATOM      2  C   UNL     1      -1.701   0.821  -1.716  0.00  0.00    +0.263 A 
ATOM      3  O   UNL     1      -1.997  -0.253  -1.221  0.00  0.00    -0.267 OA
ATOM      4  C   UNL     1      -2.393   1.302  -2.871  0.00  0.00    +0.075 A 
ATOM      5  C   UNL     1      -3.475   0.684  -3.619  0.00  0.00    -0.026 A 
ATOM      6  C   UNL     1      -3.978   1.319  -4.688  0.00  0.00    -0.008 A 
ATOM      7  S   UNL     1      -3.018   2.819  -4.769  0.00  0.00    -0.073 S 
ATOM      8  C   UNL     1      -1.968   2.550  -3.365  0.00  0.00    +0.117 A 
ATOM      9  N   UNL     1      -0.989   3.238  -2.790  0.00  0.00    -0.216 NA
ATOM     10  C   UNL     1      -0.372   2.773  -1.722  0.00  0.00    +0.173 A 
ATOM     11  C   UNL     1      -5.091   0.872  -5.601  0.00  0.00    +0.052 C 
ATOM     12  C   UNL     1      -4.026  -0.653  -3.197  0.00  0.00    +0.045 C 
ENDROOT
BRANCH   1  14
ATOM     13  C   UNL     1      -0.729   1.579   1.267  0.00  0.00    +0.027 C 
ATOM     14  C   UNL     1      -0.013   1.086   0.008  0.00  0.00    +0.124 C 
ENDBRANCH   1  14
BRANCH  10  15
ATOM     15  S   UNL     1       0.922   3.716  -0.987  0.00  0.00    -0.078 S 
BRANCH  15  16
ATOM     16  C   UNL     1       0.936   5.148  -2.094  0.00  0.00    +0.173 C 
BRANCH  16  17
ATOM     17  C   UNL     1       1.997   6.120  -1.646  0.00  0.00    +0.231 C 
ATOM     18  O   UNL     1       2.677   5.869  -0.674  0.00  0.00    -0.274 OA
ATOM     19  N   UNL     1       2.190   7.268  -2.325  0.00  0.00    -0.240 N 
ATOM     20  C   UNL     1       3.139   8.137  -1.924  0.00  0.00    +0.303 C 
ATOM     21  O   UNL     1       3.821   7.885  -0.950  0.00  0.00    -0.253 OA
ATOM     22  N   UNL     1       3.332   9.284  -2.603  0.00  0.00    -0.313 N 
ATOM     23  H   UNL     1       1.646   7.469  -3.102  0.00  0.00    +0.159 HD
ATOM     24  H   UNL     1       2.788   9.485  -3.381  0.00  0.00    +0.146 HD
ATOM     25  H   UNL     1       4.015   9.910  -2.315  0.00  0.00    +0.146 HD
ENDBRANCH  16  17
ENDBRANCH  15  16
ENDBRANCH  10  15
TORSDOF 4
