REMARK  Name = ZINC08748169
REMARK  9 active torsions:
REMARK  status: ('A' for Active; 'I' for Inactive)
REMARK    1  A    between atoms: C_1  and  C_2
REMARK    2  A    between atoms: C_2  and  C_3
REMARK    3  A    between atoms: C_2  and  O_4
REMARK    4  A    between atoms: O_4  and  C_5
REMARK    5  A    between atoms: C_5  and  C_7
REMARK    6  A    between atoms: C_8  and  N_29
REMARK    7  A    between atoms: C_14  and  C_27
REMARK    8  A    between atoms: C_17  and  C_19
REMARK    9  A    between atoms: C_27  and  O_28
REMARK                            x       y       z     vdW  Elec       q    Type
REMARK                         _______ _______ _______ _____ _____    ______ ____
ROOT
ATOM      1  C   UNL     1      -3.241  -1.184  -1.250  0.00  0.00    +0.108 C 
ATOM      2  C   UNL     1      -3.855  -1.301  -2.457  0.00  0.00    +0.196 C 
ATOM      3  O   UNL     1      -5.111  -1.766  -2.556  0.00  0.00    -0.435 OA
ATOM      4  C   UNL     1      -5.926  -1.750  -1.473  0.00  0.00    +0.215 A 
ATOM      5  C   UNL     1      -7.335  -1.833  -1.663  0.00  0.00    +0.228 A 
ATOM      6  O   UNL     1      -7.815  -1.919  -2.783  0.00  0.00    -0.284 OA
ATOM      7  C   UNL     1      -8.163  -1.815  -0.513  0.00  0.00    +0.098 A 
ATOM      8  C   UNL     1      -7.583  -1.718   0.700  0.00  0.00    +0.134 A 
ATOM      9  O   UNL     1      -6.260  -1.640   0.841  0.00  0.00    -0.457 OA
ATOM     10  C   UNL     1      -5.437  -1.657  -0.219  0.00  0.00    +0.163 A 
ATOM     11  C   UNL     1      -3.948  -1.577   0.017  0.00  0.00    +0.132 C 
ENDROOT
BRANCH  11  12
ATOM     12  C   UNL     1      -3.438  -2.919   0.476  0.00  0.00    -0.014 A 
ATOM     13  C   UNL     1      -3.567  -4.025  -0.344  0.00  0.00    +0.007 A 
ATOM     14  C   UNL     1      -3.100  -5.256   0.077  0.00  0.00    +0.020 A 
ATOM     15  C   UNL     1      -2.503  -5.382   1.319  0.00  0.00    +0.042 A 
ATOM     16  C   UNL     1      -2.373  -4.276   2.139  0.00  0.00    +0.040 A 
ATOM     17  C   UNL     1      -2.837  -3.043   1.715  0.00  0.00    +0.047 A 
ATOM     18 CL   UNL     1      -2.669  -1.653   2.742  0.00  0.00    -0.083 Cl
ATOM     19 CL   UNL     1      -1.917  -6.928   1.847  0.00  0.00    -0.083 Cl
ENDBRANCH  11  12
BRANCH   2  20
ATOM     20  N   UNL     1      -3.180  -0.939  -3.592  0.00  0.00    -0.329 N 
ATOM     21  H   UNL     1      -2.248  -0.675  -3.539  0.00  0.00    +0.145 HD
ATOM     22  H   UNL     1      -3.634  -0.947  -4.450  0.00  0.00    +0.145 HD
ENDBRANCH   2  20
BRANCH   1  23
ATOM     23  C   UNL     1      -1.929  -0.695  -1.186  0.00  0.00    +0.341 C 
ATOM     24  O   UNL     1      -1.724   0.461  -0.861  0.00  0.00    -0.245 OA
BRANCH  23  25
ATOM     25  O   UNL     1      -0.891  -1.506  -1.485  0.00  0.00    -0.459 OA
BRANCH  25  27
ATOM     26  C   UNL     1       0.970  -1.144   0.015  0.00  0.00    +0.052 C 
ATOM     27  C   UNL     1       0.419  -0.942  -1.399  0.00  0.00    +0.171 C 
ATOM     28  C   UNL     1       1.339  -1.632  -2.408  0.00  0.00    +0.052 C 
ENDBRANCH  25  27
ENDBRANCH  23  25
ENDBRANCH   1  23
BRANCH   8  29
ATOM     29  C   UNL     1      -8.454  -1.697   1.929  0.00  0.00    +0.230 C 
BRANCH  29  30
ATOM     30  O   UNL     1      -9.827  -1.791   1.542  0.00  0.00    -0.387 OA
ATOM     31  H   UNL     1     -10.446  -1.783   2.284  0.00  0.00    +0.210 HD
ENDBRANCH  29  30
ENDBRANCH   8  29
TORSDOF 7
