REMARK  Name = ZINC60463247
REMARK  5 active torsions:
REMARK  status: ('A' for Active; 'I' for Inactive)
REMARK    1  A    between atoms: C_6  and  C_7
REMARK    2  A    between atoms: C_7  and  N_8
REMARK    3  A    between atoms: C_9  and  C_11
REMARK    4  A    between atoms: C_11  and  N_12
REMARK    5  A    between atoms: N_12  and  C_13
REMARK                            x       y       z     vdW  Elec       q    Type
REMARK                         _______ _______ _______ _____ _____    ______ ____
ROOT
ATOM      1  N   UNL     1      -1.727  -1.016  -1.368  0.00  0.00    -0.310 N 
ATOM      2  C   UNL     1      -2.868  -1.691  -1.607  0.00  0.00    +0.230 C 
ATOM      3  O   UNL     1      -3.537  -2.098  -0.681  0.00  0.00    -0.274 OA
ATOM      4  H   UNL     1      -1.192  -0.690  -2.109  0.00  0.00    +0.149 HD
ENDROOT
BRANCH   1   5
ATOM      5  C   UNL     1      -1.294  -0.774   0.010  0.00  0.00    +0.139 C 
BRANCH   5  11
ATOM      6  C   UNL     1      -0.017   1.378   0.010  0.00  0.00    +0.009 A 
ATOM      7  C   UNL     1       1.170   2.088   0.002  0.00  0.00    +0.050 A 
ATOM      8  C   UNL     1       2.380   1.416  -0.013  0.00  0.00    +0.166 A 
ATOM      9  C   UNL     1       2.399   0.023  -0.021  0.00  0.00    +0.167 A 
ATOM     10  C   UNL     1       1.207  -0.682  -0.014  0.00  0.00    +0.054 A 
ATOM     11  C   UNL     1       0.002  -0.004   0.002  0.00  0.00    -0.027 A 
ATOM     12  O   UNL     1       3.698  -0.395  -0.036  0.00  0.00    -0.453 OA
ATOM     13  C   UNL     1       4.466   0.750  -0.450  0.00  0.00    +0.466 C 
ATOM     14  O   UNL     1       3.668   1.870  -0.024  0.00  0.00    -0.453 OA
ENDBRANCH   5  11
ENDBRANCH   1   5
BRANCH   2  15
ATOM     15  C   UNL     1      -3.314  -1.940  -3.025  0.00  0.00    +0.197 C 
BRANCH  15  16
ATOM     16  N   UNL     1      -4.573  -2.688  -3.017  0.00  0.00    -0.335 N 
ATOM     17  H   UNL     1      -4.982  -2.940  -2.175  0.00  0.00    +0.147 HD
BRANCH  16  18
ATOM     18  C   UNL     1      -5.186  -3.039  -4.225  0.00  0.00    +0.031 A 
ATOM     19  C   UNL     1      -4.598  -2.683  -5.432  0.00  0.00    +0.027 A 
ATOM     20  C   UNL     1      -5.204  -3.028  -6.624  0.00  0.00    +0.051 A 
ATOM     21  C   UNL     1      -6.400  -3.731  -6.621  0.00  0.00    +0.162 A 
ATOM     22  C   UNL     1      -6.989  -4.091  -5.415  0.00  0.00    +0.164 A 
ATOM     23  C   UNL     1      -6.379  -3.747  -4.218  0.00  0.00    +0.072 A 
ATOM     24  O   UNL     1      -8.158  -4.788  -5.392  0.00  0.00    -0.485 OA
ATOM     25  C   UNL     1      -8.928  -4.795  -6.599  0.00  0.00    +0.270 C 
ATOM     26  C   UNL     1      -7.981  -5.086  -7.771  0.00  0.00    +0.270 C 
ATOM     27  O   UNL     1      -6.984  -4.059  -7.807  0.00  0.00    -0.485 OA
ENDBRANCH  16  18
ENDBRANCH  15  16
ENDBRANCH   2  15
TORSDOF 5
