REMARK  Name = ZINC05745078
REMARK  3 active torsions:
REMARK  status: ('A' for Active; 'I' for Inactive)
REMARK    1  A    between atoms: C_1  and  C_2
REMARK    2  A    between atoms: C_5  and  C_8
REMARK    3  A    between atoms: C_8  and  C_16
REMARK                            x       y       z     vdW  Elec       q    Type
REMARK                         _______ _______ _______ _____ _____    ______ ____
ROOT
ATOM      1  C   UNL     1       0.002  -0.004   0.002  0.00  0.00    -0.025 C 
ATOM      2  C   UNL     1       0.000  -0.676  -1.176  0.00  0.00    +0.080 C 
ATOM      3  C   UNL     1       0.024  -2.132  -1.431  0.00  0.00    +0.256 C 
ATOM      4  O   UNL     1       0.049  -2.940  -0.522  0.00  0.00    -0.269 OA
ATOM      5  N   UNL     1       0.011  -2.511  -2.698  0.00  0.00    -0.270 N 
ATOM      6  C   UNL     1      -0.010  -1.612  -3.702  0.00  0.00    +0.118 C 
ATOM      7  S   UNL     1      -0.022  -1.903  -5.389  0.00  0.00    -0.027 S 
ATOM      8  S   UNL     1      -0.024  -0.044  -2.848  0.00  0.00    -0.061 S 
ATOM      9  C   UNL     1      -0.018   1.503   0.010  0.00  0.00    +0.045 C 
ATOM     10  H   UNL     1       0.022  -3.458  -2.909  0.00  0.00    +0.156 HD
ENDROOT
BRANCH   1  15
ATOM     11  C   UNL     1       0.088  -2.904   4.963  0.00  0.00    +0.044 C 
ATOM     12  C   UNL     1       0.066  -2.144   3.662  0.00  0.00    -0.050 A 
ATOM     13  C   UNL     1       1.140  -1.343   3.314  0.00  0.00    +0.004 A 
ATOM     14  C   UNL     1       1.127  -0.645   2.126  0.00  0.00    +0.008 A 
ATOM     15  C   UNL     1       0.024  -0.746   1.271  0.00  0.00    -0.021 A 
ATOM     16  C   UNL     1      -1.060  -1.552   1.633  0.00  0.00    +0.008 A 
ATOM     17  C   UNL     1      -1.029  -2.249   2.822  0.00  0.00    +0.004 A 
ENDBRANCH   1  15
TORSDOF 1
