REMARK  Name = ZINC04281573
REMARK  5 active torsions:
REMARK  status: ('A' for Active; 'I' for Inactive)
REMARK    1  A    between atoms: C_1  and  O_2
REMARK    2  A    between atoms: O_2  and  C_3
REMARK    3  A    between atoms: C_6  and  C_8
REMARK    4  A    between atoms: C_12  and  N_13
REMARK    5  A    between atoms: C_14  and  C_16
REMARK                            x       y       z     vdW  Elec       q    Type
REMARK                         _______ _______ _______ _____ _____    ______ ____
ROOT
ATOM      1  N   UNL     1      -3.485   7.551   0.072  0.00  0.00    -0.275 N 
ATOM      2  C   UNL     1      -3.598   6.208   0.067  0.00  0.00    +0.255 C 
ATOM      3  O   UNL     1      -4.699   5.691   0.074  0.00  0.00    -0.270 OA
ATOM      4  H   UNL     1      -2.607   7.964   0.066  0.00  0.00    +0.156 HD
ENDROOT
BRANCH   2   5
ATOM      5  C   UNL     1      -2.390   5.367   0.051  0.00  0.00    +0.119 A 
ATOM      6  C   UNL     1      -1.147   5.933   0.043  0.00  0.00    +0.212 A 
ATOM      7  O   UNL     1      -0.031   5.207   0.029  0.00  0.00    -0.462 OA
ATOM      8  C   UNL     1      -0.021   3.859   0.022  0.00  0.00    +0.138 A 
ATOM      9  C   UNL     1       1.182   3.162   0.008  0.00  0.00    +0.047 A 
ATOM     10  C   UNL     1       1.181   1.784   0.000  0.00  0.00    +0.004 A 
ATOM     11  C   UNL     1      -0.013   1.076   0.008  0.00  0.00    +0.001 A 
ATOM     12  C   UNL     1      -1.216   1.746   0.017  0.00  0.00    +0.015 A 
ATOM     13  C   UNL     1      -1.227   3.140   0.029  0.00  0.00    +0.065 A 
ATOM     14  C   UNL     1      -2.496   3.896   0.044  0.00  0.00    +0.205 A 
ATOM     15  O   UNL     1      -3.575   3.333   0.051  0.00  0.00    -0.286 OA
ENDBRANCH   2   5
BRANCH   1  20
ATOM     16  C   UNL     1      -4.708   9.730   0.101  0.00  0.00    +0.066 A 
ATOM     17  C   UNL     1      -6.036  10.297   0.110  0.00  0.00    +0.022 A 
ATOM     18  C   UNL     1      -7.071   9.438   0.116  0.00  0.00    +0.048 A 
ATOM     19  S   UNL     1      -6.280   7.843   0.101  0.00  0.00    -0.081 S 
ATOM     20  C   UNL     1      -4.622   8.342   0.087  0.00  0.00    +0.084 A 
BRANCH  16  24
ATOM     21  C   UNL     1      -2.534  12.695   0.114  0.00  0.00    +0.407 C 
ATOM     22  O   UNL     1      -1.431  12.186   0.103  0.00  0.00    -0.226 OA
ATOM     23  N   UNL     1      -3.635  11.918   0.114  0.00  0.00    -0.217 N 
ATOM     24  C   UNL     1      -3.512  10.575   0.101  0.00  0.00    +0.255 C 
ATOM     25  O   UNL     1      -2.407  10.066   0.089  0.00  0.00    -0.270 OA
ATOM     26  H   UNL     1      -4.516  12.324   0.124  0.00  0.00    +0.161 HD
BRANCH  21  28
ATOM     27  C   UNL     1      -1.429  14.810   0.127  0.00  0.00    +0.282 C 
ATOM     28  O   UNL     1      -2.657  14.035   0.128  0.00  0.00    -0.453 OA
ENDBRANCH  21  28
ENDBRANCH  16  24
ENDBRANCH   1  20
TORSDOF 4
