REMARK  Name = ZINC14162814
REMARK  10 active torsions:
REMARK  status: ('A' for Active; 'I' for Inactive)
REMARK    1  A    between atoms: C_1  and  C_2
REMARK    2  A    between atoms: C_2  and  C_3
REMARK    3  A    between atoms: C_3  and  C_4
REMARK    4  A    between atoms: N_8  and  C_12
REMARK    5  A    between atoms: C_12  and  C_13
REMARK    6  A    between atoms: N_15  and  C_16
REMARK    7  A    between atoms: C_16  and  C_18
REMARK    8  A    between atoms: C_16  and  C_19
REMARK    9  A    between atoms: C_22  and  C_26
REMARK   10  A    between atoms: C_23  and  C_25
REMARK                            x       y       z     vdW  Elec       q    Type
REMARK                         _______ _______ _______ _____ _____    ______ ____
ROOT
ATOM      1  C   UNL     1       1.147   1.655   0.000  0.00  0.00    +0.231 C 
ATOM      2  O   UNL     1       1.130   2.868   0.007  0.00  0.00    -0.274 OA
ATOM      3  N   UNL     1      -0.011   0.966   0.007  0.00  0.00    -0.307 N 
ATOM      4  H   UNL     1       0.002  -0.004   0.002  0.00  0.00    +0.149 HD
ENDROOT
BRANCH   3   5
ATOM      5  C   UNL     1      -1.290   1.681   0.017  0.00  0.00    +0.100 C 
ATOM      6  C   UNL     1      -1.667   2.032   1.458  0.00  0.00    +0.033 C 
BRANCH   5   7
ATOM      7  C   UNL     1      -2.360   0.806  -0.583  0.00  0.00    -0.027 A 
ATOM      8  C   UNL     1      -2.384  -0.548  -0.302  0.00  0.00    +0.006 A 
ATOM      9  C   UNL     1      -3.368  -1.350  -0.848  0.00  0.00    +0.004 A 
ATOM     10  C   UNL     1      -4.322  -0.800  -1.685  0.00  0.00    -0.048 A 
ATOM     11  C   UNL     1      -4.295   0.552  -1.970  0.00  0.00    -0.047 A 
ATOM     12  C   UNL     1      -3.313   1.355  -1.419  0.00  0.00    +0.009 A 
ATOM     13  C   UNL     1      -5.334   1.151  -2.882  0.00  0.00    +0.044 C 
ATOM     14  C   UNL     1      -5.391  -1.676  -2.285  0.00  0.00    +0.044 C 
ENDBRANCH   5   7
ENDBRANCH   3   5
BRANCH   1  15
ATOM     15  C   UNL     1       2.462   0.920  -0.017  0.00  0.00    +0.213 C 
BRANCH  15  19
ATOM     16  C   UNL     1       5.218   3.332   0.604  0.00  0.00    +0.161 C 
ATOM     17  C   UNL     1       4.142   2.381   1.090  0.00  0.00    +0.244 C 
ATOM     18  O   UNL     1       3.861   2.119   2.240  0.00  0.00    -0.273 OA
ATOM     19  N   UNL     1       3.562   1.887  -0.022  0.00  0.00    -0.216 N 
ATOM     20  C   UNL     1       4.120   2.385  -1.131  0.00  0.00    +0.310 C 
ATOM     21  O   UNL     1       3.770   2.086  -2.256  0.00  0.00    -0.252 OA
ATOM     22  N   UNL     1       5.109   3.256  -0.863  0.00  0.00    -0.288 N 
ATOM     23  H   UNL     1       5.649   3.737  -1.509  0.00  0.00    +0.151 HD
BRANCH  16  24
ATOM     24  C   UNL     1       6.599   2.863   1.067  0.00  0.00    +0.031 C 
BRANCH  24  26
ATOM     25  C   UNL     1       9.030   3.435   1.134  0.00  0.00    +0.004 C 
ATOM     26  C   UNL     1       7.649   3.903   0.671  0.00  0.00    -0.001 C 
ENDBRANCH  24  26
ENDBRANCH  16  24
ENDBRANCH  15  19
ENDBRANCH   1  15
TORSDOF 6
