REMARK  Name = ZINC14608203
REMARK  8 active torsions:
REMARK  status: ('A' for Active; 'I' for Inactive)
REMARK    1  A    between atoms: C_1  and  C_2
REMARK    2  A    between atoms: C_2  and  N_3
REMARK    3  A    between atoms: C_25  and  C_27
REMARK    4  A    between atoms: C_27  and  C_28
REMARK    5  A    between atoms: C_27  and  C_29
REMARK    6  A    between atoms: C_31  and  C_33
REMARK    7  A    between atoms: C_33  and  C_34
REMARK    8  A    between atoms: C_33  and  C_35
REMARK                            x       y       z     vdW  Elec       q    Type
REMARK                         _______ _______ _______ _____ _____    ______ ____
ROOT
ATOM      1  N   UNL     1      -3.545  -0.024   0.654  0.00  0.00    -0.267 N 
ATOM      2  C   UNL     1      -3.833   0.449   1.922  0.00  0.00    +0.044 A 
ATOM      3  C   UNL     1      -4.543  -0.163   2.956  0.00  0.00    +0.024 A 
ATOM      4  C   UNL     1      -4.681   0.549   4.138  0.00  0.00    +0.002 A 
ATOM      5  C   UNL     1      -4.143   1.810   4.298  0.00  0.00    +0.001 A 
ATOM      6  C   UNL     1      -3.434   2.430   3.276  0.00  0.00    +0.010 A 
ATOM      7  C   UNL     1      -3.293   1.729   2.098  0.00  0.00    +0.031 A 
ATOM      8  C   UNL     1      -2.609   2.078   0.812  0.00  0.00    +0.247 C 
ATOM      9  C   UNL     1      -2.830   0.864  -0.068  0.00  0.00    +0.273 C 
ATOM     10  O   UNL     1      -2.439   0.719  -1.206  0.00  0.00    -0.270 OA
ATOM     11  N   UNL     1      -3.216   3.255   0.201  0.00  0.00    -0.212 NA
ATOM     12  C   UNL     1      -2.640   4.404   0.097  0.00  0.00    +0.201 C 
ATOM     13  N   UNL     1      -1.351   4.642   0.553  0.00  0.00    -0.180 N 
ATOM     14  C   UNL     1      -0.589   3.528   0.902  0.00  0.00    +0.215 A 
ATOM     15  N   UNL     1      -1.179   2.286   1.021  0.00  0.00    -0.274 N 
ATOM     16  C   UNL     1      -0.193   1.404   1.347  0.00  0.00    +0.073 A 
ATOM     17  C   UNL     1      -0.189   0.034   1.584  0.00  0.00    +0.028 A 
ATOM     18  C   UNL     1       1.027  -0.547   1.906  0.00  0.00    +0.002 A 
ATOM     19  C   UNL     1       2.194   0.191   1.993  0.00  0.00    +0.002 A 
ATOM     20  C   UNL     1       2.218   1.554   1.763  0.00  0.00    +0.030 A 
ATOM     21  C   UNL     1       1.001   2.164   1.435  0.00  0.00    +0.091 A 
ATOM     22  N   UNL     1       0.685   3.444   1.153  0.00  0.00    -0.214 NA
ATOM     23  C   UNL     1      -0.864   5.893   0.667  0.00  0.00    +0.231 C 
ATOM     24  O   UNL     1      -1.585   6.845   0.462  0.00  0.00    -0.274 OA
ATOM     25  N   UNL     1      -3.332   5.439  -0.499  0.00  0.00    -0.257 N 
ATOM     26  C   UNL     1      -4.621   5.271  -0.857  0.00  0.00    +0.222 C 
ATOM     27  O   UNL     1      -5.172   4.210  -0.656  0.00  0.00    -0.275 OA
ATOM     28  H   UNL     1      -2.891   6.288  -0.659  0.00  0.00    +0.157 HD
ENDROOT
BRANCH  23  29
ATOM     29  C   UNL     1       0.578   6.109   1.049  0.00  0.00    +0.070 C 
ATOM     30  C   UNL     1       1.465   5.923  -0.183  0.00  0.00    +0.017 C 
ATOM     31  C   UNL     1       0.754   7.527   1.595  0.00  0.00    +0.017 C 
ENDBRANCH  23  29
BRANCH  26  32
ATOM     32  C   UNL     1      -5.376   6.401  -1.507  0.00  0.00    +0.069 C 
ATOM     33  C   UNL     1      -4.679   6.798  -2.810  0.00  0.00    +0.017 C 
ATOM     34  C   UNL     1      -6.806   5.950  -1.810  0.00  0.00    +0.017 C 
ENDBRANCH  26  32
BRANCH   1  36
ATOM     35  C   UNL     1      -5.337  -1.209  -0.515  0.00  0.00    +0.025 C 
ATOM     36  C   UNL     1      -3.967  -1.335   0.154  0.00  0.00    +0.110 C 
ENDBRANCH   1  36
TORSDOF 3
