REMARK  Name = ZINC43408015
REMARK  4 active torsions:
REMARK  status: ('A' for Active; 'I' for Inactive)
REMARK    1  A    between atoms: C_3  and  S_10
REMARK    2  A    between atoms: C_6  and  N_7
REMARK    3  A    between atoms: S_10  and  C_11
REMARK    4  A    between atoms: C_12  and  C_20
REMARK                            x       y       z     vdW  Elec       q    Type
REMARK                         _______ _______ _______ _____ _____    ______ ____
ROOT
ATOM      1  C   UNL     1       5.134   1.061   0.107  0.00  0.00    +0.119 A 
ATOM      2  C   UNL     1       6.485   1.427   0.241  0.00  0.00    +0.084 A 
ATOM      3  C   UNL     1       7.445   0.416   0.343  0.00  0.00    +0.027 A 
ATOM      4  C   UNL     1       7.025  -0.903   0.307  0.00  0.00    -0.025 A 
ATOM      5  C   UNL     1       5.677  -1.190   0.173  0.00  0.00    +0.046 A 
ATOM      6  N   UNL     1       4.786  -0.215   0.084  0.00  0.00    -0.243 NA
ATOM      7  C   UNL     1       5.477  -2.692   0.162  0.00  0.00    +0.056 C 
ATOM      8  C   UNL     1       6.870  -3.284  -0.139  0.00  0.00    +0.011 C 
ATOM      9  C   UNL     1       7.818  -2.189   0.393  0.00  0.00    +0.037 C 
ENDROOT
BRANCH   2  10
ATOM     10  C   UNL     1       6.869   2.807   0.273  0.00  0.00    +0.102 C 
ATOM     11  N   UNL     1       7.174   3.901   0.297  0.00  0.00    -0.191 NA
ENDBRANCH   2  10
BRANCH   1  12
ATOM     12  S   UNL     1       3.896   2.308  -0.023  0.00  0.00    -0.069 S 
BRANCH  12  15
ATOM     13  C   UNL     1       0.604   0.340   1.186  0.00  0.00    +0.034 A 
ATOM     14  C   UNL     1       1.792   1.044   1.186  0.00  0.00    +0.017 A 
ATOM     15  C   UNL     1       2.381   1.408  -0.018  0.00  0.00    +0.014 A 
ATOM     16  C   UNL     1       1.774   1.061  -1.219  0.00  0.00    +0.017 A 
ATOM     17  C   UNL     1       0.586   0.356  -1.211  0.00  0.00    +0.034 A 
ATOM     18  C   UNL     1       0.002  -0.004  -0.011  0.00  0.00    +0.126 A 
BRANCH  18  19
ATOM     19  N   UNL     1      -1.271  -0.760  -0.006  0.00  0.00    +0.056 N 
ATOM     20  O   UNL     1      -1.783  -1.076   1.042  0.00  0.00    -0.126 OA
ATOM     21  O   UNL     1      -1.798  -1.061  -1.052  0.00  0.00    -0.126 OA
ENDBRANCH  18  19
ENDBRANCH  12  15
ENDBRANCH   1  12
TORSDOF 4
