REMARK  Name = ZINC40625182
REMARK  4 active torsions:
REMARK  status: ('A' for Active; 'I' for Inactive)
REMARK    1  A    between atoms: C_1  and  N_2
REMARK    2  A    between atoms: N_2  and  C_3
REMARK    3  A    between atoms: N_2  and  S_4
REMARK    4  A    between atoms: S_4  and  N_7
REMARK                            x       y       z     vdW  Elec       q    Type
REMARK                         _______ _______ _______ _____ _____    ______ ____
ROOT
ATOM      1  N   UNL     1       1.581  -1.045  -1.877  0.00  0.00    -0.157 NA
ATOM      2  C   UNL     1       2.280  -0.045  -2.698  0.00  0.00    +0.139 C 
ATOM      3  C   UNL     1       3.610   0.290  -2.011  0.00  0.00    +0.177 C 
ATOM      4  O   UNL     1       4.326  -0.921  -1.767  0.00  0.00    -0.372 OA
ATOM      5  C   UNL     1       3.676  -1.827  -0.874  0.00  0.00    +0.160 C 
ATOM      6  C   UNL     1       2.318  -2.241  -1.452  0.00  0.00    +0.132 C 
ATOM      7  C   UNL     1       2.521  -3.170  -2.670  0.00  0.00    +0.189 C 
ATOM      8  S   UNL     1       4.140  -3.964  -2.308  0.00  0.00    -0.027 S 
ATOM      9  O   UNL     1       3.927  -5.340  -2.026  0.00  0.00    -0.174 OA
ATOM     10  O   UNL     1       5.072  -3.592  -3.313  0.00  0.00    -0.174 OA
ATOM     11  C   UNL     1       4.561  -3.100  -0.750  0.00  0.00    +0.199 C 
ENDROOT
BRANCH   1  12
ATOM     12  S   UNL     1      -0.000  -0.824  -1.437  0.00  0.00    +0.099 S 
ATOM     13  O   UNL     1      -0.531  -2.115  -1.167  0.00  0.00    -0.141 OA
ATOM     14  O   UNL     1      -0.572   0.049  -2.401  0.00  0.00    -0.141 OA
BRANCH  12  16
ATOM     15  C   UNL     1      -0.018   1.461   0.010  0.00  0.00    +0.132 C 
ATOM     16  N   UNL     1       0.002  -0.004   0.002  0.00  0.00    -0.172 NA
ATOM     17  C   UNL     1       0.024  -0.743   1.267  0.00  0.00    +0.132 C 
ENDBRANCH  12  16
ENDBRANCH   1  12
TORSDOF 2
