REMARK  Name = ZINC35676798
REMARK  5 active torsions:
REMARK  status: ('A' for Active; 'I' for Inactive)
REMARK    1  A    between atoms: C_1  and  C_2
REMARK    2  A    between atoms: C_5  and  S_9
REMARK    3  A    between atoms: C_6  and  C_8
REMARK    4  A    between atoms: S_9  and  C_12
REMARK    5  A    between atoms: C_12  and  C_18
REMARK                            x       y       z     vdW  Elec       q    Type
REMARK                         _______ _______ _______ _____ _____    ______ ____
ROOT
ATOM      1  S   UNL     1      -0.608  -4.462   0.163  0.00  0.00    +0.016 S 
ATOM      2  O   UNL     1      -1.743  -4.549   1.014  0.00  0.00    -0.168 OA
ATOM      3  O   UNL     1      -0.680  -4.897  -1.188  0.00  0.00    -0.168 OA
ENDROOT
BRANCH   1   8
ATOM      4  C   UNL     1       0.613   1.437  -0.179  0.00  0.00    +0.044 C 
ATOM      5  C   UNL     1       0.308  -0.037  -0.094  0.00  0.00    -0.050 A 
ATOM      6  C   UNL     1      -0.082  -0.593   1.110  0.00  0.00    +0.005 A 
ATOM      7  C   UNL     1      -0.362  -1.944   1.189  0.00  0.00    +0.027 A 
ATOM      8  C   UNL     1      -0.252  -2.740   0.063  0.00  0.00    +0.093 A 
ATOM      9  C   UNL     1       0.137  -2.183  -1.141  0.00  0.00    -0.025 A 
ATOM     10  C   UNL     1       0.413  -0.831  -1.220  0.00  0.00    +0.008 A 
ATOM     11  C   UNL     1       0.257  -3.050  -2.368  0.00  0.00    +0.046 C 
ENDBRANCH   1   8
BRANCH   1  12
ATOM     12  C   UNL     1       0.840  -5.191   0.977  0.00  0.00    +0.178 C 
ATOM     13  C   UNL     1       2.105  -4.809   0.206  0.00  0.00    +0.045 C 
ATOM     14  C   UNL     1       3.326  -5.423   0.892  0.00  0.00    +0.003 C 
ATOM     15  C   UNL     1       3.185  -6.946   0.918  0.00  0.00    +0.000 C 
ATOM     16  C   UNL     1       1.920  -7.328   1.689  0.00  0.00    +0.003 C 
ATOM     17  C   UNL     1       0.699  -6.714   1.003  0.00  0.00    +0.045 C 
BRANCH  12  18
ATOM     18  C   UNL     1       0.935  -4.684   2.356  0.00  0.00    +0.093 C 
ATOM     19  N   UNL     1       1.008  -4.293   3.420  0.00  0.00    -0.194 NA
ENDBRANCH  12  18
ENDBRANCH   1  12
TORSDOF 3
