REMARK  Name = ZINC00698354
REMARK  10 active torsions:
REMARK  status: ('A' for Active; 'I' for Inactive)
REMARK    1  A    between atoms: C_1  and  C_2
REMARK    2  A    between atoms: C_3  and  C_30
REMARK    3  A    between atoms: C_4  and  N_9
REMARK    4  A    between atoms: C_6  and  C_8
REMARK    5  A    between atoms: N_12  and  S_15
REMARK    6  A    between atoms: S_15  and  C_18
REMARK    7  A    between atoms: C_18  and  C_19
REMARK    8  A    between atoms: C_24  and  C_25
REMARK    9  A    between atoms: C_24  and  C_26
REMARK   10  A    between atoms: C_30  and  C_31
REMARK                            x       y       z     vdW  Elec       q    Type
REMARK                         _______ _______ _______ _____ _____    ______ ____
ROOT
ATOM      1  N   UNL     1      -0.006   1.415   0.035  0.00  0.00    -0.312 N 
ATOM      2  C   UNL     1      -0.758   1.957  -1.104  0.00  0.00    +0.123 C 
ATOM      3  C   UNL     1      -0.906   3.473  -0.939  0.00  0.00    +0.128 C 
ATOM      4  N   UNL     1       0.431   4.054  -0.742  0.00  0.00    -0.178 NA
ATOM      5  C   UNL     1       1.298   3.471   0.293  0.00  0.00    +0.128 C 
ATOM      6  C   UNL     1       1.360   1.955   0.079  0.00  0.00    +0.123 C 
ENDROOT
BRANCH   1  10
ATOM      7  C   UNL     1      -0.968  -2.929   2.142  0.00  0.00    +0.066 C 
ATOM      8  C   UNL     1      -0.447  -2.087   1.006  0.00  0.00    +0.047 A 
ATOM      9  C   UNL     1      -0.484  -0.708   1.084  0.00  0.00    +0.018 A 
ATOM     10  C   UNL     1       0.010   0.029   0.006  0.00  0.00    +0.129 A 
ATOM     11  N   UNL     1       0.490  -0.619  -1.052  0.00  0.00    -0.217 NA
ATOM     12  C   UNL     1       0.510  -1.936  -1.081  0.00  0.00    +0.128 A 
ATOM     13  N   UNL     1       0.051  -2.660  -0.080  0.00  0.00    -0.237 NA
ATOM     14  C   UNL     1       1.067  -2.633  -2.295  0.00  0.00    +0.088 C 
BRANCH   9  15
ATOM     15  C   UNL     1      -1.043  -0.018   2.301  0.00  0.00    +0.075 C 
BRANCH  15  16
ATOM     16  C   UNL     1      -2.541   0.095   2.171  0.00  0.00    -0.043 A 
ATOM     17  C   UNL     1      -3.096   1.148   1.469  0.00  0.00    +0.005 A 
ATOM     18  C   UNL     1      -4.469   1.248   1.344  0.00  0.00    +0.020 A 
ATOM     19  C   UNL     1      -5.288   0.301   1.933  0.00  0.00    +0.041 A 
ATOM     20  C   UNL     1      -4.731  -0.750   2.640  0.00  0.00    +0.020 A 
ATOM     21  C   UNL     1      -3.358  -0.853   2.759  0.00  0.00    +0.005 A 
ATOM     22 CL   UNL     1      -7.012   0.430   1.782  0.00  0.00    -0.084 Cl
ENDBRANCH  15  16
ENDBRANCH   9  15
ENDBRANCH   1  10
BRANCH   4  23
ATOM     23  S   UNL     1       0.946   5.332  -1.662  0.00  0.00    +0.033 S 
ATOM     24  O   UNL     1      -0.246   5.996  -2.059  0.00  0.00    -0.158 OA
ATOM     25  O   UNL     1       1.910   5.995  -0.855  0.00  0.00    -0.158 OA
BRANCH  23  26
ATOM     26  C   UNL     1       1.750   4.576  -3.101  0.00  0.00    +0.200 C 
BRANCH  26  27
ATOM     27  C   UNL     1       2.270   5.675  -4.030  0.00  0.00    +0.055 C 
ATOM     28  C   UNL     1       1.189   6.622  -4.635  0.00  0.00    +0.017 C 
ATOM     29  C   UNL     1       1.902   7.252  -5.878  0.00  0.00    +0.005 C 
ATOM     30  C   UNL     1       3.332   6.629  -5.870  0.00  0.00    +0.003 C 
ATOM     31  C   UNL     1       3.018   5.191  -5.323  0.00  0.00    -0.018 C 
ATOM     32  C   UNL     1       4.301   4.426  -4.992  0.00  0.00    +0.012 C 
ATOM     33  C   UNL     1       2.102   4.391  -6.252  0.00  0.00    +0.012 C 
ATOM     34  C   UNL     1       4.019   7.257  -4.619  0.00  0.00    +0.079 C 
ATOM     35  C   UNL     1       3.318   6.621  -3.427  0.00  0.00    +0.142 C 
ATOM     36  O   UNL     1       3.539   6.817  -2.256  0.00  0.00    -0.297 OA
ENDBRANCH  26  27
ENDBRANCH  23  26
ENDBRANCH   4  23
TORSDOF 6
