REMARK  Name = ZINC07018848
REMARK  6 active torsions:
REMARK  status: ('A' for Active; 'I' for Inactive)
REMARK    1  A    between atoms: C_1  and  C_2
REMARK    2  A    between atoms: C_2  and  C_21
REMARK    3  A    between atoms: N_5  and  C_9
REMARK    4  A    between atoms: C_9  and  C_10
REMARK    5  A    between atoms: N_12  and  C_13
REMARK    6  A    between atoms: C_13  and  C_19
REMARK                            x       y       z     vdW  Elec       q    Type
REMARK                         _______ _______ _______ _____ _____    ______ ____
ROOT
ATOM      1  C   UNL     1       7.102   0.433   3.609  0.00  0.00    +0.047 C 
ATOM      2  C   UNL     1       5.572   0.451   3.633  0.00  0.00    +0.135 C 
ATOM      3  C   UNL     1       5.018   0.538   2.225  0.00  0.00    +0.251 C 
ATOM      4  O   UNL     1       5.168  -0.264   1.328  0.00  0.00    -0.272 OA
ATOM      5  N   UNL     1       4.323   1.692   2.177  0.00  0.00    -0.215 N 
ATOM      6  C   UNL     1       4.364   2.342   3.346  0.00  0.00    +0.310 C 
ATOM      7  O   UNL     1       3.816   3.408   3.546  0.00  0.00    -0.252 OA
ATOM      8  N   UNL     1       5.079   1.682   4.275  0.00  0.00    -0.281 N 
ATOM      9  H   UNL     1       5.240   1.963   5.190  0.00  0.00    +0.152 HD
ENDROOT
BRANCH   2  10
ATOM     10  C   UNL     1       5.036  -0.767   4.340  0.00  0.00    -0.015 A 
ATOM     11  C   UNL     1       4.705  -1.897   3.615  0.00  0.00    +0.007 A 
ATOM     12  C   UNL     1       4.219  -3.016   4.263  0.00  0.00    +0.020 A 
ATOM     13  C   UNL     1       4.054  -3.003   5.637  0.00  0.00    +0.041 A 
ATOM     14  C   UNL     1       4.380  -1.870   6.361  0.00  0.00    +0.020 A 
ATOM     15  C   UNL     1       4.871  -0.753   5.712  0.00  0.00    +0.007 A 
ATOM     16 CL   UNL     1       3.437  -4.407   6.451  0.00  0.00    -0.084 Cl
ENDBRANCH   2  10
BRANCH   5  17
ATOM     17  C   UNL     1       3.614   2.177   0.990  0.00  0.00    +0.213 C 
BRANCH  17  18
ATOM     18  C   UNL     1       2.200   1.655   1.001  0.00  0.00    +0.232 C 
ATOM     19  O   UNL     1       1.822   0.948   1.910  0.00  0.00    -0.274 OA
ATOM     20  N   UNL     1       1.357   1.975  -0.000  0.00  0.00    -0.296 N 
ATOM     21  H   UNL     1       1.659   2.541  -0.728  0.00  0.00    +0.150 HD
BRANCH  20  22
ATOM     22  C   UNL     1      -0.018   1.468   0.010  0.00  0.00    +0.121 C 
ATOM     23  C   UNL     1      -0.734   1.961   1.269  0.00  0.00    +0.041 C 
ATOM     24  C   UNL     1      -2.169   1.432   1.280  0.00  0.00    +0.003 C 
ATOM     25  C   UNL     1      -2.909   1.938   0.040  0.00  0.00    +0.000 C 
ATOM     26  C   UNL     1      -2.193   1.445  -1.219  0.00  0.00    +0.003 C 
ATOM     27  C   UNL     1      -0.758   1.975  -1.229  0.00  0.00    +0.041 C 
BRANCH  22  28
ATOM     28  C   UNL     1       0.002  -0.004   0.002  0.00  0.00    +0.088 C 
ATOM     29  N   UNL     1       0.018  -1.140  -0.004  0.00  0.00    -0.194 NA
ENDBRANCH  22  28
ENDBRANCH  20  22
ENDBRANCH  17  18
ENDBRANCH   5  17
TORSDOF 5
