REMARK  Name = ZINC13260516
REMARK  6 active torsions:
REMARK  status: ('A' for Active; 'I' for Inactive)
REMARK    1  A    between atoms: C_1  and  C_2
REMARK    2  A    between atoms: C_2  and  C_3
REMARK    3  A    between atoms: C_2  and  N_4
REMARK    4  A    between atoms: C_8  and  C_11
REMARK    5  A    between atoms: N_13  and  C_14
REMARK    6  A    between atoms: C_19  and  C_20
REMARK                            x       y       z     vdW  Elec       q    Type
REMARK                         _______ _______ _______ _____ _____    ______ ____
ROOT
ATOM      1  C   UNL     1       2.760  -0.157  -0.014  0.00  0.00    +0.250 C 
ATOM      2  O   UNL     1       1.782  -0.879  -0.012  0.00  0.00    -0.270 OA
ATOM      3  N   UNL     1       2.610   1.181  -0.071  0.00  0.00    -0.281 N 
ATOM      4  H   UNL     1       3.389   1.753  -0.154  0.00  0.00    +0.155 HD
ENDROOT
BRANCH   1   9
ATOM      5  N   UNL     1       7.801  -2.500   0.217  0.00  0.00    -0.244 N 
ATOM      6  C   UNL     1       6.669  -1.737   0.156  0.00  0.00    +0.158 A 
ATOM      7  C   UNL     1       5.579  -2.633   0.161  0.00  0.00    +0.039 A 
ATOM      8  C   UNL     1       4.277  -2.131   0.112  0.00  0.00    +0.027 A 
ATOM      9  C   UNL     1       4.112  -0.747   0.047  0.00  0.00    +0.056 A 
ATOM     10  C   UNL     1       5.246   0.078   0.045  0.00  0.00    +0.126 A 
ATOM     11  N   UNL     1       6.457  -0.426   0.098  0.00  0.00    -0.235 NA
ATOM     12  C   UNL     1       6.149  -3.975   0.231  0.00  0.00    +0.144 A 
ATOM     13  N   UNL     1       7.445  -3.851   0.261  0.00  0.00    -0.177 NA
BRANCH   5  15
ATOM     14  C   UNL     1       9.868  -2.428   1.521  0.00  0.00    +0.032 C 
ATOM     15  C   UNL     1       9.171  -1.984   0.234  0.00  0.00    +0.103 C 
ATOM     16  C   UNL     1       9.936  -2.529  -0.974  0.00  0.00    +0.032 C 
ENDBRANCH   5  15
ENDBRANCH   1   9
BRANCH   3  17
ATOM     17  C   UNL     1       1.337   1.742  -0.010  0.00  0.00    +0.048 A 
ATOM     18  C   UNL     1       0.301   1.056   0.610  0.00  0.00    +0.025 A 
ATOM     19  C   UNL     1      -0.961   1.611   0.663  0.00  0.00    +0.017 A 
ATOM     20  C   UNL     1      -1.203   2.859   0.111  0.00  0.00    +0.019 A 
ATOM     21  C   UNL     1      -0.187   3.555  -0.509  0.00  0.00    +0.032 A 
ATOM     22  C   UNL     1       1.095   3.003  -0.576  0.00  0.00    +0.085 A 
ATOM     23 BR   UNL     1      -2.937   3.608   0.200  0.00  0.00    -0.050 Br
BRANCH  22  24
ATOM     24  C   UNL     1       2.186   3.741  -1.238  0.00  0.00    +0.388 C 
ATOM     25  O   UNL     1       3.274   3.219  -1.379  0.00  0.00    -0.241 OA
ATOM     26  O   UNL     1       1.977   4.994  -1.685  0.00  0.00    -0.241 OA
ENDBRANCH  22  24
ENDBRANCH   3  17
TORSDOF 4
