REMARK  Name = ZINC60062979
REMARK  6 active torsions:
REMARK  status: ('A' for Active; 'I' for Inactive)
REMARK    1  A    between atoms: C_4  and  N_13
REMARK    2  A    between atoms: C_5  and  N_7
REMARK    3  A    between atoms: N_7  and  C_8
REMARK    4  A    between atoms: C_8  and  C_9
REMARK    5  A    between atoms: C_14  and  C_16
REMARK    6  A    between atoms: C_20  and  N_22
REMARK                            x       y       z     vdW  Elec       q    Type
REMARK                         _______ _______ _______ _____ _____    ______ ____
ROOT
ATOM      1  C   UNL     1      -0.010   1.390  -0.021  0.00  0.00    +0.002 A 
ATOM      2  C   UNL     1       1.178   2.098  -0.025  0.00  0.00    +0.002 A 
ATOM      3  C   UNL     1       2.387   1.428  -0.030  0.00  0.00    +0.025 A 
ATOM      4  C   UNL     1       2.411   0.041  -0.031  0.00  0.00    +0.055 A 
ATOM      5  C   UNL     1       1.212  -0.673  -0.027  0.00  0.00    +0.049 A 
ATOM      6  C   UNL     1       0.004   0.008  -0.021  0.00  0.00    +0.025 A 
ENDROOT
BRANCH   4   7
ATOM      7  N   UNL     1       3.634  -0.640  -0.037  0.00  0.00    -0.280 N 
ATOM      8  C   UNL     1       4.741  -0.043   0.448  0.00  0.00    +0.248 C 
ATOM      9  O   UNL     1       4.659   1.046   0.982  0.00  0.00    -0.270 OA
ATOM     10  H   UNL     1       3.686  -1.542  -0.391  0.00  0.00    +0.155 HD
BRANCH   8  11
ATOM     11  C   UNL     1       6.054  -0.712   0.331  0.00  0.00    +0.039 A 
ATOM     12  C   UNL     1       6.152  -1.960  -0.287  0.00  0.00    +0.013 A 
ATOM     13  C   UNL     1       7.380  -2.579  -0.394  0.00  0.00    +0.003 A 
ATOM     14  C   UNL     1       8.513  -1.965   0.111  0.00  0.00    +0.033 A 
ATOM     15  C   UNL     1       8.423  -0.729   0.725  0.00  0.00    +0.127 A 
ATOM     16  C   UNL     1       7.201  -0.096   0.832  0.00  0.00    +0.045 A 
BRANCH  15  17
ATOM     17  N   UNL     1       9.640  -0.081   1.263  0.00  0.00    +0.056 N 
ATOM     18  O   UNL     1      10.712  -0.632   1.165  0.00  0.00    -0.126 OA
ATOM     19  O   UNL     1       9.562   1.000   1.800  0.00  0.00    -0.126 OA
ENDBRANCH  15  17
ENDBRANCH   8  11
ENDBRANCH   4   7
BRANCH   5  20
ATOM     20  N   UNL     1       1.229  -2.072  -0.028  0.00  0.00    -0.334 N 
ATOM     21  H   UNL     1       2.075  -2.547  -0.032  0.00  0.00    +0.146 HD
BRANCH  20  22
ATOM     22  C   UNL     1      -0.030  -2.820  -0.023  0.00  0.00    +0.215 C 
BRANCH  22  23
ATOM     23  C   UNL     1       0.267  -4.320  -0.026  0.00  0.00    +0.405 C 
ATOM     24  F   UNL     1       1.010  -4.650   1.113  0.00  0.00    -0.169 F 
ATOM     25  F   UNL     1      -0.936  -5.034  -0.021  0.00  0.00    -0.169 F 
ATOM     26  F   UNL     1       1.000  -4.648  -1.172  0.00  0.00    -0.169 F 
ENDBRANCH  22  23
ENDBRANCH  20  22
ENDBRANCH   5  20
TORSDOF 6
