REMARK  Name = ZINC12305931
REMARK  11 active torsions:
REMARK  status: ('A' for Active; 'I' for Inactive)
REMARK    1  A    between atoms: C_1  and  C_2
REMARK    2  A    between atoms: C_3  and  C_29
REMARK    3  A    between atoms: C_4  and  O_27
REMARK    4  A    between atoms: C_7  and  C_8
REMARK    5  A    between atoms: C_8  and  N_69
REMARK    6  A    between atoms: C_9  and  C_10
REMARK    7  A    between atoms: C_9  and  N_69
REMARK    8  A    between atoms: C_16  and  C_17
REMARK    9  A    between atoms: C_16  and  N_69
REMARK   10  A    between atoms: C_22  and  N_71
REMARK   11  A    between atoms: O_27  and  C_28
REMARK                            x       y       z     vdW  Elec       q    Type
REMARK                         _______ _______ _______ _____ _____    ______ ____
ROOT
ATOM      1  N   UNL     1       0.711   3.980   4.710  0.00  0.00    +0.385 N 
ATOM      2  H   UNL     1       1.042   3.872   3.744  0.00  0.00    -0.081 HD
ENDROOT
BRANCH   1   3
ATOM      3  C   UNL     1      -0.116   2.809   5.067  0.00  0.00    -0.042 C 
BRANCH   3  10
ATOM      4  C   UNL     1       1.014   1.545   2.730  0.00  0.00    +0.044 C 
ATOM      5  C   UNL     1      -0.459   1.861   2.777  0.00  0.00    -0.043 A 
ATOM      6  C   UNL     1      -1.268   1.546   1.702  0.00  0.00    -0.006 A 
ATOM      7  C   UNL     1      -2.622   1.842   1.744  0.00  0.00    +0.123 A 
ATOM      8  C   UNL     1      -3.163   2.445   2.870  0.00  0.00    +0.046 A 
ATOM      9  C   UNL     1      -2.351   2.757   3.942  0.00  0.00    +0.005 A 
ATOM     10  C   UNL     1      -1.000   2.466   3.896  0.00  0.00    -0.061 A 
ATOM     11  C   UNL     1      -0.677   0.887   0.482  0.00  0.00    +0.048 C 
BRANCH   7  12
ATOM     12  O   UNL     1      -3.418   1.538   0.685  0.00  0.00    -0.495 OA
ATOM     13  C   UNL     1      -4.803   1.871   0.798  0.00  0.00    +0.277 C 
ENDBRANCH   7  12
ENDBRANCH   3  10
ENDBRANCH   1   3
BRANCH   1  14
ATOM     14  C   UNL     1      -0.095   5.216   4.806  0.00  0.00    -0.041 C 
BRANCH  14  15
ATOM     15  C   UNL     1      -0.514   5.464   6.232  0.00  0.00    -0.046 A 
ATOM     16  C   UNL     1      -1.699   4.931   6.718  0.00  0.00    +0.005 A 
ATOM     17  C   UNL     1      -2.042   5.182   8.038  0.00  0.00    +0.020 A 
ATOM     18  C   UNL     1      -1.202   5.956   8.817  0.00  0.00    +0.111 A 
ATOM     19  N   UNL     1      -0.086   6.450   8.319  0.00  0.00    -0.263 NA
ATOM     20  C   UNL     1       0.274   6.229   7.070  0.00  0.00    +0.112 A 
ENDBRANCH  14  15
ENDBRANCH   1  14
BRANCH   1  21
ATOM     21  C   UNL     1       1.879   4.068   5.611  0.00  0.00    -0.075 C 
BRANCH  21  22
ATOM     22  C   UNL     1       2.892   5.045   5.010  0.00  0.00    -0.031 C 
ATOM     23  C   UNL     1       3.419   4.484   3.686  0.00  0.00    -0.017 C 
ATOM     24  C   UNL     1       4.477   5.435   3.120  0.00  0.00    -0.078 C 
ATOM     25  C   UNL     1       5.099   6.161   5.347  0.00  0.00    -0.078 C 
ATOM     26  C   UNL     1       4.061   5.231   5.980  0.00  0.00    -0.017 C 
ATOM     27  N   UNL     1       5.586   5.552   4.091  0.00  0.00    +0.382 N 
ATOM     28  H   UNL     1       5.951   4.614   4.295  0.00  0.00    -0.081 HD
BRANCH  27  29
ATOM     29  C   UNL     1       6.672   6.375   3.519  0.00  0.00    -0.069 C 
ATOM     30  C   UNL     1       6.173   7.794   3.176  0.00  0.00    -0.015 C 
ATOM     31  C   UNL     1       6.918   8.152   1.866  0.00  0.00    -0.002 C 
ATOM     32  C   UNL     1       6.928   6.806   1.100  0.00  0.00    -0.002 C 
ATOM     33  C   UNL     1       7.152   5.747   2.199  0.00  0.00    -0.015 C 
ENDBRANCH  27  29
ENDBRANCH  21  22
ENDBRANCH   1  21
TORSDOF 8
