REMARK  Name = ZINC64391953
REMARK  9 active torsions:
REMARK  status: ('A' for Active; 'I' for Inactive)
REMARK    1  A    between atoms: C_1  and  C_2
REMARK    2  A    between atoms: C_5  and  C_9
REMARK    3  A    between atoms: C_7  and  C_8
REMARK    4  A    between atoms: C_12  and  C_16
REMARK    5  A    between atoms: C_21  and  C_22
REMARK    6  A    between atoms: C_25  and  O_30
REMARK    7  A    between atoms: C_26  and  O_28
REMARK    8  A    between atoms: O_28  and  C_29
REMARK    9  A    between atoms: O_30  and  C_31
REMARK                            x       y       z     vdW  Elec       q    Type
REMARK                         _______ _______ _______ _____ _____    ______ ____
ROOT
ATOM      1  C   UNL     1       0.059  -4.275  -0.021  0.00  0.00    +0.180 C 
ATOM      2  N   UNL     1       0.797  -4.781  -1.203  0.00  0.00    -0.268 NA
ATOM      3  C   UNL     1       1.569  -5.952  -0.740  0.00  0.00    +0.225 C 
ATOM      4  O   UNL     1       1.275  -6.130   0.658  0.00  0.00    -0.278 OA
ATOM      5  N   UNL     1       0.842  -4.795   1.132  0.00  0.00    -0.178 NA
ATOM      6  H   UNL     1       0.162  -5.036  -1.944  0.00  0.00    +0.126 HD
ATOM      7  H   UNL     1       1.637  -4.205   1.325  0.00  0.00    +0.156 HD
ENDROOT
BRANCH   1  12
ATOM      8  C   UNL     1      -0.018   1.503   0.010  0.00  0.00    +0.044 C 
ATOM      9  C   UNL     1       0.002  -0.004   0.002  0.00  0.00    -0.048 A 
ATOM     10  C   UNL     1       0.006  -0.689  -1.199  0.00  0.00    +0.004 A 
ATOM     11  C   UNL     1       0.025  -2.071  -1.207  0.00  0.00    +0.007 A 
ATOM     12  C   UNL     1       0.040  -2.768  -0.013  0.00  0.00    -0.014 A 
ATOM     13  C   UNL     1       0.037  -2.084   1.188  0.00  0.00    +0.010 A 
ATOM     14  C   UNL     1       0.023  -0.702   1.195  0.00  0.00    -0.047 A 
ATOM     15  C   UNL     1       0.025   0.045   2.504  0.00  0.00    +0.044 C 
ENDBRANCH   1  12
BRANCH   3  16
ATOM     16  C   UNL     1       1.150  -7.196  -1.526  0.00  0.00    +0.128 C 
ATOM     17  C   UNL     1      -0.333  -7.460  -1.358  0.00  0.00    +0.121 C 
ATOM     18  N   UNL     1      -0.430  -8.620  -0.795  0.00  0.00    -0.161 NA
ATOM     19  N   UNL     1       0.812  -9.199  -0.551  0.00  0.00    -0.153 NA
ATOM     20  C   UNL     1       1.800  -8.437  -0.948  0.00  0.00    +0.083 C 
BRANCH  20  21
ATOM     21  C   UNL     1       3.238  -8.723  -0.854  0.00  0.00    +0.002 A 
ATOM     22  C   UNL     1       4.171  -7.792  -1.323  0.00  0.00    +0.013 A 
ATOM     23  C   UNL     1       5.519  -8.062  -1.233  0.00  0.00    +0.050 A 
ATOM     24  C   UNL     1       5.955  -9.258  -0.678  0.00  0.00    +0.162 A 
ATOM     25  C   UNL     1       5.032 -10.191  -0.208  0.00  0.00    +0.162 A 
ATOM     26  C   UNL     1       3.679  -9.925  -0.288  0.00  0.00    +0.059 A 
BRANCH  25  27
ATOM     27  O   UNL     1       5.464 -11.361   0.335  0.00  0.00    -0.491 OA
ATOM     28  C   UNL     1       4.463 -12.271   0.796  0.00  0.00    +0.277 C 
ENDBRANCH  25  27
BRANCH  24  29
ATOM     29  O   UNL     1       7.286  -9.519  -0.592  0.00  0.00    -0.491 OA
ATOM     30  C   UNL     1       8.177  -8.520  -1.092  0.00  0.00    +0.277 C 
ENDBRANCH  24  29
ENDBRANCH  20  21
ENDBRANCH   3  16
TORSDOF 5
