REMARK  Name = ZINC66836810
REMARK  8 active torsions:
REMARK  status: ('A' for Active; 'I' for Inactive)
REMARK    1  A    between atoms: C_1  and  C_2
REMARK    2  A    between atoms: C_3  and  C_25
REMARK    3  A    between atoms: C_8  and  C_10
REMARK    4  A    between atoms: C_10  and  N_11
REMARK    5  A    between atoms: N_11  and  C_12
REMARK    6  A    between atoms: N_11  and  C_13
REMARK    7  A    between atoms: C_13  and  C_14
REMARK    8  A    between atoms: N_16  and  C_17
REMARK                            x       y       z     vdW  Elec       q    Type
REMARK                         _______ _______ _______ _____ _____    ______ ____
ROOT
ATOM      1  N   UNL     1      -0.293  -2.584   5.930  0.00  0.00    +0.389 N 
ATOM      2  C   UNL     1      -1.627  -2.014   6.160  0.00  0.00    -0.095 C 
ATOM      3  H   UNL     1       0.388  -1.841   5.891  0.00  0.00    -0.081 HD
ENDROOT
BRANCH   1   4
ATOM      4  C   UNL     1      -0.288  -3.321   4.659  0.00  0.00    +0.019 C 
BRANCH   4  12
ATOM      5  C   UNL     1      -1.327   1.577   0.208  0.00  0.00    +0.066 C 
ATOM      6  C   UNL     1      -1.120   0.085   0.157  0.00  0.00    +0.050 A 
ATOM      7  C   UNL     1      -1.116  -0.589  -1.020  0.00  0.00    +0.011 A 
ATOM      8  S   UNL     1      -0.835  -2.257  -0.447  0.00  0.00    -0.057 S 
ATOM      9  C   UNL     1      -0.754  -1.926   1.202  0.00  0.00    +0.165 A 
ATOM     10  N   UNL     1      -0.929  -0.623   1.254  0.00  0.00    -0.230 NA
ATOM     11  N   UNL     1      -0.547  -2.813   2.252  0.00  0.00    -0.266 N 
ATOM     12  C   UNL     1      -0.512  -2.359   3.520  0.00  0.00    +0.202 C 
ATOM     13  O   UNL     1      -0.662  -1.177   3.746  0.00  0.00    -0.277 OA
ATOM     14  C   UNL     1      -1.299  -0.074  -2.424  0.00  0.00    +0.053 C 
ATOM     15  H   UNL     1      -0.427  -3.758   2.071  0.00  0.00    +0.157 HD
ENDBRANCH   4  12
ENDBRANCH   1   4
BRANCH   1  16
ATOM     16  C   UNL     1       0.044  -3.501   7.027  0.00  0.00    +0.019 C 
BRANCH  16  17
ATOM     17  C   UNL     1       0.160  -2.723   8.313  0.00  0.00    +0.201 C 
ATOM     18  O   UNL     1      -0.021  -1.524   8.315  0.00  0.00    -0.278 OA
ATOM     19  N   UNL     1       0.464  -3.360   9.461  0.00  0.00    -0.287 N 
ATOM     20  H   UNL     1       0.533  -4.327   9.475  0.00  0.00    +0.155 HD
BRANCH  19  21
ATOM     21  C   UNL     1       0.679  -2.626  10.633  0.00  0.00    +0.039 A 
ATOM     22  C   UNL     1       0.322  -3.160  11.863  0.00  0.00    +0.061 A 
ATOM     23  C   UNL     1       0.536  -2.433  13.021  0.00  0.00    +0.128 A 
ATOM     24  C   UNL     1       1.105  -1.173  12.952  0.00  0.00    +0.076 A 
ATOM     25  C   UNL     1       1.463  -0.638  11.726  0.00  0.00    +0.128 A 
ATOM     26  C   UNL     1       1.256  -1.365  10.567  0.00  0.00    +0.061 A 
ATOM     27  F   UNL     1       2.018   0.592  11.662  0.00  0.00    -0.205 F 
ATOM     28  F   UNL     1       0.188  -2.952  14.218  0.00  0.00    -0.205 F 
ENDBRANCH  19  21
ENDBRANCH  16  17
ENDBRANCH   1  16
TORSDOF 5
