REMARK  Name = ZINC22430949
REMARK  8 active torsions:
REMARK  status: ('A' for Active; 'I' for Inactive)
REMARK    1  A    between atoms: C_1  and  C_2
REMARK    2  A    between atoms: C_5  and  S_8
REMARK    3  A    between atoms: S_8  and  N_11
REMARK    4  A    between atoms: N_11  and  C_12
REMARK    5  A    between atoms: N_11  and  C_28
REMARK    6  A    between atoms: C_12  and  C_13
REMARK    7  A    between atoms: N_15  and  C_16
REMARK    8  A    between atoms: C_19  and  N_22
REMARK                            x       y       z     vdW  Elec       q    Type
REMARK                         _______ _______ _______ _____ _____    ______ ____
ROOT
ATOM      1  N   UNL     1      10.394  -1.385  -1.609  0.00  0.00    -0.194 N 
ENDROOT
BRANCH   1   2
ATOM      2  C   UNL     1      10.541  -2.385  -0.644  0.00  0.00    +0.052 A 
ATOM      3  C   UNL     1      11.540  -3.340  -0.779  0.00  0.00    +0.026 A 
ATOM      4  C   UNL     1      11.687  -4.324   0.179  0.00  0.00    +0.022 A 
ATOM      5  C   UNL     1      10.833  -4.366   1.266  0.00  0.00    +0.041 A 
ATOM      6  C   UNL     1       9.833  -3.418   1.401  0.00  0.00    +0.022 A 
ATOM      7  C   UNL     1       9.685  -2.429   0.449  0.00  0.00    +0.026 A 
ATOM      8 CL   UNL     1      11.016  -5.608   2.465  0.00  0.00    -0.084 Cl
ENDBRANCH   1   2
BRANCH   1   9
ATOM      9  S   UNL     1      10.904  -1.650  -3.162  0.00  0.00    +0.075 S 
ATOM     10  O   UNL     1      10.961  -3.059  -3.335  0.00  0.00    -0.150 OA
ATOM     11  O   UNL     1      10.118  -0.811  -3.996  0.00  0.00    -0.150 OA
BRANCH   9  16
ATOM     12  C   UNL     1      16.578   0.367  -3.545  0.00  0.00    +0.044 C 
ATOM     13  C   UNL     1      15.161  -0.137  -3.450  0.00  0.00    -0.050 A 
ATOM     14  C   UNL     1      14.918  -1.478  -3.216  0.00  0.00    +0.005 A 
ATOM     15  C   UNL     1      13.618  -1.940  -3.129  0.00  0.00    +0.029 A 
ATOM     16  C   UNL     1      12.561  -1.061  -3.273  0.00  0.00    +0.109 A 
ATOM     17  C   UNL     1      12.803   0.279  -3.511  0.00  0.00    +0.029 A 
ATOM     18  C   UNL     1      14.103   0.742  -3.595  0.00  0.00    +0.005 A 
ENDBRANCH   9  16
ENDBRANCH   1   9
BRANCH   1  19
ATOM     19  C   UNL     1       9.788  -0.101  -1.246  0.00  0.00    +0.227 C 
BRANCH  19  20
ATOM     20  C   UNL     1       8.287  -0.210  -1.338  0.00  0.00    +0.236 C 
ATOM     21  O   UNL     1       7.775  -1.257  -1.674  0.00  0.00    -0.274 OA
ATOM     22  N   UNL     1       7.515   0.856  -1.048  0.00  0.00    -0.284 N 
ATOM     23  H   UNL     1       7.981   1.826  -0.818  0.00  0.00    +0.155 HD
BRANCH  22  24
ATOM     24  C   UNL     1       6.120   0.729  -1.038  0.00  0.00    +0.034 A 
ATOM     25  C   UNL     1       5.365   1.440  -0.116  0.00  0.00    +0.025 A 
ATOM     26  C   UNL     1       3.990   1.314  -0.106  0.00  0.00    +0.025 A 
ATOM     27  C   UNL     1       3.363   0.477  -1.020  0.00  0.00    +0.036 A 
ATOM     28  C   UNL     1       4.119  -0.239  -1.939  0.00  0.00    +0.025 A 
ATOM     29  C   UNL     1       5.494  -0.108  -1.952  0.00  0.00    +0.025 A 
BRANCH  27  30
ATOM     30  N   UNL     1       1.968   0.350  -1.011  0.00  0.00    -0.271 N 
ATOM     31  C   UNL     1       1.087   0.961  -0.008  0.00  0.00    +0.114 C 
ATOM     32  C   UNL     1      -0.328   0.928  -0.628  0.00  0.00    +0.029 C 
ATOM     33  C   UNL     1      -0.214  -0.262  -1.609  0.00  0.00    +0.098 C 
ATOM     34  C   UNL     1       1.264  -0.348  -1.919  0.00  0.00    +0.220 C 
ATOM     35  O   UNL     1       1.744  -0.958  -2.851  0.00  0.00    -0.275 OA
ENDBRANCH  27  30
ENDBRANCH  22  24
ENDBRANCH  19  20
ENDBRANCH   1  19
TORSDOF 7
