REMARK  Name = ZINC35099376
REMARK  6 active torsions:
REMARK  status: ('A' for Active; 'I' for Inactive)
REMARK    1  A    between atoms: C_4  and  C_7
REMARK    2  A    between atoms: C_7  and  O_34
REMARK    3  A    between atoms: C_8  and  C_28
REMARK    4  A    between atoms: C_10  and  C_16
REMARK    5  A    between atoms: C_19  and  C_21
REMARK    6  A    between atoms: C_28  and  C_30
REMARK                            x       y       z     vdW  Elec       q    Type
REMARK                         _______ _______ _______ _____ _____    ______ ____
ROOT
ATOM      1  C   UNL     1       3.711  -0.707  -0.038  0.00  0.00    +0.172 C 
ATOM      2  C   UNL     1       4.116  -1.067   1.396  0.00  0.00    +0.147 C 
ATOM      3  C   UNL     1       5.507  -1.709   1.364  0.00  0.00    +0.156 C 
ATOM      4  N   UNL     1       6.440  -0.800   0.698  0.00  0.00    -0.289 N 
ATOM      5  C   UNL     1       6.025   0.059  -0.245  0.00  0.00    +0.303 C 
ATOM      6  O   UNL     1       6.844   0.785  -0.775  0.00  0.00    -0.253 OA
ATOM      7  N   UNL     1       4.742   0.148  -0.627  0.00  0.00    -0.267 N 
ATOM      8  H   UNL     1       7.379  -0.818   0.944  0.00  0.00    +0.151 HD
ATOM      9  H   UNL     1       4.493   0.792  -1.308  0.00  0.00    +0.153 HD
ENDROOT
BRANCH   1  13
ATOM     10  C   UNL     1      -0.017   1.378   0.010  0.00  0.00    +0.000 A 
ATOM     11  C   UNL     1       1.171   2.086   0.002  0.00  0.00    +0.000 A 
ATOM     12  C   UNL     1       2.377   1.411  -0.013  0.00  0.00    +0.008 A 
ATOM     13  C   UNL     1       2.396   0.029  -0.020  0.00  0.00    +0.003 A 
ATOM     14  C   UNL     1       1.208  -0.679  -0.012  0.00  0.00    +0.008 A 
ATOM     15  C   UNL     1       0.002  -0.004   0.002  0.00  0.00    +0.000 A 
ENDBRANCH   1  13
BRANCH   3  16
ATOM     16  C   UNL     1       5.974  -1.970   2.772  0.00  0.00    +0.127 A 
ATOM     17  C   UNL     1       5.932  -3.158   3.406  0.00  0.00    +0.047 A 
ATOM     18  C   UNL     1       6.463  -2.957   4.696  0.00  0.00    +0.050 A 
ATOM     19  C   UNL     1       6.803  -1.643   4.779  0.00  0.00    +0.137 A 
ATOM     20  O   UNL     1       6.506  -1.058   3.603  0.00  0.00    -0.458 OA
BRANCH  19  21
ATOM     21  C   UNL     1       7.401  -0.974   5.953  0.00  0.00    +0.036 A 
ATOM     22  C   UNL     1       6.830  -1.134   7.217  0.00  0.00    +0.013 A 
ATOM     23  C   UNL     1       7.393  -0.507   8.309  0.00  0.00    +0.001 A 
ATOM     24  C   UNL     1       8.521   0.279   8.155  0.00  0.00    +0.001 A 
ATOM     25  C   UNL     1       9.092   0.443   6.906  0.00  0.00    +0.021 A 
ATOM     26  C   UNL     1       8.543  -0.184   5.805  0.00  0.00    +0.052 A 
ATOM     27 CL   UNL     1       9.266   0.015   4.239  0.00  0.00    -0.083 Cl
ENDBRANCH  19  21
ENDBRANCH   3  16
BRANCH   2  28
ATOM     28  C   UNL     1       4.150   0.180   2.241  0.00  0.00    +0.245 C 
ATOM     29  O   UNL     1       4.330   1.256   1.722  0.00  0.00    -0.287 OA
BRANCH  28  30
ATOM     30  C   UNL     1       3.958   0.086   3.732  0.00  0.00    +0.451 C 
ATOM     31  F   UNL     1       2.837   0.835   4.107  0.00  0.00    -0.163 F 
ATOM     32  F   UNL     1       3.768  -1.252   4.094  0.00  0.00    -0.163 F 
ATOM     33  F   UNL     1       5.092   0.588   4.381  0.00  0.00    -0.163 F 
ENDBRANCH  28  30
ENDBRANCH   2  28
BRANCH   1  34
ATOM     34  O   UNL     1       3.580  -1.901  -0.812  0.00  0.00    -0.367 OA
ATOM     35  H   UNL     1       3.328  -1.746  -1.733  0.00  0.00    +0.212 HD
ENDBRANCH   1  34
TORSDOF 6
