REMARK  Name = ZINC11940729
REMARK  9 active torsions:
REMARK  status: ('A' for Active; 'I' for Inactive)
REMARK    1  A    between atoms: C_1  and  N_2
REMARK    2  A    between atoms: N_2  and  C_3
REMARK    3  A    between atoms: C_6  and  C_11
REMARK    4  A    between atoms: C_11  and  O_12
REMARK    5  A    between atoms: O_12  and  C_13
REMARK    6  A    between atoms: C_13  and  C_15
REMARK    7  A    between atoms: C_15  and  C_16
REMARK    8  A    between atoms: C_16  and  C_18
REMARK    9  A    between atoms: C_16  and  N_24
REMARK                            x       y       z     vdW  Elec       q    Type
REMARK                         _______ _______ _______ _____ _____    ______ ____
ROOT
ATOM      1  C   UNL     1      -1.641   1.431  -2.376  0.00  0.00    +0.310 C 
ATOM      2  O   UNL     1      -1.515   0.244  -2.189  0.00  0.00    -0.251 OA
ENDROOT
BRANCH   1   3
ATOM      3  O   UNL     1      -1.845   1.897  -3.618  0.00  0.00    -0.457 OA
BRANCH   3   4
ATOM      4  C   UNL     1      -1.905   0.918  -4.688  0.00  0.00    +0.308 C 
BRANCH   4  10
ATOM      5  C   UNL     1      -5.104   3.355  -9.300  0.00  0.00    +0.132 C 
ATOM      6  N   UNL     1      -4.873   2.672  -8.024  0.00  0.00    -0.306 N 
ATOM      7  C   UNL     1      -6.010   2.222  -7.217  0.00  0.00    +0.132 C 
ATOM      8  C   UNL     1      -3.584   2.452  -7.583  0.00  0.00    +0.222 A 
ATOM      9  N   UNL     1      -3.373   1.827  -6.426  0.00  0.00    -0.196 NA
ATOM     10  C   UNL     1      -2.139   1.621  -6.001  0.00  0.00    +0.173 A 
ATOM     11  N   UNL     1      -1.110   2.025  -6.725  0.00  0.00    -0.196 NA
ATOM     12  C   UNL     1      -1.313   2.646  -7.885  0.00  0.00    +0.217 A 
ATOM     13  N   UNL     1      -2.552   2.860  -8.314  0.00  0.00    -0.181 NA
ATOM     14  N   UNL     1      -0.238   3.067  -8.640  0.00  0.00    -0.327 N 
ATOM     15  H   UNL     1       0.667   2.911  -8.326  0.00  0.00    +0.145 HD
ATOM     16  H   UNL     1      -0.386   3.520  -9.485  0.00  0.00    +0.145 HD
ENDBRANCH   4  10
ENDBRANCH   3   4
ENDBRANCH   1   3
BRANCH   1  17
ATOM     17  C   UNL     1      -1.568   2.389  -1.215  0.00  0.00    +0.147 C 
BRANCH  17  18
ATOM     18  C   UNL     1      -1.329   1.605   0.078  0.00  0.00    +0.115 C 
BRANCH  18  19
ATOM     19  N   UNL     1      -0.014   0.962   0.023  0.00  0.00    -0.292 N 
ATOM     20  C   UNL     1       0.218  -0.157   0.737  0.00  0.00    +0.298 C 
ATOM     21  O   UNL     1      -0.633  -0.584   1.493  0.00  0.00    -0.253 OA
ATOM     22  N   UNL     1       1.395  -0.803   0.613  0.00  0.00    -0.313 N 
ATOM     23  H   UNL     1       0.690   1.343  -0.524  0.00  0.00    +0.151 HD
ATOM     24  H   UNL     1       2.074  -0.463   0.010  0.00  0.00    +0.146 HD
ATOM     25  H   UNL     1       1.562  -1.609   1.127  0.00  0.00    +0.146 HD
ENDBRANCH  18  19
BRANCH  18  26
ATOM     26  C   UNL     1      -1.378   2.548   1.253  0.00  0.00    -0.027 A 
ATOM     27  C   UNL     1      -0.321   3.404   1.497  0.00  0.00    +0.005 A 
ATOM     28  C   UNL     1      -0.368   4.271   2.572  0.00  0.00    +0.000 A 
ATOM     29  C   UNL     1      -1.469   4.277   3.409  0.00  0.00    +0.000 A 
ATOM     30  C   UNL     1      -2.524   3.417   3.167  0.00  0.00    +0.000 A 
ATOM     31  C   UNL     1      -2.479   2.553   2.089  0.00  0.00    +0.005 A 
ENDBRANCH  18  26
ENDBRANCH  17  18
ENDBRANCH   1  17
TORSDOF 7
