REMARK  Name = ZINC35646293
REMARK  11 active torsions:
REMARK  status: ('A' for Active; 'I' for Inactive)
REMARK    1  A    between atoms: C_1  and  C_2
REMARK    2  A    between atoms: C_2  and  O_3
REMARK    3  A    between atoms: O_3  and  C_4
REMARK    4  A    between atoms: C_4  and  C_6
REMARK    5  A    between atoms: C_7  and  C_23
REMARK    6  A    between atoms: N_8  and  C_22
REMARK    7  A    between atoms: C_12  and  C_14
REMARK    8  A    between atoms: C_16  and  C_21
REMARK    9  A    between atoms: C_19  and  C_20
REMARK   10  A    between atoms: C_23  and  N_24
REMARK   11  A    between atoms: C_30  and  C_32
REMARK                            x       y       z     vdW  Elec       q    Type
REMARK                         _______ _______ _______ _____ _____    ______ ____
ROOT
ATOM      1  C   UNL     1      -3.591  -4.351   1.057  0.00  0.00    +0.080 C 
ATOM      2  C   UNL     1      -3.403  -5.687   1.107  0.00  0.00    +0.041 C 
ATOM      3  N   UNL     1      -4.408  -6.527   1.494  0.00  0.00    -0.260 N 
ATOM      4  C   UNL     1      -5.630  -6.108   1.846  0.00  0.00    +0.307 C 
ATOM      5  O   UNL     1      -6.461  -6.932   2.176  0.00  0.00    -0.252 OA
ATOM      6  N   UNL     1      -5.969  -4.804   1.847  0.00  0.00    -0.288 N 
ATOM      7  C   UNL     1      -4.952  -3.815   1.451  0.00  0.00    +0.144 C 
ATOM      8  C   UNL     1      -4.134  -7.965   1.524  0.00  0.00    +0.139 C 
ATOM      9  H   UNL     1      -6.861  -4.523   2.106  0.00  0.00    +0.151 HD
ENDROOT
BRANCH   7  10
ATOM     10  C   UNL     1      -5.500  -3.035   0.284  0.00  0.00    -0.019 A 
ATOM     11  C   UNL     1      -6.283  -3.667  -0.664  0.00  0.00    +0.009 A 
ATOM     12  C   UNL     1      -6.785  -2.951  -1.735  0.00  0.00    -0.050 A 
ATOM     13  C   UNL     1      -6.504  -1.603  -1.857  0.00  0.00    +0.003 A 
ATOM     14  C   UNL     1      -5.722  -0.971  -0.909  0.00  0.00    +0.004 A 
ATOM     15  C   UNL     1      -5.224  -1.686   0.164  0.00  0.00    -0.045 A 
ATOM     16  C   UNL     1      -4.375  -0.995   1.200  0.00  0.00    +0.044 C 
ATOM     17  C   UNL     1      -7.638  -3.641  -2.768  0.00  0.00    +0.044 C 
ENDBRANCH   7  10
BRANCH   1  18
ATOM     18  C   UNL     1      -2.550  -3.480   0.657  0.00  0.00    +0.339 C 
ATOM     19  O   UNL     1      -1.902  -2.881   1.495  0.00  0.00    -0.245 OA
BRANCH  18  20
ATOM     20  O   UNL     1      -2.276  -3.314  -0.653  0.00  0.00    -0.462 OA
BRANCH  20  22
ATOM     21  C   UNL     1      -0.957  -2.473  -2.495  0.00  0.00    +0.048 C 
ATOM     22  C   UNL     1      -1.194  -2.441  -0.984  0.00  0.00    +0.229 C 
ENDBRANCH  20  22
ENDBRANCH  18  20
ENDBRANCH   1  18
BRANCH   2  23
ATOM     23  C   UNL     1      -2.062  -6.262   0.729  0.00  0.00    +0.136 C 
BRANCH  23  24
ATOM     24  N   UNL     1      -1.450  -6.893   1.905  0.00  0.00    -0.294 NA
ATOM     25  C   UNL     1      -1.132  -5.893   2.934  0.00  0.00    +0.104 C 
ATOM     26  C   UNL     1      -0.667  -6.606   4.208  0.00  0.00    +0.123 C 
ATOM     27  N   UNL     1       0.437  -7.513   3.860  0.00  0.00    -0.295 N 
ATOM     28  C   UNL     1       0.241  -8.452   2.745  0.00  0.00    +0.123 C 
ATOM     29  C   UNL     1      -0.260  -7.667   1.529  0.00  0.00    +0.104 C 
ATOM     30  C   UNL     1       1.598  -7.483   4.544  0.00  0.00    +0.249 C 
ATOM     31  O   UNL     1       2.535  -8.168   4.181  0.00  0.00    -0.270 OA
BRANCH  30  32
ATOM     32  C   UNL     1       1.732  -6.619   5.734  0.00  0.00    +0.072 A 
ATOM     33  C   UNL     1       0.739  -6.618   6.716  0.00  0.00    +0.016 A 
ATOM     34  C   UNL     1       0.871  -5.809   7.825  0.00  0.00    +0.001 A 
ATOM     35  C   UNL     1       1.984  -4.998   7.968  0.00  0.00    +0.003 A 
ATOM     36  C   UNL     1       2.972  -4.992   7.001  0.00  0.00    +0.039 A 
ATOM     37  C   UNL     1       2.857  -5.802   5.886  0.00  0.00    +0.135 A 
ATOM     38  F   UNL     1       3.825  -5.800   4.944  0.00  0.00    -0.205 F 
ENDBRANCH  30  32
ENDBRANCH  23  24
ENDBRANCH   2  23
TORSDOF 7
