REMARK  Name = ZINC16250059
REMARK  8 active torsions:
REMARK  status: ('A' for Active; 'I' for Inactive)
REMARK    1  A    between atoms: C_1  and  C_2
REMARK    2  A    between atoms: C_3  and  C_9
REMARK    3  A    between atoms: C_12  and  C_14
REMARK    4  A    between atoms: N_15  and  C_16
REMARK    5  A    between atoms: N_20  and  N_21
REMARK    6  A    between atoms: C_22  and  C_23
REMARK    7  A    between atoms: C_26  and  C_28
REMARK    8  A    between atoms: C_33  and  C_34
REMARK                            x       y       z     vdW  Elec       q    Type
REMARK                         _______ _______ _______ _____ _____    ______ ____
ROOT
ATOM      1  C   UNL     1      -2.906   4.127  -4.811  0.00  0.00    +0.273 A 
ATOM      2  N   UNL     1      -2.648   4.563  -6.029  0.00  0.00    -0.105 NA
ATOM      3  N   UNL     1      -3.458   5.513  -6.334  0.00  0.00    -0.110 NA
ATOM      4  C   UNL     1      -4.283   5.746  -5.338  0.00  0.00    +0.237 A 
ATOM      5  N   UNL     1      -3.967   4.870  -4.335  0.00  0.00    -0.164 N 
ATOM      6  N   UNL     1      -5.289   6.698  -5.311  0.00  0.00    -0.326 N 
ATOM      7  H   UNL     1      -5.435   7.271  -6.079  0.00  0.00    +0.145 HD
ATOM      8  H   UNL     1      -5.846   6.792  -4.522  0.00  0.00    +0.145 HD
ENDROOT
BRANCH   1  10
ATOM      9  C   UNL     1      -1.261   2.512  -4.737  0.00  0.00    +0.161 C 
ATOM     10  N   UNL     1      -2.259   3.137  -4.158  0.00  0.00    -0.214 NA
BRANCH   9  14
ATOM     11  C   UNL     1      -0.011   0.042  -2.488  0.00  0.00    +0.136 A 
ATOM     12  C   UNL     1       0.834  -0.169  -3.540  0.00  0.00    +0.050 A 
ATOM     13  C   UNL     1       0.478   0.739  -4.542  0.00  0.00    +0.051 A 
ATOM     14  C   UNL     1      -0.584   1.476  -4.053  0.00  0.00    +0.147 A 
ATOM     15  O   UNL     1      -0.864   1.031  -2.810  0.00  0.00    -0.454 OA
BRANCH  11  18
ATOM     16  C   UNL     1      -0.018   1.503   0.010  0.00  0.00    +0.046 C 
ATOM     17  C   UNL     1       0.002  -0.004   0.002  0.00  0.00    -0.022 A 
ATOM     18  C   UNL     1       0.006  -0.698  -1.211  0.00  0.00    +0.022 A 
ATOM     19  C   UNL     1       0.025  -2.095  -1.209  0.00  0.00    +0.012 A 
ATOM     20  C   UNL     1       0.040  -2.780  -0.012  0.00  0.00    +0.002 A 
ATOM     21  C   UNL     1       0.036  -2.087   1.186  0.00  0.00    +0.020 A 
ATOM     22  C   UNL     1       0.023  -0.702   1.192  0.00  0.00    +0.045 A 
ATOM     23 CL   UNL     1       0.025   0.157   2.701  0.00  0.00    -0.083 Cl
ENDBRANCH  11  18
ENDBRANCH   9  14
ENDBRANCH   1  10
BRANCH   5  24
ATOM     24  N   UNL     1      -4.588   4.754  -3.084  0.00  0.00    -0.166 NA
ATOM     25  C   UNL     1      -4.156   5.454  -2.075  0.00  0.00    +0.179 C 
BRANCH  25  26
ATOM     26  C   UNL     1      -3.021   6.362  -2.247  0.00  0.00    +0.148 A 
ATOM     27  C   UNL     1      -2.462   7.153  -1.267  0.00  0.00    +0.051 A 
ATOM     28  C   UNL     1      -1.408   7.854  -1.865  0.00  0.00    +0.050 A 
ATOM     29  C   UNL     1      -1.363   7.470  -3.173  0.00  0.00    +0.136 A 
ATOM     30  O   UNL     1      -2.336   6.566  -3.391  0.00  0.00    -0.454 OA
BRANCH  29  31
ATOM     31  C   UNL     1      -0.403   7.960  -4.181  0.00  0.00    +0.022 A 
ATOM     32  C   UNL     1      -0.193   9.332  -4.342  0.00  0.00    +0.012 A 
ATOM     33  C   UNL     1       0.706   9.784  -5.285  0.00  0.00    +0.002 A 
ATOM     34  C   UNL     1       1.400   8.882  -6.073  0.00  0.00    +0.020 A 
ATOM     35  C   UNL     1       1.197   7.521  -5.920  0.00  0.00    +0.045 A 
ATOM     36  C   UNL     1       0.305   7.055  -4.975  0.00  0.00    -0.022 A 
ATOM     37  C   UNL     1       0.089   5.573  -4.805  0.00  0.00    +0.046 C 
ATOM     38 CL   UNL     1       2.073   6.398  -6.913  0.00  0.00    -0.083 Cl
ENDBRANCH  29  31
ENDBRANCH  25  26
ENDBRANCH   5  24
TORSDOF 6
