REMARK  Name = ZINC63743552
REMARK  10 active torsions:
REMARK  status: ('A' for Active; 'I' for Inactive)
REMARK    1  A    between atoms: C_1  and  C_2
REMARK    2  A    between atoms: C_2  and  O_3
REMARK    3  A    between atoms: O_3  and  C_4
REMARK    4  A    between atoms: C_8  and  N_19
REMARK    5  A    between atoms: C_13  and  C_15
REMARK    6  A    between atoms: C_15  and  O_17
REMARK    7  A    between atoms: O_17  and  C_18
REMARK    8  A    between atoms: C_20  and  C_22
REMARK    9  A    between atoms: C_28  and  O_32
REMARK   10  A    between atoms: O_32  and  C_33
REMARK                            x       y       z     vdW  Elec       q    Type
REMARK                         _______ _______ _______ _____ _____    ______ ____
ROOT
ATOM      1  C   UNL     1       0.761  -1.884  -1.290  0.00  0.00    +0.173 C 
ATOM      2  C   UNL     1       2.023  -2.359  -0.611  0.00  0.00    -0.002 A 
ATOM      3  C   UNL     1       2.212  -2.539   0.761  0.00  0.00    +0.030 A 
ATOM      4  C   UNL     1       3.426  -2.965   1.264  0.00  0.00    +0.034 A 
ATOM      5  C   UNL     1       4.493  -3.227   0.414  0.00  0.00    +0.024 A 
ATOM      6  C   UNL     1       4.321  -3.063  -0.946  0.00  0.00    +0.017 A 
ATOM      7  C   UNL     1       3.102  -2.643  -1.444  0.00  0.00    +0.015 A 
ATOM      8  S   UNL     1       2.540  -2.371  -3.111  0.00  0.00    -0.107 S 
ATOM      9  C   UNL     1       0.734  -2.274  -2.784  0.00  0.00    +0.193 C 
ENDROOT
BRANCH   4  10
ATOM     10  N   UNL     1       3.583  -3.135   2.647  0.00  0.00    -0.284 N 
ATOM     11  C   UNL     1       4.362  -4.128   3.120  0.00  0.00    +0.244 C 
ATOM     12  O   UNL     1       4.993  -4.823   2.351  0.00  0.00    -0.273 OA
ATOM     13  H   UNL     1       3.131  -2.538   3.263  0.00  0.00    +0.155 HD
BRANCH  11  14
ATOM     14  C   UNL     1       4.448  -4.376   4.604  0.00  0.00    +0.190 C 
ATOM     15  C   UNL     1       5.032  -3.168   5.301  0.00  0.00    +0.016 C 
ATOM     16  C   UNL     1       6.168  -3.590   5.898  0.00  0.00    -0.003 A 
ATOM     17  C   UNL     1       7.174  -2.901   6.716  0.00  0.00    +0.013 A 
ATOM     18  C   UNL     1       8.229  -3.601   7.186  0.00  0.00    +0.046 A 
ATOM     19  C   UNL     1       8.388  -4.973   6.909  0.00  0.00    +0.122 A 
ATOM     20  C   UNL     1       7.499  -5.673   6.160  0.00  0.00    +0.071 A 
ATOM     21  C   UNL     1       6.356  -5.032   5.620  0.00  0.00    +0.047 A 
ATOM     22  N   UNL     1       5.369  -5.485   4.878  0.00  0.00    -0.370 N 
ATOM     23  H   UNL     1       5.267  -6.397   4.565  0.00  0.00    +0.161 HD
BRANCH  19  24
ATOM     24  O   UNL     1       9.470  -5.618   7.410  0.00  0.00    -0.495 OA
ATOM     25  C   UNL     1      10.382  -4.845   8.193  0.00  0.00    +0.277 C 
ENDBRANCH  19  24
ENDBRANCH  11  14
ENDBRANCH   4  10
BRANCH   9  26
ATOM     26  C   UNL     1       0.084  -1.202  -3.620  0.00  0.00    +0.323 C 
ATOM     27  O   UNL     1       0.228  -0.038  -3.330  0.00  0.00    -0.249 OA
BRANCH  26  28
ATOM     28  O   UNL     1      -0.656  -1.540  -4.688  0.00  0.00    -0.467 OA
ATOM     29  C   UNL     1      -1.243  -0.473  -5.435  0.00  0.00    +0.280 C 
ENDBRANCH  26  28
ENDBRANCH   9  26
BRANCH   1  30
ATOM     30  O   UNL     1       0.680  -0.461  -1.178  0.00  0.00    -0.371 OA
BRANCH  30  32
ATOM     31  C   UNL     1      -0.025   1.521   0.011  0.00  0.00    +0.034 C 
ATOM     32  C   UNL     1       0.003  -0.008  -0.004  0.00  0.00    +0.157 C 
ENDBRANCH  30  32
ENDBRANCH   1  30
TORSDOF 7
