REMARK  Name = ZINC12278973
REMARK  6 active torsions:
REMARK  status: ('A' for Active; 'I' for Inactive)
REMARK    1  A    between atoms: C_4  and  C_7
REMARK    2  A    between atoms: C_7  and  C_13
REMARK    3  A    between atoms: C_13  and  N_14
REMARK    4  A    between atoms: C_15  and  C_17
REMARK    5  A    between atoms: C_17  and  N_63
REMARK    6  A    between atoms: C_26  and  C_29
REMARK                            x       y       z     vdW  Elec       q    Type
REMARK                         _______ _______ _______ _____ _____    ______ ____
ROOT
ATOM      1  C   UNL     1       0.973  -0.926  -6.110  0.00  0.00    +0.019 C 
ENDROOT
BRANCH   1  12
ATOM      2  C   UNL     1       0.559   1.017  -7.490  0.00  0.00    -0.038 C 
ATOM      3  C   UNL     1      -0.611   1.612  -8.250  0.00  0.00    -0.022 A 
ATOM      4  C   UNL     1      -1.488   2.467  -7.615  0.00  0.00    +0.005 A 
ATOM      5  C   UNL     1      -2.541   3.018  -8.323  0.00  0.00    +0.000 A 
ATOM      6  C   UNL     1      -2.712   2.712  -9.661  0.00  0.00    +0.004 A 
ATOM      7  C   UNL     1      -1.838   1.851 -10.295  0.00  0.00    +0.046 A 
ATOM      8  C   UNL     1      -0.787   1.291  -9.582  0.00  0.00    +0.123 A 
ATOM      9  O   UNL     1       0.050   0.402 -10.183  0.00  0.00    -0.486 OA
ATOM     10  C   UNL     1      -0.069  -0.953  -9.734  0.00  0.00    +0.188 C 
ATOM     11  C   UNL     1       0.778  -1.187  -8.502  0.00  0.00    -0.028 C 
ATOM     12  N   UNL     1       0.302  -0.433  -7.323  0.00  0.00    +0.391 N 
ATOM     13  H   UNL     1      -0.710  -0.579  -7.225  0.00  0.00    -0.080 HD
BRANCH  10  14
ATOM     14  C   UNL     1       0.385  -1.882 -10.831  0.00  0.00    -0.002 A 
ATOM     15  C   UNL     1      -0.295  -3.059 -11.079  0.00  0.00    +0.015 A 
ATOM     16  C   UNL     1       0.140  -3.872 -12.073  0.00  0.00    +0.045 A 
ATOM     17  S   UNL     1       1.551  -2.973 -12.695  0.00  0.00    -0.105 S 
ATOM     18  C   UNL     1       1.463  -1.572 -11.591  0.00  0.00    +0.052 A 
ENDBRANCH  10  14
ENDBRANCH   1  12
BRANCH   1  20
ATOM     19  N   UNL     1       0.702  -0.648  -3.667  0.00  0.00    -0.316 N 
ATOM     20  C   UNL     1       0.287  -0.329  -4.909  0.00  0.00    +0.196 C 
ATOM     21  O   UNL     1      -0.640   0.439  -5.059  0.00  0.00    -0.278 OA
ATOM     22  H   UNL     1       1.443  -1.262  -3.546  0.00  0.00    +0.149 HD
BRANCH  19  23
ATOM     23  C   UNL     1       0.035  -0.067  -2.499  0.00  0.00    +0.115 C 
BRANCH  23  24
ATOM     24  C   UNL     1       0.764  -0.501  -1.226  0.00  0.00    +0.015 C 
ATOM     25  C   UNL     1       0.047   0.077  -0.002  0.00  0.00    +0.041 C 
ATOM     26  C   UNL     1       0.106   1.605  -0.060  0.00  0.00    +0.160 C 
ATOM     27  O   UNL     1       1.471   2.026  -0.116  0.00  0.00    -0.380 OA
ATOM     28  C   UNL     1       2.179   1.555  -1.265  0.00  0.00    +0.160 C 
ATOM     29  C   UNL     1       2.203   0.024  -1.256  0.00  0.00    +0.041 C 
BRANCH  24  33
ATOM     30  C   UNL     1       0.804  -4.765  -0.979  0.00  0.00    +0.000 A 
ATOM     31  C   UNL     1       1.990  -4.070  -1.124  0.00  0.00    +0.000 A 
ATOM     32  C   UNL     1       1.977  -2.690  -1.204  0.00  0.00    +0.004 A 
ATOM     33  C   UNL     1       0.778  -2.005  -1.139  0.00  0.00    -0.040 A 
ATOM     34  C   UNL     1      -0.407  -2.700  -0.989  0.00  0.00    +0.004 A 
ATOM     35  C   UNL     1      -0.395  -4.080  -0.913  0.00  0.00    +0.000 A 
ENDBRANCH  24  33
ENDBRANCH  23  24
ENDBRANCH  19  23
ENDBRANCH   1  20
TORSDOF 6
