REMARK  Name = ZINC39200890
REMARK  16 active torsions:
REMARK  status: ('A' for Active; 'I' for Inactive)
REMARK    1  A    between atoms: C_1  and  C_2
REMARK    2  A    between atoms: C_2  and  C_4
REMARK    3  A    between atoms: C_2  and  O_31
REMARK    4  A    between atoms: C_4  and  C_6
REMARK    5  A    between atoms: C_4  and  N_20
REMARK    6  A    between atoms: N_8  and  C_9
REMARK    7  A    between atoms: C_11  and  C_18
REMARK    8  A    between atoms: C_11  and  C_19
REMARK    9  A    between atoms: N_12  and  C_17
REMARK   10  A    between atoms: C_13  and  C_15
REMARK   11  A    between atoms: C_13  and  C_16
REMARK   12  A    between atoms: C_21  and  O_23
REMARK   13  A    between atoms: O_23  and  C_24
REMARK   14  A    between atoms: C_24  and  C_25
REMARK   15  A    between atoms: O_31  and  C_32
REMARK   16  A    between atoms: C_32  and  C_33
REMARK                            x       y       z     vdW  Elec       q    Type
REMARK                         _______ _______ _______ _____ _____    ______ ____
ROOT
ATOM      1  C   UNL     1      -1.007  -0.470   0.679  0.00  0.00    +0.190 C 
ENDROOT
BRANCH   1   2
ATOM      2  C   UNL     1      -1.100  -1.974   0.626  0.00  0.00    +0.236 C 
ATOM      3  O   UNL     1      -1.643  -2.579   1.526  0.00  0.00    -0.274 OA
ATOM      4  N   UNL     1      -0.580  -2.645  -0.421  0.00  0.00    -0.311 N 
ATOM      5  H   UNL     1      -0.146  -2.160  -1.140  0.00  0.00    +0.149 HD
BRANCH   4   6
ATOM      6  C   UNL     1      -0.671  -4.109  -0.472  0.00  0.00    +0.070 C 
ATOM      7  C   UNL     1       0.521  -4.713   0.274  0.00  0.00    +0.010 C 
ATOM      8  C   UNL     1       0.450  -6.238   0.217  0.00  0.00    -0.069 C 
ATOM      9  N   UNL     1       0.342  -6.733  -1.149  0.00  0.00    +0.385 N 
ATOM     10  C   UNL     1      -0.631  -6.089  -2.019  0.00  0.00    -0.069 C 
ATOM     11  C   UNL     1      -0.606  -4.567  -1.929  0.00  0.00    +0.010 C 
ATOM     12  C   UNL     1      -2.049  -6.605  -1.764  0.00  0.00    -0.010 C 
ATOM     13  C   UNL     1      -0.269  -6.468  -3.475  0.00  0.00    -0.010 C 
ATOM     14  C   UNL     1       0.058  -8.183  -1.107  0.00  0.00    -0.095 C 
ATOM     15  C   UNL     1      -0.683  -6.749   1.107  0.00  0.00    -0.010 C 
ATOM     16  C   UNL     1       1.774  -6.780   0.804  0.00  0.00    -0.010 C 
ATOM     17  H   UNL     1       1.264  -6.632  -1.587  0.00  0.00    -0.081 HD
ENDBRANCH   4   6
ENDBRANCH   1   2
BRANCH   1  18
ATOM     18  N   UNL     1      -1.642   0.015   1.907  0.00  0.00    -0.267 N 
ATOM     19  C   UNL     1      -2.134   1.269   1.961  0.00  0.00    +0.401 C 
ATOM     20  O   UNL     1      -2.051   1.996   0.991  0.00  0.00    -0.226 OA
ATOM     21  H   UNL     1      -1.708  -0.565   2.681  0.00  0.00    +0.153 HD
BRANCH  19  22
ATOM     22  O   UNL     1      -2.717   1.715   3.089  0.00  0.00    -0.446 OA
BRANCH  22  23
ATOM     23  C   UNL     1      -3.216   3.054   3.075  0.00  0.00    +0.269 C 
BRANCH  23  24
ATOM     24  C   UNL     1      -3.829   3.375   4.414  0.00  0.00    -0.010 A 
ATOM     25  C   UNL     1      -5.168   3.118   4.641  0.00  0.00    +0.007 A 
ATOM     26  C   UNL     1      -5.731   3.413   5.869  0.00  0.00    +0.000 A 
ATOM     27  C   UNL     1      -4.954   3.964   6.870  0.00  0.00    +0.000 A 
ATOM     28  C   UNL     1      -3.614   4.220   6.644  0.00  0.00    +0.000 A 
ATOM     29  C   UNL     1      -3.051   3.922   5.418  0.00  0.00    +0.007 A 
ENDBRANCH  23  24
ENDBRANCH  22  23
ENDBRANCH  19  22
ENDBRANCH   1  18
BRANCH   1  31
ATOM     30  C   UNL     1       0.562   1.467   0.843  0.00  0.00    +0.040 C 
ATOM     31  C   UNL     1       0.464  -0.049   0.664  0.00  0.00    +0.145 C 
BRANCH  31  32
ATOM     32  O   UNL     1       1.156  -0.701   1.730  0.00  0.00    -0.370 OA
BRANCH  32  33
ATOM     33  C   UNL     1       2.536  -0.954   1.458  0.00  0.00    +0.195 C 
BRANCH  33  34
ATOM     34  C   UNL     1       3.164  -1.640   2.644  0.00  0.00    -0.022 A 
ATOM     35  C   UNL     1       3.735  -0.889   3.655  0.00  0.00    +0.006 A 
ATOM     36  C   UNL     1       4.311  -1.518   4.743  0.00  0.00    +0.000 A 
ATOM     37  C   UNL     1       4.317  -2.898   4.820  0.00  0.00    +0.000 A 
ATOM     38  C   UNL     1       3.746  -3.649   3.809  0.00  0.00    +0.000 A 
ATOM     39  C   UNL     1       3.166  -3.020   2.724  0.00  0.00    +0.006 A 
ENDBRANCH  33  34
ENDBRANCH  32  33
ENDBRANCH  31  32
ENDBRANCH   1  31
TORSDOF 10
