REMARK  Name = ZINC16293303
REMARK  10 active torsions:
REMARK  status: ('A' for Active; 'I' for Inactive)
REMARK    1  A    between atoms: C_1  and  C_2
REMARK    2  A    between atoms: C_6  and  N_8
REMARK    3  A    between atoms: C_11  and  C_17
REMARK    4  A    between atoms: C_11  and  C_25
REMARK    5  A    between atoms: C_17  and  C_18
REMARK    6  A    between atoms: C_18  and  C_19
REMARK    7  A    between atoms: C_25  and  C_26
REMARK    8  A    between atoms: C_29  and  C_32
REMARK    9  A    between atoms: C_32  and  C_33
REMARK   10  A    between atoms: C_32  and  C_34
REMARK                            x       y       z     vdW  Elec       q    Type
REMARK                         _______ _______ _______ _____ _____    ______ ____
ROOT
ATOM      1  N   UNL     1       1.207   4.492  -3.222  0.00  0.00    -0.193 N 
ATOM      2  C   UNL     1       1.316   4.573  -1.879  0.00  0.00    +0.243 C 
ATOM      3  O   UNL     1       0.556   5.256  -1.226  0.00  0.00    -0.274 OA
ATOM      4  C   UNL     1       2.426   3.779  -1.216  0.00  0.00    +0.128 C 
ATOM      5  C   UNL     1       3.311   2.964  -2.140  0.00  0.00    +0.236 C 
ATOM      6  O   UNL     1       4.225   2.296  -1.707  0.00  0.00    -0.274 OA
ATOM      7  N   UNL     1       3.042   3.010  -3.462  0.00  0.00    -0.239 N 
ATOM      8  C   UNL     1       2.038   3.743  -3.956  0.00  0.00    +0.319 C 
ATOM      9  O   UNL     1       1.867   3.727  -5.159  0.00  0.00    -0.251 OA
ATOM     10  H   UNL     1       3.594   2.497  -4.073  0.00  0.00    +0.159 HD
ENDROOT
BRANCH   1  16
ATOM     11  C   UNL     1      -0.333   8.645  -5.360  0.00  0.00    +0.044 C 
ATOM     12  C   UNL     1      -0.580   7.227  -4.913  0.00  0.00    -0.049 A 
ATOM     13  C   UNL     1      -1.810   6.636  -5.139  0.00  0.00    +0.003 A 
ATOM     14  C   UNL     1      -2.041   5.336  -4.730  0.00  0.00    +0.002 A 
ATOM     15  C   UNL     1      -1.043   4.623  -4.094  0.00  0.00    +0.024 A 
ATOM     16  C   UNL     1       0.192   5.213  -3.866  0.00  0.00    +0.046 A 
ATOM     17  C   UNL     1       0.419   6.521  -4.273  0.00  0.00    +0.027 A 
ENDBRANCH   1  16
BRANCH   4  18
ATOM     18  C   UNL     1       3.318   4.756  -0.449  0.00  0.00    +0.032 C 
BRANCH  18  19
ATOM     19  C   UNL     1       3.973   5.729  -1.432  0.00  0.00    +0.057 C 
BRANCH  19  20
ATOM     20  C   UNL     1       4.852   6.691  -0.676  0.00  0.00    +0.041 A 
ATOM     21  C   UNL     1       6.183   6.821  -1.026  0.00  0.00    +0.023 A 
ATOM     22  C   UNL     1       6.982   7.710  -0.325  0.00  0.00    +0.003 A 
ATOM     23  C   UNL     1       6.411   8.439   0.707  0.00  0.00    +0.020 A 
ATOM     24  C   UNL     1       5.073   8.256   1.001  0.00  0.00    +0.111 A 
ATOM     25  N   UNL     1       4.341   7.405   0.309  0.00  0.00    -0.260 NA
ENDBRANCH  19  20
ENDBRANCH  18  19
ENDBRANCH   4  18
BRANCH   4  26
ATOM     26  C   UNL     1       1.789   2.825  -0.203  0.00  0.00    +0.060 C 
BRANCH  26  27
ATOM     27  C   UNL     1       0.841   1.896  -0.916  0.00  0.00    -0.046 A 
ATOM     28  C   UNL     1       1.298   0.691  -1.415  0.00  0.00    +0.004 A 
ATOM     29  C   UNL     1       0.428  -0.161  -2.069  0.00  0.00    +0.004 A 
ATOM     30  C   UNL     1      -0.898   0.194  -2.228  0.00  0.00    -0.045 A 
ATOM     31  C   UNL     1      -1.357   1.397  -1.724  0.00  0.00    +0.004 A 
ATOM     32  C   UNL     1      -0.487   2.249  -1.070  0.00  0.00    +0.004 A 
BRANCH  30  33
ATOM     33  C   UNL     1      -1.846  -0.732  -2.947  0.00  0.00    +0.013 C 
ATOM     34  C   UNL     1      -2.982  -1.131  -2.004  0.00  0.00    +0.012 C 
ATOM     35  C   UNL     1      -2.425  -0.020  -4.171  0.00  0.00    +0.012 C 
ENDBRANCH  30  33
ENDBRANCH  26  27
ENDBRANCH   4  26
TORSDOF 7
