REMARK  Name = ZINC43554538
REMARK  12 active torsions:
REMARK  status: ('A' for Active; 'I' for Inactive)
REMARK    1  A    between atoms: C_1  and  C_2
REMARK    2  A    between atoms: C_5  and  O_40
REMARK    3  A    between atoms: C_7  and  C_37
REMARK    4  A    between atoms: C_7  and  C_38
REMARK    5  A    between atoms: C_14  and  C_16
REMARK    6  A    between atoms: C_22  and  C_24
REMARK    7  A    between atoms: C_24  and  C_25
REMARK    8  A    between atoms: N_27  and  C_28
REMARK    9  A    between atoms: C_28  and  C_29
REMARK   10  A    between atoms: C_34  and  O_35
REMARK   11  A    between atoms: O_35  and  C_36
REMARK   12  A    between atoms: C_38  and  O_39
REMARK                            x       y       z     vdW  Elec       q    Type
REMARK                         _______ _______ _______ _____ _____    ______ ____
ROOT
ATOM      1  C   UNL     1       0.117   1.506  -0.020  0.00  0.00    +0.012 C 
ATOM      2  C   UNL     1       0.118  -0.031  -0.010  0.00  0.00    -0.020 C 
ATOM      3  C   UNL     1      -1.324  -0.517   0.066  0.00  0.00    +0.010 C 
ATOM      4  C   UNL     1      -1.976   0.041   1.332  0.00  0.00    +0.032 C 
ATOM      5  C   UNL     1      -1.232  -0.380   2.585  0.00  0.00    +0.123 C 
ATOM      6  C   UNL     1       0.274  -0.191   2.529  0.00  0.00    +0.021 C 
ATOM      7  C   UNL     1       0.891  -0.577   1.185  0.00  0.00    +0.011 C 
ATOM      8  C   UNL     1       0.933  -2.117   1.138  0.00  0.00    +0.049 C 
ATOM      9  C   UNL     1       1.033  -2.629  -0.253  0.00  0.00    +0.014 A 
ATOM     10  C   UNL     1       0.940  -1.927  -1.416  0.00  0.00    +0.056 A 
ATOM     11  N   UNL     1       1.015  -2.607  -2.549  0.00  0.00    -0.243 NA
ATOM     12  C   UNL     1       1.207  -3.917  -2.575  0.00  0.00    +0.110 A 
ATOM     13  S   UNL     1       1.300  -4.288  -0.827  0.00  0.00    -0.072 S 
ATOM     14  C   UNL     1       0.785  -0.418  -1.331  0.00  0.00    +0.053 C 
ATOM     15  C   UNL     1       0.646   1.239   2.945  0.00  0.00    +0.016 C 
ENDROOT
BRANCH  12  16
ATOM     16  C   UNL     1       1.317  -4.827  -3.736  0.00  0.00    +0.025 A 
ATOM     17  C   UNL     1       1.517  -6.199  -3.547  0.00  0.00    +0.013 A 
ATOM     18  C   UNL     1       1.613  -7.007  -4.667  0.00  0.00    +0.020 A 
ATOM     19  C   UNL     1       1.510  -6.439  -5.923  0.00  0.00    +0.111 A 
ATOM     20  N   UNL     1       1.321  -5.141  -6.070  0.00  0.00    -0.263 NA
ATOM     21  C   UNL     1       1.217  -4.332  -5.036  0.00  0.00    +0.121 A 
ENDBRANCH  12  16
BRANCH   5  22
ATOM     22  O   UNL     1      -1.547  -1.741   2.900  0.00  0.00    -0.391 OA
ATOM     23  H   UNL     1      -2.487  -1.900   3.063  0.00  0.00    +0.210 HD
ENDBRANCH   5  22
BRANCH  14  24
ATOM     24  C   UNL     1      -0.021   0.104  -2.516  0.00  0.00    +0.106 C 
BRANCH  24  25
ATOM     25  C   UNL     1       0.721  -0.185  -3.796  0.00  0.00    +0.214 C 
ATOM     26  O   UNL     1       1.792  -0.755  -3.760  0.00  0.00    -0.276 OA
ATOM     27  N   UNL     1       0.196   0.189  -4.979  0.00  0.00    -0.311 N 
ATOM     28  H   UNL     1      -0.660   0.644  -5.007  0.00  0.00    +0.149 HD
BRANCH  27  29
ATOM     29  C   UNL     1       0.917  -0.093  -6.223  0.00  0.00    +0.143 C 
BRANCH  29  30
ATOM     30  C   UNL     1       0.121   0.423  -7.393  0.00  0.00    +0.011 A 
ATOM     31  C   UNL     1      -0.651  -0.445  -8.141  0.00  0.00    +0.009 A 
ATOM     32  C   UNL     1      -1.381   0.028  -9.215  0.00  0.00    +0.001 A 
ATOM     33  C   UNL     1      -1.342   1.370  -9.544  0.00  0.00    +0.004 A 
ATOM     34  C   UNL     1      -0.572   2.243  -8.800  0.00  0.00    +0.046 A 
ATOM     35  C   UNL     1       0.158   1.771  -7.718  0.00  0.00    +0.125 A 
BRANCH  35  36
ATOM     36  O   UNL     1       0.912   2.628  -6.980  0.00  0.00    -0.495 OA
ATOM     37  C   UNL     1       0.902   4.003  -7.372  0.00  0.00    +0.277 C 
ENDBRANCH  35  36
ENDBRANCH  29  30
ENDBRANCH  27  29
ENDBRANCH  24  25
ENDBRANCH  14  24
BRANCH   6  38
ATOM     38  C   UNL     1       0.886  -1.104   3.624  0.00  0.00    +0.165 C 
BRANCH  38  39
ATOM     39  O   UNL     1       0.376  -0.721   4.903  0.00  0.00    -0.394 OA
ATOM     40  H   UNL     1       0.717  -1.251   5.637  0.00  0.00    +0.209 HD
ENDBRANCH  38  39
ENDBRANCH   6  38
TORSDOF 9
