REMARK  Name = ZINC35745465
REMARK  10 active torsions:
REMARK  status: ('A' for Active; 'I' for Inactive)
REMARK    1  A    between atoms: C_1  and  C_2
REMARK    2  A    between atoms: C_2  and  O_3
REMARK    3  A    between atoms: O_3  and  C_4
REMARK    4  A    between atoms: C_4  and  C_6
REMARK    5  A    between atoms: C_7  and  C_26
REMARK    6  A    between atoms: C_13  and  C_17
REMARK    7  A    between atoms: C_17  and  N_18
REMARK    8  A    between atoms: C_22  and  C_25
REMARK    9  A    between atoms: C_26  and  C_27
REMARK   10  A    between atoms: C_26  and  C_28
REMARK                            x       y       z     vdW  Elec       q    Type
REMARK                         _______ _______ _______ _____ _____    ______ ____
ROOT
ATOM      1  C   UNL     1      -3.745  -2.917  -0.557  0.00  0.00    +0.102 A 
ATOM      2  C   UNL     1      -3.549  -4.255  -0.367  0.00  0.00    -0.009 A 
ATOM      3  C   UNL     1      -4.645  -5.118  -0.323  0.00  0.00    +0.076 A 
ATOM      4  C   UNL     1      -4.673  -6.587  -0.131  0.00  0.00    +0.260 A 
ATOM      5  O   UNL     1      -3.641  -7.216   0.019  0.00  0.00    -0.267 OA
ATOM      6  N   UNL     1      -5.869  -7.207  -0.126  0.00  0.00    -0.309 N 
ATOM      7  H   UNL     1      -5.904  -8.168  -0.001  0.00  0.00    +0.170 HD
ATOM      8  C   UNL     1      -7.023  -6.516  -0.291  0.00  0.00    +0.125 A 
ATOM      9  N   UNL     1      -7.034  -5.222  -0.462  0.00  0.00    -0.225 NA
ATOM     10  C   UNL     1      -5.913  -4.513  -0.484  0.00  0.00    +0.116 A 
ATOM     11  S   UNL     1      -5.522  -2.793  -0.679  0.00  0.00    -0.062 S 
ENDROOT
BRANCH   2  12
ATOM     12  C   UNL     1      -2.152  -4.798  -0.206  0.00  0.00    +0.015 C 
ATOM     13  C   UNL     1      -2.025  -5.483   1.156  0.00  0.00    +0.012 C 
ATOM     14  C   UNL     1      -1.869  -5.812  -1.316  0.00  0.00    +0.012 C 
ENDBRANCH   2  12
BRANCH   1  15
ATOM     15  C   UNL     1      -2.747  -1.849  -0.634  0.00  0.00    +0.346 C 
ATOM     16  O   UNL     1      -1.590  -2.075  -0.336  0.00  0.00    -0.244 OA
BRANCH  15  17
ATOM     17  O   UNL     1      -3.111  -0.614  -1.036  0.00  0.00    -0.461 OA
BRANCH  17  19
ATOM     18  C   UNL     1      -2.683   1.706  -1.563  0.00  0.00    +0.048 C 
ATOM     19  C   UNL     1      -2.085   0.380  -1.088  0.00  0.00    +0.229 C 
ENDBRANCH  17  19
ENDBRANCH  15  17
ENDBRANCH   1  15
BRANCH   8  20
ATOM     20  C   UNL     1      -8.332  -7.263  -0.276  0.00  0.00    +0.158 C 
BRANCH  20  21
ATOM     21  N   UNL     1      -9.438  -6.317  -0.472  0.00  0.00    -0.299 NA
ATOM     22  C   UNL     1      -9.394  -5.726  -1.817  0.00  0.00    +0.066 C 
ATOM     23  C   UNL     1     -10.525  -4.705  -1.959  0.00  0.00    -0.067 C 
ATOM     24  N   UNL     1     -11.816  -5.370  -1.740  0.00  0.00    +0.382 N 
ATOM     25  C   UNL     1     -11.854  -5.934  -0.384  0.00  0.00    -0.061 C 
ATOM     26  C   UNL     1     -10.735  -6.965  -0.229  0.00  0.00    +0.069 C 
ATOM     27  C   UNL     1     -13.207  -6.611  -0.151  0.00  0.00    -0.012 C 
ATOM     28  H   UNL     1     -12.562  -4.699  -1.846  0.00  0.00    -0.085 HD
ATOM     29  H   UNL     1     -11.931  -6.111  -2.416  0.00  0.00    -0.085 HD
ENDBRANCH  20  21
ENDBRANCH   8  20
TORSDOF 6
