REMARK  Name = ZINC44321382
REMARK  9 active torsions:
REMARK  status: ('A' for Active; 'I' for Inactive)
REMARK    1  A    between atoms: C_1  and  C_2
REMARK    2  A    between atoms: C_5  and  C_11
REMARK    3  A    between atoms: C_8  and  C_10
REMARK    4  A    between atoms: C_11  and  CA_12
REMARK    5  A    between atoms: CA_12  and  C_14
REMARK    6  A    between atoms: CA_12  and  N_17
REMARK    7  A    between atoms: C_18  and  O_20
REMARK    8  A    between atoms: O_20  and  C_21
REMARK    9  A    between atoms: C_21  and  C_22
REMARK                            x       y       z     vdW  Elec       q    Type
REMARK                         _______ _______ _______ _____ _____    ______ ____
ROOT
ATOM      1  N   UNL     1       2.622  -4.426  -1.342  0.00  0.00    -0.268 N 
ATOM      2  C   UNL     1       2.566  -5.619  -0.717  0.00  0.00    +0.401 C 
ATOM      3  O   UNL     1       1.682  -6.407  -0.991  0.00  0.00    -0.226 OA
ATOM      4  H   UNL     1       3.327  -3.797  -1.123  0.00  0.00    +0.153 HD
ENDROOT
BRANCH   1   5
ATOM      5  CA  UNL     1       1.617  -4.079  -2.350  0.00  0.00    +0.189 C 
BRANCH   5   6
ATOM      6  C   UNL     1       2.034  -4.636  -3.687  0.00  0.00    +0.376 C 
ATOM      7  O   UNL     1       3.151  -5.103  -3.831  0.00  0.00    -0.244 OA
ATOM      8  OXT UNL     1       1.254  -4.619  -4.624  0.00  0.00    -0.244 OA
ENDBRANCH   5   6
BRANCH   5   9
ATOM      9  C   UNL     1       1.496  -2.557  -2.447  0.00  0.00    +0.038 C 
BRANCH   9  13
ATOM     10  C   UNL     1      -0.019   1.526   0.010  0.00  0.00    +0.012 C 
ATOM     11  C   UNL     1       0.002  -0.004   0.002  0.00  0.00    +0.009 C 
ATOM     12  C   UNL     1       0.713  -0.495  -1.261  0.00  0.00    +0.011 C 
ATOM     13  C   UNL     1       0.953  -2.004  -1.127  0.00  0.00    -0.004 C 
ATOM     14  C   UNL     1       1.973  -2.234  -0.010  0.00  0.00    +0.033 C 
ATOM     15  C   UNL     1       1.573  -1.471   1.219  0.00  0.00    -0.076 C 
ATOM     16  C   UNL     1       0.723  -0.498   1.222  0.00  0.00    -0.025 C 
ATOM     17  C   UNL     1       2.206  -1.862   2.530  0.00  0.00    +0.039 C 
ENDBRANCH   9  13
ENDBRANCH   5   9
ENDBRANCH   1   5
BRANCH   2  18
ATOM     18  O   UNL     1       3.489  -5.938   0.209  0.00  0.00    -0.449 OA
BRANCH  18  19
ATOM     19  C   UNL     1       3.368  -7.219   0.831  0.00  0.00    +0.246 C 
BRANCH  19  20
ATOM     20  C   UNL     1       4.497  -7.401   1.847  0.00  0.00    +0.088 C 
ATOM     21  C   UNL     1       5.824  -7.515   1.136  0.00  0.00    -0.029 A 
ATOM     22  C   UNL     1       6.507  -6.651   0.308  0.00  0.00    +0.005 A 
ATOM     23  C   UNL     1       7.733  -7.019  -0.218  0.00  0.00    +0.000 A 
ATOM     24  C   UNL     1       8.274  -8.255   0.085  0.00  0.00    +0.001 A 
ATOM     25  C   UNL     1       7.598  -9.126   0.913  0.00  0.00    +0.009 A 
ATOM     26  C   UNL     1       6.361  -8.761   1.448  0.00  0.00    -0.014 A 
ATOM     27  C   UNL     1       5.432  -9.488   2.349  0.00  0.00    -0.014 A 
ATOM     28  C   UNL     1       4.315  -8.696   2.600  0.00  0.00    -0.029 A 
ATOM     29  C   UNL     1       3.305  -9.158   3.417  0.00  0.00    +0.005 A 
ATOM     30  C   UNL     1       3.397 -10.414   3.990  0.00  0.00    +0.000 A 
ATOM     31  C   UNL     1       4.503 -11.208   3.747  0.00  0.00    +0.001 A 
ATOM     32  C   UNL     1       5.519 -10.754   2.931  0.00  0.00    +0.009 A 
ENDBRANCH  19  20
ENDBRANCH  18  19
ENDBRANCH   2  18
TORSDOF 7
