REMARK  Name = ZINC09173372
REMARK  8 active torsions:
REMARK  status: ('A' for Active; 'I' for Inactive)
REMARK    1  A    between atoms: C_1  and  C_2
REMARK    2  A    between atoms: C_4  and  S_10
REMARK    3  A    between atoms: C_7  and  O_8
REMARK    4  A    between atoms: O_8  and  C_9
REMARK    5  A    between atoms: S_10  and  N_13
REMARK    6  A    between atoms: N_13  and  C_14
REMARK    7  A    between atoms: C_23  and  C_26
REMARK    8  A    between atoms: C_23  and  C_27
REMARK                            x       y       z     vdW  Elec       q    Type
REMARK                         _______ _______ _______ _____ _____    ______ ____
ROOT
ATOM      1  C   UNL     1      -2.493   3.147  -2.545  0.00  0.00    +0.050 A 
ATOM      2  C   UNL     1      -1.450   2.928  -3.436  0.00  0.00    +0.028 A 
ATOM      3  C   UNL     1      -0.725   1.753  -3.382  0.00  0.00    +0.049 A 
ATOM      4  C   UNL     1      -1.037   0.789  -2.439  0.00  0.00    +0.142 A 
ATOM      5  C   UNL     1      -2.086   1.004  -1.546  0.00  0.00    +0.077 A 
ATOM      6  C   UNL     1      -2.811   2.183  -1.598  0.00  0.00    +0.051 A 
ATOM      7  N   UNL     1      -2.396   0.017  -0.601  0.00  0.00    -0.282 N 
ATOM      8  C   UNL     1      -1.405  -0.524   0.143  0.00  0.00    +0.226 C 
ATOM      9  O   UNL     1      -1.648  -1.423   0.920  0.00  0.00    -0.275 OA
ATOM     10  C   UNL     1       0.002  -0.004   0.002  0.00  0.00    +0.076 C 
ATOM     11  C   UNL     1       0.611  -0.495  -1.310  0.00  0.00    +0.244 C 
ATOM     12  O   UNL     1      -0.324  -0.367  -2.374  0.00  0.00    -0.489 OA
ATOM     13  C   UNL     1      -0.019   1.526   0.010  0.00  0.00    +0.024 C 
ATOM     14  C   UNL     1       0.848  -0.506   1.174  0.00  0.00    +0.024 C 
ATOM     15  H   UNL     1      -3.313  -0.276  -0.482  0.00  0.00    +0.155 HD
ENDROOT
BRANCH   1  16
ATOM     16  N   UNL     1      -3.223   4.340  -2.602  0.00  0.00    -0.216 N 
ATOM     17  H   UNL     1      -3.433   4.819  -1.785  0.00  0.00    +0.174 HD
BRANCH  16  18
ATOM     18  S   UNL     1      -3.729   4.932  -4.063  0.00  0.00    +0.072 S 
ATOM     19  O   UNL     1      -4.456   6.122  -3.789  0.00  0.00    -0.150 OA
ATOM     20  O   UNL     1      -2.598   4.912  -4.923  0.00  0.00    -0.150 OA
BRANCH  18  24
ATOM     21  C   UNL     1      -8.605   3.143  -4.639  0.00  0.00    +0.047 C 
ATOM     22  C   UNL     1      -7.138   3.002  -4.952  0.00  0.00    -0.007 A 
ATOM     23  C   UNL     1      -6.230   3.906  -4.436  0.00  0.00    +0.035 A 
ATOM     24  C   UNL     1      -4.884   3.777  -4.723  0.00  0.00    +0.109 A 
ATOM     25  C   UNL     1      -4.443   2.745  -5.531  0.00  0.00    +0.032 A 
ATOM     26  C   UNL     1      -5.346   1.835  -6.045  0.00  0.00    +0.048 A 
ATOM     27  C   UNL     1      -6.697   1.963  -5.759  0.00  0.00    +0.123 A 
BRANCH  27  28
ATOM     28  O   UNL     1      -7.588   1.072  -6.268  0.00  0.00    -0.495 OA
ATOM     29  C   UNL     1      -7.064   0.028  -7.090  0.00  0.00    +0.277 C 
ENDBRANCH  27  28
ENDBRANCH  18  24
ENDBRANCH  16  18
ENDBRANCH   1  16
TORSDOF 4
