REMARK  Name = ZINC03148451
REMARK  4 active torsions:
REMARK  status: ('A' for Active; 'I' for Inactive)
REMARK    1  A    between atoms: C_1  and  C_2
REMARK    2  A    between atoms: C_4  and  C_23
REMARK    3  A    between atoms: N_9  and  N_10
REMARK    4  A    between atoms: C_11  and  C_13
REMARK                            x       y       z     vdW  Elec       q    Type
REMARK                         _______ _______ _______ _____ _____    ______ ____
ROOT
ATOM      1  C   UNL     1      -0.018   1.503   0.010  0.00  0.00    +0.044 C 
ATOM      2  C   UNL     1       0.002  -0.004   0.002  0.00  0.00    -0.049 A 
ATOM      3  C   UNL     1       0.006  -0.689  -1.201  0.00  0.00    +0.008 A 
ATOM      4  C   UNL     1       0.024  -2.069  -1.225  0.00  0.00    -0.028 A 
ATOM      5  C   UNL     1       0.039  -2.787  -0.034  0.00  0.00    +0.046 A 
ATOM      6  C   UNL     1       0.035  -2.090   1.181  0.00  0.00    +0.029 A 
ATOM      7  C   UNL     1       0.023  -0.700   1.194  0.00  0.00    +0.015 A 
ATOM      8  C   UNL     1       0.054  -3.115   2.251  0.00  0.00    +0.153 C 
ATOM      9  N   UNL     1       0.057  -2.916   3.547  0.00  0.00    -0.174 NA
ATOM     10  C   UNL     1       0.067  -4.409   1.540  0.00  0.00    +0.269 C 
ATOM     11  O   UNL     1       0.084  -5.510   2.056  0.00  0.00    -0.268 OA
ATOM     12  N   UNL     1       0.058  -4.154   0.220  0.00  0.00    -0.279 N 
ATOM     13  C   UNL     1       0.027  -2.799  -2.543  0.00  0.00    +0.046 C 
ATOM     14  H   UNL     1       0.063  -4.838  -0.468  0.00  0.00    +0.155 HD
ENDROOT
BRANCH   9  15
ATOM     15  N   UNL     1       0.075  -4.009   4.423  0.00  0.00    -0.202 N 
ATOM     16  C   UNL     1       0.079  -3.804   5.755  0.00  0.00    +0.263 C 
ATOM     17  O   UNL     1       0.066  -2.672   6.197  0.00  0.00    -0.268 OA
ATOM     18  H   UNL     1       0.086  -4.913   4.071  0.00  0.00    +0.178 HD
BRANCH  16  19
ATOM     19  C   UNL     1       0.098  -4.957   6.679  0.00  0.00    +0.039 A 
ATOM     20  C   UNL     1       0.119  -6.259   6.176  0.00  0.00    +0.013 A 
ATOM     21  C   UNL     1       0.137  -7.331   7.044  0.00  0.00    +0.002 A 
ATOM     22  C   UNL     1       0.134  -7.119   8.411  0.00  0.00    +0.015 A 
ATOM     23  C   UNL     1       0.113  -5.830   8.918  0.00  0.00    +0.019 A 
ATOM     24  C   UNL     1       0.101  -4.749   8.060  0.00  0.00    +0.028 A 
ATOM     25 BR   UNL     1       0.108  -5.552  10.788  0.00  0.00    -0.050 Br
ENDBRANCH  16  19
ENDBRANCH   9  15
TORSDOF 2
