REMARK  Name = ZINC60347665
REMARK  10 active torsions:
REMARK  status: ('A' for Active; 'I' for Inactive)
REMARK    1  A    between atoms: C_1  and  C_2
REMARK    2  A    between atoms: C_2  and  C_3
REMARK    3  A    between atoms: C_2  and  C_4
REMARK    4  A    between atoms: C_2  and  C_5
REMARK    5  A    between atoms: C_12  and  C_14
REMARK    6  A    between atoms: N_16  and  C_17
REMARK    7  A    between atoms: C_20  and  C_23
REMARK    8  A    between atoms: C_23  and  C_24
REMARK    9  A    between atoms: C_24  and  N_25
REMARK   10  A    between atoms: C_28  and  C_31
REMARK                            x       y       z     vdW  Elec       q    Type
REMARK                         _______ _______ _______ _____ _____    ______ ____
ROOT
ATOM      1  C   UNL     1       7.523  -0.935  -6.347  0.00  0.00    +0.034 A 
ATOM      2  C   UNL     1       8.281   0.140  -5.900  0.00  0.00    +0.023 A 
ATOM      3  C   UNL     1       9.489   0.430  -6.504  0.00  0.00    +0.005 A 
ATOM      4  C   UNL     1       9.943  -0.348  -7.553  0.00  0.00    -0.049 A 
ATOM      5  C   UNL     1       9.191  -1.418  -8.001  0.00  0.00    +0.005 A 
ATOM      6  C   UNL     1       7.985  -1.718  -7.397  0.00  0.00    +0.023 A 
ENDROOT
BRANCH   1   9
ATOM      7  C   UNL     1       5.909  -2.514  -5.600  0.00  0.00    +0.255 C 
ATOM      8  O   UNL     1       6.579  -3.409  -6.080  0.00  0.00    -0.269 OA
ATOM      9  N   UNL     1       6.300  -1.232  -5.737  0.00  0.00    -0.281 N 
ATOM     10  H   UNL     1       5.733  -0.514  -5.413  0.00  0.00    +0.155 HD
BRANCH   7  17
ATOM     11  C   UNL     1       1.217  -5.072  -2.393  0.00  0.00    -0.001 C 
ATOM     12  C   UNL     1       0.329  -3.876  -2.745  0.00  0.00    +0.009 C 
ATOM     13  C   UNL     1       1.184  -2.602  -2.722  0.00  0.00    +0.043 C 
ATOM     14  C   UNL     1       2.438  -2.857  -3.506  0.00  0.00    -0.006 A 
ATOM     15  C   UNL     1       2.922  -4.070  -3.897  0.00  0.00    -0.036 A 
ATOM     16  C   UNL     1       4.106  -4.064  -4.620  0.00  0.00    +0.024 A 
ATOM     17  C   UNL     1       4.678  -2.831  -4.872  0.00  0.00    +0.075 A 
ATOM     18  S   UNL     1       3.524  -1.726  -4.079  0.00  0.00    -0.088 S 
ATOM     19  C   UNL     1       2.181  -5.357  -3.545  0.00  0.00    +0.040 C 
BRANCH  11  21
ATOM     20  C   UNL     1       1.226  -7.497  -1.793  0.00  0.00    +0.011 C 
ATOM     21  C   UNL     1       0.340  -6.302  -2.148  0.00  0.00    -0.035 C 
ATOM     22  C   UNL     1      -0.460  -6.618  -3.414  0.00  0.00    +0.011 C 
ATOM     23  C   UNL     1      -0.623  -6.019  -0.993  0.00  0.00    +0.011 C 
ENDBRANCH  11  21
ENDBRANCH   7  17
ENDBRANCH   1   9
BRANCH   4  24
ATOM     24  C   UNL     1      11.261  -0.028  -8.210  0.00  0.00    +0.016 C 
BRANCH  24  25
ATOM     25  C   UNL     1      12.383  -0.786  -7.498  0.00  0.00    -0.074 C 
BRANCH  25  26
ATOM     26  N   UNL     1      13.668  -0.474  -8.138  0.00  0.00    +0.380 N 
ATOM     27  C   UNL     1      13.972   0.950  -7.954  0.00  0.00    -0.078 C 
ATOM     28  C   UNL     1      15.269   1.298  -8.689  0.00  0.00    -0.006 C 
ATOM     29  C   UNL     1      16.413   0.452  -8.121  0.00  0.00    +0.071 C 
ATOM     30  C   UNL     1      16.052  -1.030  -8.251  0.00  0.00    -0.006 C 
ATOM     31  C   UNL     1      14.726  -1.292  -7.533  0.00  0.00    -0.078 C 
ATOM     32  H   UNL     1      13.609  -0.679  -9.125  0.00  0.00    -0.082 HD
BRANCH  29  33
ATOM     33  C   UNL     1      17.677   0.733  -8.892  0.00  0.00    +0.213 C 
ATOM     34  O   UNL     1      17.666   1.530  -9.806  0.00  0.00    -0.276 OA
ATOM     35  N   UNL     1      18.820   0.097  -8.566  0.00  0.00    -0.329 N 
ATOM     36  H   UNL     1      18.829  -0.540  -7.835  0.00  0.00    +0.145 HD
ATOM     37  H   UNL     1      19.634   0.278  -9.062  0.00  0.00    +0.145 HD
ENDBRANCH  29  33
ENDBRANCH  25  26
ENDBRANCH  24  25
ENDBRANCH   4  24
TORSDOF 7
