REMARK  Name = ZINC07874719
REMARK  5 active torsions:
REMARK  status: ('A' for Active; 'I' for Inactive)
REMARK    1  A    between atoms: C_1  and  C_2
REMARK    2  A    between atoms: C_2  and  C_4
REMARK    3  A    between atoms: C_2  and  O_17
REMARK    4  A    between atoms: O_17  and  C_18
REMARK    5  A    between atoms: C_18  and  C_20
REMARK                            x       y       z     vdW  Elec       q    Type
REMARK                         _______ _______ _______ _____ _____    ______ ____
ROOT
ATOM      1  C   UNL     1       3.753  -4.309   6.211  0.00  0.00    +0.062 C 
ATOM      2  C   UNL     1       4.275  -4.462   4.781  0.00  0.00    +0.259 C 
ENDROOT
BRANCH   2   3
ATOM      3  C   UNL     1       4.434  -5.925   4.458  0.00  0.00    +0.261 C 
ATOM      4  O   UNL     1       3.813  -6.414   3.537  0.00  0.00    -0.271 OA
ATOM      5  N   UNL     1       5.265  -6.691   5.191  0.00  0.00    -0.258 N 
ATOM      6  C   UNL     1       6.029  -6.123   6.312  0.00  0.00    +0.209 C 
ATOM      7  C   UNL     1       7.432  -6.675   6.281  0.00  0.00    +0.235 C 
ATOM      8  O   UNL     1       8.346  -6.011   6.722  0.00  0.00    -0.274 OA
ATOM      9  N   UNL     1       7.681  -7.895   5.770  0.00  0.00    -0.283 N 
ATOM     10  C   UNL     1       6.653  -8.660   5.208  0.00  0.00    +0.055 A 
ATOM     11  C   UNL     1       5.426  -8.058   4.914  0.00  0.00    +0.058 A 
ATOM     12  C   UNL     1       4.407  -8.798   4.349  0.00  0.00    +0.025 A 
ATOM     13  C   UNL     1       4.598 -10.144   4.088  0.00  0.00    +0.002 A 
ATOM     14  C   UNL     1       5.807 -10.745   4.386  0.00  0.00    +0.002 A 
ATOM     15  C   UNL     1       6.835 -10.008   4.945  0.00  0.00    +0.025 A 
ATOM     16  H   UNL     1       8.585  -8.248   5.791  0.00  0.00    +0.155 HD
ENDBRANCH   2   3
BRANCH   2  17
ATOM     17  O   UNL     1       3.332  -3.861   3.855  0.00  0.00    -0.449 OA
BRANCH  17  18
ATOM     18  C   UNL     1       3.508  -2.558   3.562  0.00  0.00    +0.340 C 
ATOM     19  O   UNL     1       4.425  -1.940   4.066  0.00  0.00    -0.245 OA
BRANCH  18  20
ATOM     20  C   UNL     1       2.588  -1.881   2.628  0.00  0.00    +0.064 A 
ATOM     21  C   UNL     1       2.769  -0.529   2.323  0.00  0.00    +0.064 A 
ATOM     22  C   UNL     1       1.905   0.102   1.448  0.00  0.00    +0.164 A 
ATOM     23  C   UNL     1       0.858  -0.609   0.869  0.00  0.00    +0.180 A 
ATOM     24  C   UNL     1       0.677  -1.954   1.174  0.00  0.00    +0.087 A 
ATOM     25  C   UNL     1       1.534  -2.590   2.047  0.00  0.00    +0.039 A 
ATOM     26 CL   UNL     1      -0.632  -2.836   0.452  0.00  0.00    -0.080 Cl
ATOM     27  O   UNL     1       0.002  -0.004   0.002  0.00  0.00    -0.483 OA
ATOM     28  C   UNL     1      -0.017   1.427   0.010  0.00  0.00    +0.270 C 
ATOM     29  C   UNL     1       1.433   1.928  -0.001  0.00  0.00    +0.270 C 
ATOM     30  O   UNL     1       2.091   1.421   1.165  0.00  0.00    -0.485 OA
ENDBRANCH  18  20
ENDBRANCH  17  18
ENDBRANCH   2  17
TORSDOF 4
