REMARK  Name = ZINC64427079
REMARK  5 active torsions:
REMARK  status: ('A' for Active; 'I' for Inactive)
REMARK    1  A    between atoms: C_1  and  C_2
REMARK    2  A    between atoms: C_5  and  C_8
REMARK    3  A    between atoms: C_10  and  C_18
REMARK    4  A    between atoms: C_14  and  C_16
REMARK    5  A    between atoms: C_21  and  C_24
REMARK                            x       y       z     vdW  Elec       q    Type
REMARK                         _______ _______ _______ _____ _____    ______ ____
ROOT
ATOM      1  C   UNL     1       0.058  -4.244  -0.021  0.00  0.00    -0.013 C 
ATOM      2  C   UNL     1       1.118  -4.934  -0.515  0.00  0.00    +0.031 C 
ATOM      3  C   UNL     1       1.123  -6.343  -0.518  0.00  0.00    +0.064 C 
ATOM      4  N   UNL     1       0.132  -7.083  -0.056  0.00  0.00    -0.179 NA
ATOM      5  C   UNL     1      -0.977  -6.559   0.462  0.00  0.00    +0.258 C 
ATOM      6  O   UNL     1      -1.867  -7.275   0.877  0.00  0.00    -0.272 OA
ATOM      7  C   UNL     1      -1.102  -5.051   0.528  0.00  0.00    +0.209 C 
ENDROOT
BRANCH   1  12
ATOM      8  C   UNL     1      -0.018   1.503   0.010  0.00  0.00    +0.044 C 
ATOM      9  C   UNL     1       0.002  -0.004   0.002  0.00  0.00    -0.050 A 
ATOM     10  C   UNL     1       0.006  -0.686  -1.203  0.00  0.00    +0.004 A 
ATOM     11  C   UNL     1       0.024  -2.064  -1.219  0.00  0.00    +0.008 A 
ATOM     12  C   UNL     1       0.039  -2.774  -0.013  0.00  0.00    -0.020 A 
ATOM     13  C   UNL     1       0.036  -2.077   1.201  0.00  0.00    +0.008 A 
ATOM     14  C   UNL     1       0.023  -0.699   1.199  0.00  0.00    +0.004 A 
ENDBRANCH   1  12
BRANCH   3  15
ATOM     15  C   UNL     1       2.307  -7.033  -1.070  0.00  0.00    -0.002 A 
ATOM     16  C   UNL     1       3.383  -6.293  -1.566  0.00  0.00    +0.010 A 
ATOM     17  C   UNL     1       4.484  -6.943  -2.080  0.00  0.00    +0.004 A 
ATOM     18  C   UNL     1       4.526  -8.326  -2.106  0.00  0.00    -0.050 A 
ATOM     19  C   UNL     1       3.464  -9.066  -1.616  0.00  0.00    +0.004 A 
ATOM     20  C   UNL     1       2.358  -8.429  -1.094  0.00  0.00    +0.010 A 
ATOM     21  C   UNL     1       5.733  -9.030  -2.670  0.00  0.00    +0.044 C 
ENDBRANCH   3  15
BRANCH   7  22
ATOM     22  C   UNL     1      -2.314  -4.668  -0.215  0.00  0.00    +0.080 C 
ATOM     23  N   UNL     1      -3.249  -4.373  -0.789  0.00  0.00    -0.195 NA
ENDBRANCH   7  22
TORSDOF 3
