REMARK  Name = ZINC53020394
REMARK  11 active torsions:
REMARK  status: ('A' for Active; 'I' for Inactive)
REMARK    1  A    between atoms: C_1  and  C_2
REMARK    2  A    between atoms: C_2  and  C_3
REMARK    3  A    between atoms: C_3  and  C_4
REMARK    4  A    between atoms: C_4  and  C_6
REMARK    5  A    between atoms: C_4  and  N_7
REMARK    6  A    between atoms: C_8  and  C_10
REMARK    7  A    between atoms: C_10  and  C_12
REMARK    8  A    between atoms: C_10  and  N_13
REMARK    9  A    between atoms: C_16  and  C_19
REMARK   10  A    between atoms: N_21  and  C_22
REMARK   11  A    between atoms: C_27  and  O_28
REMARK                            x       y       z     vdW  Elec       q    Type
REMARK                         _______ _______ _______ _____ _____    ______ ____
ROOT
ATOM      1  N   UNL     1       1.599  -5.550  -1.968  0.00  0.00    +0.387 N 
ATOM      2  C   UNL     1       0.239  -5.604  -2.519  0.00  0.00    -0.077 C 
ATOM      3  C   UNL     1      -0.163  -7.062  -2.752  0.00  0.00    -0.006 C 
ATOM      4  C   UNL     1       0.816  -7.705  -3.739  0.00  0.00    +0.072 C 
ATOM      5  C   UNL     1       2.239  -7.576  -3.189  0.00  0.00    -0.006 C 
ATOM      6  C   UNL     1       2.552  -6.099  -2.940  0.00  0.00    -0.077 C 
ATOM      7  H   UNL     1       1.637  -6.091  -1.118  0.00  0.00    -0.081 HD
ENDROOT
BRANCH   4   8
ATOM      8  C   UNL     1       0.472  -9.162  -3.913  0.00  0.00    +0.220 C 
ATOM      9  O   UNL     1      -0.463  -9.641  -3.307  0.00  0.00    -0.275 OA
ATOM     10  N   UNL     1       1.205  -9.932  -4.741  0.00  0.00    -0.282 N 
ATOM     11  H   UNL     1       1.996  -9.569  -5.169  0.00  0.00    +0.155 HD
BRANCH  10  12
ATOM     12  C   UNL     1       0.823 -11.258  -4.984  0.00  0.00    +0.077 A 
ATOM     13  C   UNL     1      -0.478 -11.666  -4.729  0.00  0.00    +0.047 A 
ATOM     14  C   UNL     1      -0.852 -12.975  -4.970  0.00  0.00    +0.043 A 
ATOM     15  C   UNL     1       0.069 -13.881  -5.465  0.00  0.00    +0.023 A 
ATOM     16  C   UNL     1       1.368 -13.482  -5.721  0.00  0.00    +0.049 A 
ATOM     17  C   UNL     1       1.748 -12.170  -5.488  0.00  0.00    +0.138 A 
ATOM     18 CL   UNL     1      -2.481 -13.483  -4.650  0.00  0.00    -0.083 Cl
BRANCH  17  19
ATOM     19  O   UNL     1       3.024 -11.774  -5.745  0.00  0.00    -0.505 OA
ATOM     20  H   UNL     1       3.626 -11.878  -4.996  0.00  0.00    +0.292 HD
ENDBRANCH  17  19
ENDBRANCH  10  12
ENDBRANCH   4   8
BRANCH   1  21
ATOM     21  C   UNL     1       1.951  -4.154  -1.674  0.00  0.00    +0.016 C 
ATOM     22  C   UNL     1       3.391  -4.089  -1.161  0.00  0.00    -0.004 C 
BRANCH  21  24
ATOM     23  N   UNL     1       0.747  -2.292  -0.579  0.00  0.00    -0.314 N 
ATOM     24  C   UNL     1       1.018  -3.611  -0.623  0.00  0.00    +0.199 C 
ATOM     25  O   UNL     1       0.510  -4.362   0.183  0.00  0.00    -0.278 OA
ATOM     26  H   UNL     1       1.153  -1.691  -1.224  0.00  0.00    +0.149 HD
BRANCH  23  27
ATOM     27  C   UNL     1      -0.161  -1.764   0.443  0.00  0.00    +0.070 C 
ATOM     28  C   UNL     1       0.621  -1.498   1.731  0.00  0.00    +0.028 C 
BRANCH  27  29
ATOM     29  C   UNL     1      -0.785  -0.458  -0.055  0.00  0.00    +0.022 C 
BRANCH  29  31
ATOM     30  C   UNL     1      -2.291   0.560  -1.768  0.00  0.00    +0.004 C 
ATOM     31  C   UNL     1      -1.667  -0.746  -1.271  0.00  0.00    -0.002 C 
ENDBRANCH  29  31
ENDBRANCH  27  29
ENDBRANCH  23  27
ENDBRANCH  21  24
ENDBRANCH   1  21
TORSDOF 8
