REMARK  Name = ZINC37357823
REMARK  7 active torsions:
REMARK  status: ('A' for Active; 'I' for Inactive)
REMARK    1  A    between atoms: C_1  and  C_2
REMARK    2  A    between atoms: C_2  and  C_3
REMARK    3  A    between atoms: C_2  and  C_4
REMARK    4  A    between atoms: C_4  and  N_5
REMARK    5  A    between atoms: C_8  and  C_23
REMARK    6  A    between atoms: C_10  and  N_22
REMARK    7  A    between atoms: N_11  and  C_15
REMARK                            x       y       z     vdW  Elec       q    Type
REMARK                         _______ _______ _______ _____ _____    ______ ____
ROOT
ATOM      1  N   UNL     1      -1.621  -2.004   1.036  0.00  0.00    -0.313 N 
ATOM      2  C   UNL     1      -2.796  -2.704   0.831  0.00  0.00    +0.218 A 
ATOM      3  N   UNL     1      -2.748  -4.032   0.850  0.00  0.00    -0.214 NA
ATOM      4  C   UNL     1      -3.828  -4.781   0.663  0.00  0.00    +0.089 A 
ATOM      5  C   UNL     1      -5.062  -4.130   0.437  0.00  0.00    +0.086 A 
ATOM      6  C   UNL     1      -6.372  -4.533   0.206  0.00  0.00    +0.131 A 
ATOM      7  N   UNL     1      -7.119  -3.421   0.065  0.00  0.00    -0.215 N 
ATOM      8  N   UNL     1      -6.312  -2.285   0.200  0.00  0.00    -0.144 NA
ATOM      9  C   UNL     1      -5.071  -2.656   0.425  0.00  0.00    +0.189 A 
ATOM     10  N   UNL     1      -3.903  -2.018   0.634  0.00  0.00    -0.193 NA
ATOM     11  H   UNL     1      -0.790  -2.483   1.184  0.00  0.00    +0.149 HD
ENDROOT
BRANCH   7  12
ATOM     12  C   UNL     1      -8.497  -3.404  -0.182  0.00  0.00    +0.086 A 
ATOM     13  C   UNL     1      -9.228  -4.583  -0.127  0.00  0.00    +0.029 A 
ATOM     14  C   UNL     1     -10.588  -4.563  -0.371  0.00  0.00    +0.002 A 
ATOM     15  C   UNL     1     -11.221  -3.370  -0.670  0.00  0.00    +0.002 A 
ATOM     16  C   UNL     1     -10.497  -2.194  -0.726  0.00  0.00    +0.022 A 
ATOM     17  C   UNL     1      -9.137  -2.206  -0.478  0.00  0.00    +0.066 A 
ATOM     18 CL   UNL     1      -8.229  -0.728  -0.541  0.00  0.00    -0.081 Cl
ENDBRANCH   7  12
BRANCH   4  19
ATOM     19  C   UNL     1      -3.742  -6.258   0.689  0.00  0.00    +0.001 A 
ATOM     20  C   UNL     1      -4.404  -7.015  -0.278  0.00  0.00    +0.011 A 
ATOM     21  C   UNL     1      -4.320  -8.392  -0.249  0.00  0.00    +0.020 A 
ATOM     22  C   UNL     1      -3.581  -9.022   0.738  0.00  0.00    +0.041 A 
ATOM     23  C   UNL     1      -2.921  -8.276   1.700  0.00  0.00    +0.020 A 
ATOM     24  C   UNL     1      -2.993  -6.898   1.677  0.00  0.00    +0.011 A 
ATOM     25 CL   UNL     1      -3.481 -10.755   0.769  0.00  0.00    -0.084 Cl
ENDBRANCH   4  19
BRANCH   6  26
ATOM     26  N   UNL     1      -6.825  -5.837   0.135  0.00  0.00    -0.342 N 
ATOM     27  H   UNL     1      -6.505  -6.497   0.769  0.00  0.00    +0.144 HD
ATOM     28  H   UNL     1      -7.463  -6.091  -0.550  0.00  0.00    +0.144 HD
ENDBRANCH   6  26
BRANCH   1  29
ATOM     29  C   UNL     1      -1.630  -0.539   1.029  0.00  0.00    +0.107 C 
BRANCH  29  31
ATOM     30  C   UNL     1      -0.199   1.506   1.146  0.00  0.00    +0.009 C 
ATOM     31  C   UNL     1      -0.213  -0.019   1.277  0.00  0.00    -0.000 C 
ATOM     32  C   UNL     1       0.237  -0.414   2.685  0.00  0.00    +0.009 C 
ENDBRANCH  29  31
ENDBRANCH   1  29
TORSDOF 5
