REMARK  Name = ZINC35990783
REMARK  8 active torsions:
REMARK  status: ('A' for Active; 'I' for Inactive)
REMARK    1  A    between atoms: C_1  and  C_2
REMARK    2  A    between atoms: C_2  and  O_3
REMARK    3  A    between atoms: O_3  and  C_4
REMARK    4  A    between atoms: C_4  and  C_6
REMARK    5  A    between atoms: C_7  and  C_22
REMARK    6  A    between atoms: N_8  and  C_21
REMARK    7  A    between atoms: C_12  and  C_14
REMARK    8  A    between atoms: C_22  and  N_23
REMARK                            x       y       z     vdW  Elec       q    Type
REMARK                         _______ _______ _______ _____ _____    ______ ____
ROOT
ATOM      1  C   UNL     1       1.204  -2.693  -2.519  0.00  0.00    +0.080 C 
ATOM      2  C   UNL     1       1.708  -3.936  -2.676  0.00  0.00    +0.041 C 
ATOM      3  N   UNL     1       2.516  -4.240  -3.734  0.00  0.00    -0.260 N 
ATOM      4  C   UNL     1       2.868  -3.358  -4.678  0.00  0.00    +0.307 C 
ATOM      5  O   UNL     1       3.592  -3.723  -5.583  0.00  0.00    -0.252 OA
ATOM      6  N   UNL     1       2.443  -2.079  -4.658  0.00  0.00    -0.288 N 
ATOM      7  C   UNL     1       1.560  -1.651  -3.560  0.00  0.00    +0.146 C 
ATOM      8  C   UNL     1       3.028  -5.609  -3.841  0.00  0.00    +0.139 C 
ATOM      9  H   UNL     1       2.710  -1.456  -5.352  0.00  0.00    +0.151 HD
ENDROOT
BRANCH   7  10
ATOM     10  C   UNL     1       0.278  -1.137  -4.162  0.00  0.00    +0.013 A 
ATOM     11  C   UNL     1      -0.227  -1.716  -5.311  0.00  0.00    +0.008 A 
ATOM     12  C   UNL     1      -1.403  -1.245  -5.864  0.00  0.00    +0.001 A 
ATOM     13  C   UNL     1      -2.076  -0.195  -5.268  0.00  0.00    +0.003 A 
ATOM     14  C   UNL     1      -1.575   0.384  -4.118  0.00  0.00    +0.039 A 
ATOM     15  C   UNL     1      -0.399  -0.090  -3.561  0.00  0.00    +0.129 A 
ATOM     16  F   UNL     1       0.090   0.473  -2.434  0.00  0.00    -0.205 F 
ENDBRANCH   7  10
BRANCH   1  17
ATOM     17  C   UNL     1       0.366  -2.376  -1.424  0.00  0.00    +0.339 C 
ATOM     18  O   UNL     1       0.820  -1.786  -0.462  0.00  0.00    -0.245 OA
BRANCH  17  19
ATOM     19  O   UNL     1      -0.937  -2.728  -1.448  0.00  0.00    -0.462 OA
BRANCH  19  21
ATOM     20  C   UNL     1      -3.163  -2.854  -0.515  0.00  0.00    +0.048 C 
ATOM     21  C   UNL     1      -1.724  -2.376  -0.308  0.00  0.00    +0.229 C 
ENDBRANCH  19  21
ENDBRANCH  17  19
ENDBRANCH   1  17
BRANCH   2  22
ATOM     22  C   UNL     1       1.374  -5.004  -1.667  0.00  0.00    +0.136 C 
BRANCH  22  23
ATOM     23  N   UNL     1       2.589  -5.380  -0.932  0.00  0.00    -0.300 NA
ATOM     24  C   UNL     1       2.996  -4.313  -0.006  0.00  0.00    +0.066 C 
ATOM     25  C   UNL     1       4.295  -4.718   0.694  0.00  0.00    -0.067 C 
ATOM     26  N   UNL     1       4.085  -5.973   1.428  0.00  0.00    +0.381 N 
ATOM     27  C   UNL     1       3.702  -7.034   0.488  0.00  0.00    -0.067 C 
ATOM     28  C   UNL     1       2.399  -6.649  -0.214  0.00  0.00    +0.066 C 
ATOM     29  H   UNL     1       4.938  -6.233   1.900  0.00  0.00    -0.086 HD
ATOM     30  H   UNL     1       3.350  -5.845   2.108  0.00  0.00    -0.086 HD
ENDBRANCH  22  23
ENDBRANCH   2  22
TORSDOF 6
