REMARK  Name = ZINC04808649
REMARK  5 active torsions:
REMARK  status: ('A' for Active; 'I' for Inactive)
REMARK    1  A    between atoms: C_1  and  C_2
REMARK    2  A    between atoms: C_9  and  N_27
REMARK    3  A    between atoms: C_10  and  C_25
REMARK    4  A    between atoms: C_11  and  C_13
REMARK    5  A    between atoms: C_16  and  C_18
REMARK                            x       y       z     vdW  Elec       q    Type
REMARK                         _______ _______ _______ _____ _____    ______ ____
ROOT
ATOM      1  C   UNL     1      -0.018   1.503   0.010  0.00  0.00    +0.065 C 
ATOM      2  C   UNL     1       0.002  -0.004   0.002  0.00  0.00    +0.041 A 
ATOM      3  C   UNL     1       0.008  -0.790  -1.085  0.00  0.00    +0.052 A 
ATOM      4  C   UNL     1       0.027  -2.135  -0.654  0.00  0.00    +0.245 A 
ATOM      5  N   UNL     1       0.034  -2.141   0.647  0.00  0.00    -0.135 NA
ATOM      6  N   UNL     1       0.024  -0.809   1.090  0.00  0.00    -0.278 N 
ATOM      7  H   UNL     1       0.029  -0.516   2.015  0.00  0.00    +0.189 HD
ATOM      8  O   UNL     1       0.034  -3.173  -1.533  0.00  0.00    -0.421 OA
ATOM      9  C   UNL     1      -0.251  -2.898  -2.821  0.00  0.00    +0.201 C 
ATOM     10  C   UNL     1      -0.287  -1.657  -3.349  0.00  0.00    +0.101 C 
ATOM     11  C   UNL     1      -0.003  -0.413  -2.545  0.00  0.00    +0.137 C 
ENDROOT
BRANCH  11  12
ATOM     12  C   UNL     1       1.340   0.149  -2.935  0.00  0.00    +0.119 A 
ATOM     13  C   UNL     1       1.563   1.386  -3.419  0.00  0.00    +0.046 A 
ATOM     14  C   UNL     1       2.949   1.496  -3.649  0.00  0.00    +0.050 A 
ATOM     15  C   UNL     1       3.501   0.306  -3.290  0.00  0.00    +0.137 A 
ATOM     16  O   UNL     1       2.513  -0.499  -2.853  0.00  0.00    -0.459 OA
BRANCH  15  17
ATOM     17  C   UNL     1       4.935  -0.041  -3.361  0.00  0.00    +0.036 A 
ATOM     18  C   UNL     1       5.656   0.191  -4.534  0.00  0.00    +0.013 A 
ATOM     19  C   UNL     1       6.995  -0.135  -4.594  0.00  0.00    +0.001 A 
ATOM     20  C   UNL     1       7.625  -0.691  -3.494  0.00  0.00    +0.001 A 
ATOM     21  C   UNL     1       6.918  -0.924  -2.329  0.00  0.00    +0.021 A 
ATOM     22  C   UNL     1       5.578  -0.597  -2.253  0.00  0.00    +0.052 A 
ATOM     23 CL   UNL     1       4.694  -0.882  -0.786  0.00  0.00    -0.083 Cl
ENDBRANCH  15  17
ENDBRANCH  11  12
BRANCH   9  24
ATOM     24  N   UNL     1      -0.523  -3.954  -3.655  0.00  0.00    -0.328 N 
ATOM     25  H   UNL     1      -0.506  -4.861  -3.310  0.00  0.00    +0.145 HD
ATOM     26  H   UNL     1      -0.732  -3.794  -4.588  0.00  0.00    +0.145 HD
ENDBRANCH   9  24
BRANCH  10  27
ATOM     27  C   UNL     1      -0.609  -1.514  -4.737  0.00  0.00    +0.101 C 
ATOM     28  N   UNL     1      -0.864  -1.400  -5.838  0.00  0.00    -0.191 NA
ENDBRANCH  10  27
TORSDOF 4
