REMARK  Name = ZINC46320075
REMARK  10 active torsions:
REMARK  status: ('A' for Active; 'I' for Inactive)
REMARK    1  A    between atoms: C_1  and  C_2
REMARK    2  A    between atoms: C_2  and  C_3
REMARK    3  A    between atoms: C_2  and  N_4
REMARK    4  A    between atoms: C_5  and  C_7
REMARK    5  A    between atoms: N_9  and  N_10
REMARK    6  A    between atoms: C_11  and  C_13
REMARK    7  A    between atoms: C_14  and  C_15
REMARK    8  A    between atoms: C_18  and  O_21
REMARK    9  A    between atoms: O_21  and  C_22
REMARK   10  A    between atoms: C_22  and  C_23
REMARK                            x       y       z     vdW  Elec       q    Type
REMARK                         _______ _______ _______ _____ _____    ______ ____
ROOT
ATOM      1  C   UNL     1      -6.273  -5.689  -1.448  0.00  0.00    +0.069 C 
ATOM      2  C   UNL     1      -6.545  -6.914  -1.947  0.00  0.00    +0.013 C 
ENDROOT
BRANCH   2   3
ATOM      3  C   UNL     1      -7.924  -7.422  -1.936  0.00  0.00    -0.025 A 
ATOM      4  C   UNL     1      -8.958  -6.636  -1.415  0.00  0.00    +0.011 A 
ATOM      5  C   UNL     1     -10.248  -7.117  -1.408  0.00  0.00    +0.046 A 
ATOM      6  C   UNL     1     -10.524  -8.382  -1.916  0.00  0.00    +0.121 A 
ATOM      7  C   UNL     1      -9.500  -9.167  -2.434  0.00  0.00    +0.046 A 
ATOM      8  C   UNL     1      -8.208  -8.692  -2.452  0.00  0.00    +0.011 A 
BRANCH   6   9
ATOM      9  O   UNL     1     -11.797  -8.852  -1.905  0.00  0.00    -0.486 OA
BRANCH   9  10
ATOM     10  C   UNL     1     -12.011 -10.159  -2.443  0.00  0.00    +0.284 C 
BRANCH  10  11
ATOM     11  C   UNL     1     -13.473 -10.509  -2.347  0.00  0.00    +0.078 A 
ATOM     12  C   UNL     1     -14.359  -9.598  -1.803  0.00  0.00    +0.027 A 
ATOM     13  C   UNL     1     -15.703  -9.930  -1.719  0.00  0.00    +0.003 A 
ATOM     14  C   UNL     1     -16.107 -11.170  -2.189  0.00  0.00    +0.020 A 
ATOM     15  C   UNL     1     -15.163 -12.029  -2.720  0.00  0.00    +0.111 A 
ATOM     16  N   UNL     1     -13.894 -11.678  -2.788  0.00  0.00    -0.256 NA
ENDBRANCH  10  11
ENDBRANCH   9  10
ENDBRANCH   6   9
ENDBRANCH   2   3
BRANCH   1  18
ATOM     17  N   UNL     1      -4.630  -3.959  -0.962  0.00  0.00    -0.230 N 
ATOM     18  C   UNL     1      -4.901  -5.183  -1.459  0.00  0.00    +0.253 C 
ATOM     19  O   UNL     1      -4.004  -5.866  -1.917  0.00  0.00    -0.269 OA
ATOM     20  H   UNL     1      -5.346  -3.415  -0.597  0.00  0.00    +0.173 HD
BRANCH  17  23
ATOM     21  C   UNL     1      -3.045  -2.252  -0.474  0.00  0.00    +0.315 C 
ATOM     22  O   UNL     1      -3.940  -1.570  -0.018  0.00  0.00    -0.264 OA
ATOM     23  N   UNL     1      -3.316  -3.474  -0.972  0.00  0.00    -0.226 N 
ATOM     24  H   UNL     1      -2.601  -4.019  -1.336  0.00  0.00    +0.173 HD
BRANCH  21  26
ATOM     25  N   UNL     1      -1.372  -0.511   0.012  0.00  0.00    -0.305 N 
ATOM     26  C   UNL     1      -1.643  -1.734  -0.485  0.00  0.00    +0.301 C 
ATOM     27  O   UNL     1      -0.749  -2.415  -0.941  0.00  0.00    -0.265 OA
ATOM     28  H   UNL     1      -2.087   0.033   0.377  0.00  0.00    +0.149 HD
BRANCH  25  30
ATOM     29  C   UNL     1      -0.019   1.526   0.010  0.00  0.00    +0.027 C 
ATOM     30  C   UNL     1       0.002  -0.004   0.002  0.00  0.00    +0.067 C 
ATOM     31  C   UNL     1       0.742  -0.511   1.242  0.00  0.00    +0.027 C 
ENDBRANCH  25  30
ENDBRANCH  21  26
ENDBRANCH  17  23
ENDBRANCH   1  18
TORSDOF 8
