REMARK  Name = ZINC06382965
REMARK  5 active torsions:
REMARK  status: ('A' for Active; 'I' for Inactive)
REMARK    1  A    between atoms: C_4  and  O_24
REMARK    2  A    between atoms: C_5  and  C_7
REMARK    3  A    between atoms: C_7  and  C_9
REMARK    4  A    between atoms: C_10  and  C_11
REMARK    5  A    between atoms: C_12  and  O_23
REMARK                            x       y       z     vdW  Elec       q    Type
REMARK                         _______ _______ _______ _____ _____    ______ ____
ROOT
ATOM      1  C   UNL     1      -1.262   3.066   0.028  0.00  0.00    +0.081 A 
ATOM      2  C   UNL     1      -0.069   3.798   0.005  0.00  0.00    +0.140 A 
ATOM      3  C   UNL     1       1.195   3.058  -0.012  0.00  0.00    +0.059 A 
ATOM      4  C   UNL     1       2.422   3.736  -0.036  0.00  0.00    +0.016 A 
ATOM      5  C   UNL     1       3.581   2.984  -0.051  0.00  0.00    +0.021 A 
ATOM      6  C   UNL     1       3.493   1.601  -0.043  0.00  0.00    +0.113 A 
ATOM      7  N   UNL     1       2.331   0.983  -0.021  0.00  0.00    -0.237 NA
ATOM      8  C   UNL     1       1.183   1.651  -0.005  0.00  0.00    +0.144 A 
ATOM      9  N   UNL     1      -0.011   0.966   0.018  0.00  0.00    -0.306 N 
ATOM     10  H   UNL     1       0.003  -0.004   0.022  0.00  0.00    +0.170 HD
ATOM     11  C   UNL     1      -1.194   1.602   0.029  0.00  0.00    +0.261 A 
ATOM     12  O   UNL     1      -2.224   0.953   0.043  0.00  0.00    -0.267 OA
ENDROOT
BRANCH   1  14
ATOM     13  C   UNL     1      -3.702   3.032  -0.050  0.00  0.00    +0.052 C 
ATOM     14  C   UNL     1      -2.553   3.749   0.046  0.00  0.00    +0.021 C 
BRANCH  13  15
ATOM     15  C   UNL     1      -4.945   3.699  -0.141  0.00  0.00    +0.190 C 
ATOM     16  O   UNL     1      -4.986   4.917  -0.134  0.00  0.00    -0.287 OA
BRANCH  15  21
ATOM     17  C   UNL     1      -7.323   0.801  -0.349  0.00  0.00    +0.001 A 
ATOM     18  C   UNL     1      -8.542   1.454  -0.438  0.00  0.00    +0.004 A 
ATOM     19  C   UNL     1      -8.598   2.833  -0.430  0.00  0.00    +0.046 A 
ATOM     20  C   UNL     1      -7.431   3.575  -0.329  0.00  0.00    +0.128 A 
ATOM     21  C   UNL     1      -6.195   2.919  -0.244  0.00  0.00    +0.063 A 
ATOM     22  C   UNL     1      -6.154   1.523  -0.253  0.00  0.00    +0.015 A 
BRANCH  20  23
ATOM     23  O   UNL     1      -7.484   4.931  -0.317  0.00  0.00    -0.506 OA
ATOM     24  H   UNL     1      -7.433   5.335  -1.194  0.00  0.00    +0.292 HD
ENDBRANCH  20  23
ENDBRANCH  15  21
ENDBRANCH  13  15
ENDBRANCH   1  14
BRANCH   2  25
ATOM     25  O   UNL     1      -0.083   5.147  -0.001  0.00  0.00    -0.505 OA
ATOM     26  H   UNL     1      -0.970   5.532   0.011  0.00  0.00    +0.292 HD
ENDBRANCH   2  25
TORSDOF 5
