REMARK  Name = ZINC67105193
REMARK  7 active torsions:
REMARK  status: ('A' for Active; 'I' for Inactive)
REMARK    1  A    between atoms: C_1  and  C_2
REMARK    2  A    between atoms: N_10  and  N_14
REMARK    3  A    between atoms: C_15  and  C_17
REMARK    4  A    between atoms: C_18  and  C_19
REMARK    5  A    between atoms: C_18  and  C_20
REMARK    6  A    between atoms: C_25  and  O_26
REMARK    7  A    between atoms: O_26  and  C_27
REMARK                            x       y       z     vdW  Elec       q    Type
REMARK                         _______ _______ _______ _____ _____    ______ ____
ROOT
ATOM      1  N   UNL     1       4.177  -5.467   0.081  0.00  0.00    -0.220 N 
ATOM      2  C   UNL     1       4.503  -6.062  -1.083  0.00  0.00    +0.254 C 
ATOM      3  O   UNL     1       4.769  -5.384  -2.059  0.00  0.00    -0.269 OA
ATOM      4  H   UNL     1       3.965  -6.007   0.859  0.00  0.00    +0.174 HD
ENDROOT
BRANCH   1  14
ATOM      5  C   UNL     1       3.434   2.416   0.574  0.00  0.00    +0.007 C 
ATOM      6  C   UNL     1       2.946   0.969   0.479  0.00  0.00    -0.014 C 
ATOM      7  C   UNL     1       3.476   0.336  -0.810  0.00  0.00    +0.006 C 
ATOM      8  C   UNL     1       2.978  -1.108  -0.910  0.00  0.00    +0.035 C 
ATOM      9  C   UNL     1       3.462  -1.899   0.301  0.00  0.00    +0.114 C 
ATOM     10  C   UNL     1       2.959  -1.267   1.594  0.00  0.00    +0.035 C 
ATOM     11  C   UNL     1       3.456   0.178   1.685  0.00  0.00    +0.006 C 
ATOM     12  C   UNL     1       3.011  -3.338   0.206  0.00  0.00    +0.263 C 
ATOM     13  O   UNL     1       1.871  -3.749   0.172  0.00  0.00    -0.271 OA
ATOM     14  N   UNL     1       4.144  -4.069   0.169  0.00  0.00    -0.137 N 
ATOM     15  C   UNL     1       5.234  -3.293   0.226  0.00  0.00    +0.326 C 
ATOM     16  O   UNL     1       6.371  -3.722   0.208  0.00  0.00    -0.251 OA
ATOM     17  N   UNL     1       4.928  -1.984   0.307  0.00  0.00    -0.284 N 
ATOM     18  H   UNL     1       5.553  -1.244   0.358  0.00  0.00    +0.151 HD
ENDBRANCH   1  14
BRANCH   2  19
ATOM     19  C   UNL     1       4.538  -7.521  -1.175  0.00  0.00    +0.072 C 
ATOM     20  C   UNL     1       4.746  -8.118  -2.368  0.00  0.00    -0.035 C 
ATOM     21  C   UNL     1       4.784  -7.291  -3.627  0.00  0.00    +0.044 C 
BRANCH  20  22
ATOM     22  C   UNL     1       4.935  -9.573  -2.438  0.00  0.00    +0.020 A 
ATOM     23  C   UNL     1       3.841 -10.433  -2.295  0.00  0.00    +0.012 A 
ATOM     24  C   UNL     1       4.026 -11.797  -2.363  0.00  0.00    +0.001 A 
ATOM     25  C   UNL     1       5.291 -12.321  -2.571  0.00  0.00    +0.004 A 
ATOM     26  C   UNL     1       6.381 -11.484  -2.713  0.00  0.00    +0.046 A 
ATOM     27  C   UNL     1       6.214 -10.110  -2.654  0.00  0.00    +0.127 A 
BRANCH  27  28
ATOM     28  O   UNL     1       7.283  -9.286  -2.799  0.00  0.00    -0.495 OA
ATOM     29  C   UNL     1       8.553  -9.904  -3.016  0.00  0.00    +0.277 C 
ENDBRANCH  27  28
ENDBRANCH  20  22
ENDBRANCH   2  19
TORSDOF 4
