REMARK  Name = ZINC16174957
REMARK  5 active torsions:
REMARK  status: ('A' for Active; 'I' for Inactive)
REMARK    1  A    between atoms: C_1  and  C_2
REMARK    2  A    between atoms: C_3  and  C_13
REMARK    3  A    between atoms: N_5  and  C_7
REMARK    4  A    between atoms: N_15  and  N_16
REMARK    5  A    between atoms: C_17  and  C_19
REMARK                            x       y       z     vdW  Elec       q    Type
REMARK                         _______ _______ _______ _____ _____    ______ ____
ROOT
ATOM      1  C   UNL     1      -7.071   1.209  -0.106  0.00  0.00    +0.282 C 
ATOM      2  O   UNL     1      -6.782   2.390  -0.075  0.00  0.00    -0.267 OA
ATOM      3  N   UNL     1      -6.097   0.277  -0.109  0.00  0.00    -0.229 N 
ATOM      4  H   UNL     1      -6.328  -0.665  -0.134  0.00  0.00    +0.173 HD
ENDROOT
BRANCH   1   7
ATOM      5  C   UNL     1      -9.575   3.163  -0.096  0.00  0.00    +0.070 C 
ATOM      6  C   UNL     1      -9.601   1.657  -0.137  0.00  0.00    +0.093 A 
ATOM      7  C   UNL     1      -8.489   0.796  -0.141  0.00  0.00    +0.172 A 
ATOM      8  N   UNL     1      -8.936  -0.446  -0.176  0.00  0.00    -0.142 NA
ATOM      9  N   UNL     1     -10.223  -0.437  -0.200  0.00  0.00    -0.149 N 
ATOM     10  N   UNL     1     -10.667   0.892  -0.179  0.00  0.00    -0.152 NA
BRANCH   9  11
ATOM     11  C   UNL     1     -11.046  -1.571  -0.240  0.00  0.00    +0.086 A 
ATOM     12  C   UNL     1     -12.427  -1.428  -0.257  0.00  0.00    +0.029 A 
ATOM     13  C   UNL     1     -13.234  -2.548  -0.302  0.00  0.00    +0.002 A 
ATOM     14  C   UNL     1     -12.669  -3.810  -0.319  0.00  0.00    +0.000 A 
ATOM     15  C   UNL     1     -11.294  -3.955  -0.296  0.00  0.00    +0.002 A 
ATOM     16  C   UNL     1     -10.481  -2.839  -0.257  0.00  0.00    +0.029 A 
ENDBRANCH   9  11
ENDBRANCH   1   7
BRANCH   3  17
ATOM     17  N   UNL     1      -4.753   0.669  -0.076  0.00  0.00    -0.230 N 
ATOM     18  C   UNL     1      -3.779  -0.263  -0.079  0.00  0.00    +0.267 C 
ATOM     19  O   UNL     1      -4.068  -1.445  -0.111  0.00  0.00    -0.268 OA
ATOM     20  H   UNL     1      -4.522   1.611  -0.051  0.00  0.00    +0.173 HD
BRANCH  18  21
ATOM     21  C   UNL     1      -2.372   0.146  -0.045  0.00  0.00    +0.076 A 
ATOM     22  C   UNL     1      -1.234  -0.640  -0.041  0.00  0.00    +0.024 A 
ATOM     23  C   UNL     1       0.002  -0.004   0.002  0.00  0.00    -0.036 A 
ATOM     24  C   UNL     1      -0.016   1.348   0.009  0.00  0.00    -0.006 A 
ATOM     25  S   UNL     1      -1.678   1.791   0.005  0.00  0.00    -0.088 S 
ATOM     26  C   UNL     1       1.189   2.263   0.003  0.00  0.00    +0.043 C 
ATOM     27  C   UNL     1       1.901   2.086   1.355  0.00  0.00    +0.005 C 
ATOM     28  C   UNL     1       2.734   0.827   1.351  0.00  0.00    +0.001 C 
ATOM     29  C   UNL     1       1.980  -0.478   1.400  0.00  0.00    +0.005 C 
ATOM     30  C   UNL     1       1.309  -0.801   0.064  0.00  0.00    +0.036 C 
ENDBRANCH  18  21
ENDBRANCH   3  17
TORSDOF 4
