REMARK  Name = ZINC01089282
REMARK  6 active torsions:
REMARK  status: ('A' for Active; 'I' for Inactive)
REMARK    1  A    between atoms: C_6  and  C_7
REMARK    2  A    between atoms: C_7  and  N_8
REMARK    3  A    between atoms: C_11  and  C_13
REMARK    4  A    between atoms: N_15  and  N_16
REMARK    5  A    between atoms: C_17  and  C_18
REMARK    6  A    between atoms: C_23  and  O_24
REMARK                            x       y       z     vdW  Elec       q    Type
REMARK                         _______ _______ _______ _____ _____    ______ ____
ROOT
ATOM      1  C   UNL     1      -2.419  -4.128   0.002  0.00  0.00    +0.283 C 
ATOM      2  O   UNL     1      -1.356  -4.719  -0.011  0.00  0.00    -0.267 OA
ATOM      3  N   UNL     1      -2.442  -2.781   0.009  0.00  0.00    -0.202 N 
ATOM      4  H   UNL     1      -3.290  -2.310   0.020  0.00  0.00    +0.178 HD
ENDROOT
BRANCH   1   8
ATOM      5  N   UNL     1      -5.773  -5.329   0.025  0.00  0.00    -0.266 N 
ATOM      6  C   UNL     1      -5.156  -6.530   0.013  0.00  0.00    +0.109 A 
ATOM      7  C   UNL     1      -3.823  -6.296  -0.003  0.00  0.00    +0.054 A 
ATOM      8  C   UNL     1      -3.686  -4.888   0.010  0.00  0.00    +0.149 A 
ATOM      9  N   UNL     1      -4.903  -4.383   0.023  0.00  0.00    -0.166 NA
BRANCH   5  10
ATOM     10  C   UNL     1      -7.224  -5.132   0.039  0.00  0.00    +0.178 C 
BRANCH  10  16
ATOM     11  C   UNL     1      -7.906  -4.841   2.430  0.00  0.00    +0.007 A 
ATOM     12  C   UNL     1      -8.248  -4.044   3.507  0.00  0.00    +0.020 A 
ATOM     13  C   UNL     1      -8.296  -2.669   3.362  0.00  0.00    +0.041 A 
ATOM     14  C   UNL     1      -7.996  -2.092   2.141  0.00  0.00    +0.020 A 
ATOM     15  C   UNL     1      -7.650  -2.889   1.066  0.00  0.00    +0.007 A 
ATOM     16  C   UNL     1      -7.602  -4.263   1.212  0.00  0.00    -0.026 A 
ATOM     17 CL   UNL     1      -8.730  -1.669   4.712  0.00  0.00    -0.084 Cl
ENDBRANCH  10  16
ENDBRANCH   5  10
ENDBRANCH   1   8
BRANCH   3  18
ATOM     18  N   UNL     1      -1.240  -2.060   0.002  0.00  0.00    -0.187 NA
ATOM     19  C   UNL     1      -1.262  -0.762   0.009  0.00  0.00    +0.142 C 
BRANCH  19  20
ATOM     20  C   UNL     1       0.002  -0.004   0.002  0.00  0.00    +0.039 A 
ATOM     21  C   UNL     1      -0.017   1.393   0.010  0.00  0.00    +0.033 A 
ATOM     22  C   UNL     1       1.170   2.097   0.002  0.00  0.00    +0.043 A 
ATOM     23  C   UNL     1       2.381   1.424  -0.013  0.00  0.00    +0.043 A 
ATOM     24  C   UNL     1       2.412   0.042  -0.021  0.00  0.00    +0.084 A 
ATOM     25  C   UNL     1       1.229  -0.680  -0.013  0.00  0.00    +0.144 A 
ATOM     26 CL   UNL     1       3.936  -0.791  -0.040  0.00  0.00    -0.080 Cl
ATOM     27 CL   UNL     1       1.145   3.833   0.012  0.00  0.00    -0.083 Cl
BRANCH  25  28
ATOM     28  O   UNL     1       1.259  -2.039  -0.021  0.00  0.00    -0.505 OA
ATOM     29  H   UNL     1       1.259  -2.427  -0.907  0.00  0.00    +0.292 HD
ENDBRANCH  25  28
ENDBRANCH  19  20
ENDBRANCH   3  18
TORSDOF 6
