REMARK  Name = ZINC67313509
REMARK  9 active torsions:
REMARK  status: ('A' for Active; 'I' for Inactive)
REMARK    1  A    between atoms: C_1  and  C_2
REMARK    2  A    between atoms: C_2  and  N_3
REMARK    3  A    between atoms: C_4  and  C_6
REMARK    4  A    between atoms: C_11  and  N_12
REMARK    5  A    between atoms: C_13  and  C_15
REMARK    6  A    between atoms: C_17  and  S_21
REMARK    7  A    between atoms: N_19  and  C_20
REMARK    8  A    between atoms: S_21  and  N_24
REMARK    9  A    between atoms: N_24  and  C_25
REMARK                            x       y       z     vdW  Elec       q    Type
REMARK                         _______ _______ _______ _____ _____    ______ ____
ROOT
ATOM      1  N   UNL     1      -2.046  -4.616   0.448  0.00  0.00    -0.280 N 
ATOM      2  C   UNL     1      -2.260  -5.914   0.155  0.00  0.00    +0.265 C 
ATOM      3  O   UNL     1      -3.395  -6.355   0.139  0.00  0.00    -0.268 OA
ATOM      4  H   UNL     1      -1.149  -4.251   0.403  0.00  0.00    +0.155 HD
ENDROOT
BRANCH   1  10
ATOM      5  C   UNL     1      -2.902  -2.710   1.673  0.00  0.00    +0.059 A 
ATOM      6  C   UNL     1      -3.979  -1.896   2.031  0.00  0.00    +0.035 A 
ATOM      7  C   UNL     1      -5.240  -2.171   1.545  0.00  0.00    +0.042 A 
ATOM      8  C   UNL     1      -5.445  -3.253   0.703  0.00  0.00    +0.022 A 
ATOM      9  C   UNL     1      -4.390  -4.066   0.342  0.00  0.00    +0.025 A 
ATOM     10  C   UNL     1      -3.112  -3.801   0.816  0.00  0.00    +0.046 A 
ATOM     11 CL   UNL     1      -6.578  -1.157   1.991  0.00  0.00    -0.084 Cl
BRANCH   5  13
ATOM     12  N   UNL     1      -1.328  -1.304   2.909  0.00  0.00    -0.312 N 
ATOM     13  C   UNL     1      -1.551  -2.422   2.189  0.00  0.00    +0.246 C 
ATOM     14  O   UNL     1      -0.637  -3.192   1.964  0.00  0.00    -0.270 OA
ATOM     15  H   UNL     1      -2.057  -0.690   3.088  0.00  0.00    +0.149 HD
BRANCH  12  17
ATOM     16  C   UNL     1      -0.007   0.300   4.198  0.00  0.00    +0.024 C 
ATOM     17  C   UNL     1       0.014  -1.018   3.421  0.00  0.00    +0.101 C 
ENDBRANCH  12  17
ENDBRANCH   5  13
ENDBRANCH   1  10
BRANCH   2  18
ATOM     18  C   UNL     1      -1.127  -6.795  -0.145  0.00  0.00    +0.106 A 
ATOM     19  C   UNL     1      -1.184  -8.159  -0.340  0.00  0.00    +0.061 A 
ATOM     20  C   UNL     1       0.120  -8.592  -0.600  0.00  0.00    +0.123 A 
ATOM     21  C   UNL     1       0.933  -7.509  -0.560  0.00  0.00    +0.114 A 
ATOM     22  N   UNL     1       0.186  -6.410  -0.290  0.00  0.00    -0.344 N 
ATOM     23  C   UNL     1       0.694  -5.041  -0.170  0.00  0.00    +0.149 C 
BRANCH  20  24
ATOM     24  S   UNL     1       0.618 -10.251  -0.921  0.00  0.00    +0.060 S 
ATOM     25  O   UNL     1       1.994 -10.336  -0.576  0.00  0.00    -0.153 OA
ATOM     26  O   UNL     1      -0.368 -11.091  -0.336  0.00  0.00    -0.153 OA
BRANCH  24  27
ATOM     27  N   UNL     1       0.524 -10.482  -2.558  0.00  0.00    -0.193 NA
ATOM     28  C   UNL     1       1.406  -9.730  -3.455  0.00  0.00    +0.127 C 
ATOM     29  H   UNL     1      -0.113 -11.115  -2.923  0.00  0.00    +0.148 HD
ENDBRANCH  24  27
ENDBRANCH  20  24
ENDBRANCH   2  18
TORSDOF 6
