REMARK  Name = ZINC20983239
REMARK  9 active torsions:
REMARK  status: ('A' for Active; 'I' for Inactive)
REMARK    1  A    between atoms: C_1  and  C_2
REMARK    2  A    between atoms: C_2  and  C_3
REMARK    3  A    between atoms: C_3  and  C_4
REMARK    4  A    between atoms: C_10  and  C_14
REMARK    5  A    between atoms: C_14  and  S_15
REMARK    6  A    between atoms: S_15  and  C_16
REMARK    7  A    between atoms: C_21  and  N_22
REMARK    8  A    between atoms: C_23  and  C_25
REMARK    9  A    between atoms: C_28  and  C_31
REMARK                            x       y       z     vdW  Elec       q    Type
REMARK                         _______ _______ _______ _____ _____    ______ ____
ROOT
ATOM      1  C   UNL     1       5.774  -4.450  -7.120  0.00  0.00    +0.029 A 
ATOM      2  C   UNL     1       5.036  -4.529  -8.293  0.00  0.00    +0.016 A 
ATOM      3  C   UNL     1       5.502  -5.284  -9.353  0.00  0.00    +0.001 A 
ATOM      4  C   UNL     1       6.702  -5.962  -9.249  0.00  0.00    +0.002 A 
ATOM      5  C   UNL     1       7.444  -5.890  -8.084  0.00  0.00    +0.024 A 
ATOM      6  C   UNL     1       6.987  -5.131  -7.017  0.00  0.00    +0.047 A 
ENDROOT
BRANCH   6   7
ATOM      7  N   UNL     1       7.740  -5.053  -5.838  0.00  0.00    -0.281 N 
ATOM      8  C   UNL     1       9.071  -5.258  -5.874  0.00  0.00    +0.248 C 
ATOM      9  O   UNL     1       9.634  -5.413  -6.940  0.00  0.00    -0.270 OA
ATOM     10  H   UNL     1       7.244  -4.823  -4.884  0.00  0.00    +0.155 HD
BRANCH   8  11
ATOM     11  C   UNL     1       9.847  -5.296  -4.616  0.00  0.00    +0.037 A 
ATOM     12  C   UNL     1       9.204  -5.114  -3.390  0.00  0.00    +0.013 A 
ATOM     13  C   UNL     1       9.933  -5.156  -2.220  0.00  0.00    +0.004 A 
ATOM     14  C   UNL     1      11.300  -5.368  -2.260  0.00  0.00    -0.050 A 
ATOM     15  C   UNL     1      11.944  -5.544  -3.472  0.00  0.00    +0.004 A 
ATOM     16  C   UNL     1      11.226  -5.509  -4.649  0.00  0.00    +0.013 A 
ATOM     17  C   UNL     1      12.091  -5.407  -0.978  0.00  0.00    +0.044 C 
ENDBRANCH   8  11
ENDBRANCH   6   7
BRANCH   1  18
ATOM     18  S   UNL     1       5.183  -3.488  -5.767  0.00  0.00    -0.117 S 
BRANCH  18  19
ATOM     19  C   UNL     1       3.613  -2.806  -6.366  0.00  0.00    +0.130 C 
BRANCH  19  26
ATOM     20  C   UNL     1       0.702  -0.475  -1.262  0.00  0.00    +0.102 A 
ATOM     21  N   UNL     1       1.233   0.212  -2.227  0.00  0.00    -0.159 NA
ATOM     22  N   UNL     1       1.853  -0.407  -3.308  0.00  0.00    -0.171 N 
ATOM     23  C   UNL     1       2.444   0.200  -4.380  0.00  0.00    +0.275 A 
ATOM     24  O   UNL     1       2.466   1.418  -4.457  0.00  0.00    -0.266 OA
ATOM     25  C   UNL     1       3.023  -0.575  -5.385  0.00  0.00    +0.096 A 
ATOM     26  C   UNL     1       2.994  -1.950  -5.291  0.00  0.00    +0.059 A 
ATOM     27  N   UNL     1       2.410  -2.509  -4.234  0.00  0.00    -0.225 NA
ATOM     28  C   UNL     1       1.869  -1.775  -3.295  0.00  0.00    +0.199 A 
ATOM     29  S   UNL     1       1.028  -2.154  -1.773  0.00  0.00    -0.033 S 
BRANCH  20  30
ATOM     30  C   UNL     1      -0.003   0.019  -0.024  0.00  0.00    +0.064 C 
BRANCH  30  32
ATOM     31  C   UNL     1      -0.743   2.050   1.229  0.00  0.00    +0.004 C 
ATOM     32  C   UNL     1      -0.028   1.549  -0.027  0.00  0.00    +0.003 C 
ENDBRANCH  30  32
ENDBRANCH  20  30
ENDBRANCH  19  26
ENDBRANCH  18  19
ENDBRANCH   1  18
TORSDOF 7
