REMARK  Name = ZINC56174085
REMARK  8 active torsions:
REMARK  status: ('A' for Active; 'I' for Inactive)
REMARK    1  A    between atoms: C_1  and  C_2
REMARK    2  A    between atoms: C_2  and  C_3
REMARK    3  A    between atoms: C_2  and  C_4
REMARK    4  A    between atoms: C_2  and  N_5
REMARK    5  A    between atoms: C_6  and  C_8
REMARK    6  A    between atoms: C_13  and  N_14
REMARK    7  A    between atoms: C_15  and  C_17
REMARK    8  A    between atoms: C_20  and  N_24
REMARK                            x       y       z     vdW  Elec       q    Type
REMARK                         _______ _______ _______ _____ _____    ______ ____
ROOT
ATOM      1  C   UNL     1       2.667  -0.614  -2.643  0.00  0.00    +0.058 A 
ATOM      2  C   UNL     1       2.032  -1.504  -3.512  0.00  0.00    +0.015 A 
ATOM      3  C   UNL     1       2.687  -1.946  -4.641  0.00  0.00    +0.001 A 
ATOM      4  C   UNL     1       3.973  -1.512  -4.920  0.00  0.00    +0.002 A 
ATOM      5  C   UNL     1       4.613  -0.633  -4.070  0.00  0.00    +0.024 A 
ATOM      6  C   UNL     1       3.967  -0.172  -2.930  0.00  0.00    +0.046 A 
ENDROOT
BRANCH   1   8
ATOM      7  N   UNL     1       0.688  -0.484  -1.211  0.00  0.00    -0.307 N 
ATOM      8  C   UNL     1       1.972  -0.137  -1.432  0.00  0.00    +0.246 C 
ATOM      9  O   UNL     1       2.557   0.570  -0.634  0.00  0.00    -0.270 OA
ATOM     10  H   UNL     1       0.222  -1.048  -1.848  0.00  0.00    +0.150 HD
BRANCH   7  12
ATOM     11  C   UNL     1      -0.027   1.520  -0.005  0.00  0.00    +0.031 C 
ATOM     12  C   UNL     1      -0.002  -0.010  -0.009  0.00  0.00    +0.026 C 
ATOM     13  C   UNL     1       0.736  -0.511   1.234  0.00  0.00    +0.031 C 
ATOM     14  C   UNL     1      -1.436  -0.543  -0.001  0.00  0.00    +0.031 C 
ENDBRANCH   7  12
ENDBRANCH   1   8
BRANCH   6  15
ATOM     15  N   UNL     1       4.608   0.720  -2.075  0.00  0.00    -0.281 N 
ATOM     16  C   UNL     1       5.440   1.654  -2.576  0.00  0.00    +0.251 C 
ATOM     17  O   UNL     1       5.557   1.781  -3.780  0.00  0.00    -0.270 OA
ATOM     18  H   UNL     1       4.455   0.668  -1.119  0.00  0.00    +0.155 HD
BRANCH  16  19
ATOM     19  C   UNL     1       6.209   2.523  -1.664  0.00  0.00    +0.072 A 
ATOM     20  C   UNL     1       6.082   2.376  -0.281  0.00  0.00    +0.018 A 
ATOM     21  C   UNL     1       6.803   3.191   0.566  0.00  0.00    +0.033 A 
ATOM     22  C   UNL     1       7.653   4.154   0.050  0.00  0.00    +0.129 A 
ATOM     23  C   UNL     1       7.786   4.308  -1.317  0.00  0.00    +0.071 A 
ATOM     24  C   UNL     1       7.074   3.494  -2.180  0.00  0.00    +0.138 A 
ATOM     25  F   UNL     1       7.208   3.640  -3.516  0.00  0.00    -0.205 F 
BRANCH  22  26
ATOM     26  N   UNL     1       8.422   5.025   0.967  0.00  0.00    +0.057 N 
ATOM     27  O   UNL     1       8.308   4.894   2.163  0.00  0.00    -0.126 OA
ATOM     28  O   UNL     1       9.165   5.867   0.519  0.00  0.00    -0.126 OA
ENDBRANCH  22  26
ENDBRANCH  16  19
ENDBRANCH   6  15
TORSDOF 5
