REMARK  Name = ZINC59498676
REMARK  3 active torsions:
REMARK  status: ('A' for Active; 'I' for Inactive)
REMARK    1  A    between atoms: C_3  and  C_9
REMARK    2  A    between atoms: C_9  and  C_10
REMARK    3  A    between atoms: C_16  and  C_18
REMARK                            x       y       z     vdW  Elec       q    Type
REMARK                         _______ _______ _______ _____ _____    ______ ____
ROOT
ATOM      1  C   UNL     1       4.243   2.224   1.371  0.00  0.00    +0.108 A 
ATOM      2  N   UNL     1       5.077   1.395   1.968  0.00  0.00    -0.144 NA
ATOM      3  N   UNL     1       5.465   1.571   3.155  0.00  0.00    -0.126 NA
ATOM      4  C   UNL     1       5.055   2.605   3.878  0.00  0.00    +0.188 A 
ATOM      5  S   UNL     1       3.990   3.412   2.686  0.00  0.00    -0.035 S 
ATOM      6  N   UNL     1       5.367   2.962   5.184  0.00  0.00    -0.258 N 
ATOM      7  C   UNL     1       6.210   2.199   5.908  0.00  0.00    +0.268 C 
ATOM      8  O   UNL     1       6.697   1.200   5.418  0.00  0.00    -0.268 OA
ATOM      9  H   UNL     1       4.978   3.760   5.575  0.00  0.00    +0.157 HD
ENDROOT
BRANCH   7  10
ATOM     10  C   UNL     1       6.544   2.581   7.304  0.00  0.00    +0.136 A 
ATOM     11  C   UNL     1       7.412   1.804   8.046  0.00  0.00    +0.103 A 
ATOM     12  C   UNL     1       7.706   2.198   9.370  0.00  0.00    +0.255 A 
ATOM     13  O   UNL     1       8.468   1.541  10.060  0.00  0.00    -0.268 OA
ATOM     14  N   UNL     1       7.128   3.316   9.858  0.00  0.00    -0.274 N 
ATOM     15  H   UNL     1       7.318   3.603  10.765  0.00  0.00    +0.173 HD
ATOM     16  C   UNL     1       6.282   4.040   9.080  0.00  0.00    +0.349 A 
ATOM     17  O   UNL     1       5.714   5.154   9.585  0.00  0.00    -0.245 OA
ATOM     18  N   UNL     1       6.008   3.683   7.846  0.00  0.00    -0.188 NA
ENDBRANCH   7  10
BRANCH   1  19
ATOM     19  C   UNL     1       3.671   2.185  -0.023  0.00  0.00    +0.101 C 
BRANCH  19  22
ATOM     20  C   UNL     1      -0.017   1.379   0.010  0.00  0.00    +0.020 A 
ATOM     21  C   UNL     1       1.171   2.087   0.002  0.00  0.00    +0.007 A 
ATOM     22  C   UNL     1       2.377   1.413  -0.013  0.00  0.00    -0.023 A 
ATOM     23  C   UNL     1       2.397   0.029  -0.021  0.00  0.00    +0.046 A 
ATOM     24  C   UNL     1       1.210  -0.679  -0.013  0.00  0.00    +0.040 A 
ATOM     25  C   UNL     1       0.002  -0.004   0.002  0.00  0.00    +0.042 A 
ATOM     26 CL   UNL     1      -1.489  -0.893   0.012  0.00  0.00    -0.083 Cl
ATOM     27 CL   UNL     1       3.913  -0.817  -0.041  0.00  0.00    -0.083 Cl
ENDBRANCH  19  22
ENDBRANCH   1  19
TORSDOF 3
