REMARK  Name = ZINC16734225
REMARK  7 active torsions:
REMARK  status: ('A' for Active; 'I' for Inactive)
REMARK    1  A    between atoms: C_3  and  C_11
REMARK    2  A    between atoms: C_5  and  C_7
REMARK    3  A    between atoms: C_14  and  C_16
REMARK    4  A    between atoms: C_18  and  C_30
REMARK    5  A    between atoms: C_20  and  C_25
REMARK    6  A    between atoms: C_20  and  O_29
REMARK    7  A    between atoms: C_30  and  C_32
REMARK                            x       y       z     vdW  Elec       q    Type
REMARK                         _______ _______ _______ _____ _____    ______ ____
ROOT
ATOM      1  C   UNL     1       0.740   4.499   0.616  0.00  0.00    +0.156 C 
ATOM      2  C   UNL     1       1.820   4.625  -0.464  0.00  0.00    +0.148 C 
ATOM      3  C   UNL     1       2.729   5.808  -0.114  0.00  0.00    +0.243 C 
ATOM      4  N   UNL     1       3.268   5.618   1.234  0.00  0.00    -0.264 N 
ATOM      5  C   UNL     1       2.587   4.937   2.167  0.00  0.00    +0.302 C 
ATOM      6  O   UNL     1       3.074   4.818   3.275  0.00  0.00    -0.253 OA
ATOM      7  N   UNL     1       1.389   4.382   1.927  0.00  0.00    -0.289 N 
ATOM      8  H   UNL     1       4.134   5.993   1.456  0.00  0.00    +0.153 HD
ATOM      9  H   UNL     1       0.942   3.893   2.636  0.00  0.00    +0.151 HD
ENDROOT
BRANCH   1  13
ATOM     10  C   UNL     1      -1.383   7.374  -0.142  0.00  0.00    +0.135 A 
ATOM     11  C   UNL     1      -1.336   7.485   1.212  0.00  0.00    +0.050 A 
ATOM     12  C   UNL     1      -0.535   6.423   1.678  0.00  0.00    +0.047 A 
ATOM     13  C   UNL     1      -0.137   5.724   0.597  0.00  0.00    +0.127 A 
ATOM     14  O   UNL     1      -0.647   6.305  -0.502  0.00  0.00    -0.458 OA
BRANCH  10  17
ATOM     15  C   UNL     1      -3.512  10.192  -1.419  0.00  0.00    +0.001 A 
ATOM     16  C   UNL     1      -2.835   9.355  -0.556  0.00  0.00    +0.011 A 
ATOM     17  C   UNL     1      -2.111   8.274  -1.061  0.00  0.00    +0.018 A 
ATOM     18  C   UNL     1      -2.072   8.051  -2.439  0.00  0.00    +0.024 A 
ATOM     19  C   UNL     1      -2.758   8.892  -3.290  0.00  0.00    +0.055 A 
ATOM     20  C   UNL     1      -3.475   9.961  -2.783  0.00  0.00    +0.012 A 
BRANCH  19  21
ATOM     21  C   UNL     1      -2.722   8.648  -4.777  0.00  0.00    +0.417 C 
ATOM     22  F   UNL     1      -3.481   9.627  -5.428  0.00  0.00    -0.166 F 
ATOM     23  F   UNL     1      -1.399   8.708  -5.228  0.00  0.00    -0.166 F 
ATOM     24  F   UNL     1      -3.253   7.384  -5.056  0.00  0.00    -0.166 F 
ENDBRANCH  19  21
ENDBRANCH  10  17
ENDBRANCH   1  13
BRANCH   3  25
ATOM     25  C   UNL     1       1.922   7.106  -0.166  0.00  0.00    +0.436 C 
ATOM     26  F   UNL     1       1.235   7.277   1.041  0.00  0.00    -0.166 F 
ATOM     27  F   UNL     1       2.788   8.187  -0.366  0.00  0.00    -0.166 F 
ATOM     28  F   UNL     1       1.004   7.043  -1.220  0.00  0.00    -0.166 F 
ENDBRANCH   3  25
BRANCH   3  29
ATOM     29  O   UNL     1       3.805   5.877  -1.053  0.00  0.00    -0.364 OA
ATOM     30  H   UNL     1       4.421   6.604  -0.891  0.00  0.00    +0.212 HD
ENDBRANCH   3  29
BRANCH   2  31
ATOM     31  C   UNL     1       2.635   3.358  -0.515  0.00  0.00    +0.180 C 
ATOM     32  O   UNL     1       3.624   3.244   0.181  0.00  0.00    -0.291 OA
BRANCH  31  33
ATOM     33  C   UNL     1       2.248   2.304  -1.371  0.00  0.00    +0.055 A 
ATOM     34  C   UNL     1       2.853   1.066  -1.567  0.00  0.00    +0.019 A 
ATOM     35  C   UNL     1       2.262   0.221  -2.469  0.00  0.00    +0.008 A 
ATOM     36  C   UNL     1       1.135   0.622  -3.118  0.00  0.00    +0.046 A 
ATOM     37  S   UNL     1       0.857   2.212  -2.485  0.00  0.00    -0.094 S 
ENDBRANCH  31  33
ENDBRANCH   2  31
TORSDOF 7
