REMARK  Name = ZINC08940131
REMARK  6 active torsions:
REMARK  status: ('A' for Active; 'I' for Inactive)
REMARK    1  A    between atoms: C_1  and  C_2
REMARK    2  A    between atoms: C_8  and  N_10
REMARK    3  A    between atoms: C_14  and  C_16
REMARK    4  A    between atoms: C_16  and  O_17
REMARK    5  A    between atoms: O_17  and  C_18
REMARK    6  A    between atoms: C_18  and  C_20
REMARK                            x       y       z     vdW  Elec       q    Type
REMARK                         _______ _______ _______ _____ _____    ______ ____
ROOT
ATOM      1  N   UNL     1      -2.142  -0.048  -1.174  0.00  0.00    -0.296 N 
ATOM      2  C   UNL     1      -3.485   0.062  -1.159  0.00  0.00    +0.306 C 
ATOM      3  O   UNL     1      -4.108  -0.241  -0.160  0.00  0.00    -0.252 OA
ATOM      4  N   UNL     1      -4.137   0.509  -2.251  0.00  0.00    -0.237 N 
ATOM      5  C   UNL     1      -5.480   0.619  -2.236  0.00  0.00    +0.258 C 
ATOM      6  O   UNL     1      -6.102   0.317  -1.240  0.00  0.00    -0.272 OA
ATOM      7  H   UNL     1      -1.644   0.194  -1.971  0.00  0.00    +0.151 HD
ATOM      8  H   UNL     1      -3.639   0.750  -3.047  0.00  0.00    +0.159 HD
ENDROOT
BRANCH   1  15
ATOM      9  C   UNL     1      -0.019   1.526   0.010  0.00  0.00    +0.009 C 
ATOM     10  C   UNL     1       0.002  -0.004   0.002  0.00  0.00    +0.006 C 
ATOM     11  C   UNL     1       0.742  -0.511   1.242  0.00  0.00    +0.005 C 
ATOM     12  C   UNL     1       0.763  -2.041   1.233  0.00  0.00    +0.000 C 
ATOM     13  C   UNL     1      -0.673  -2.570   1.244  0.00  0.00    +0.002 C 
ATOM     14  C   UNL     1      -1.413  -2.063   0.004  0.00  0.00    +0.022 C 
ATOM     15  C   UNL     1      -1.433  -0.534   0.013  0.00  0.00    +0.077 C 
ENDBRANCH   1  15
BRANCH   5  16
ATOM     16  C   UNL     1      -6.209   1.118  -3.456  0.00  0.00    +0.328 C 
BRANCH  16  17
ATOM     17  O   UNL     1      -7.636   1.146  -3.190  0.00  0.00    -0.452 OA
BRANCH  17  18
ATOM     18  C   UNL     1      -8.436   1.572  -4.188  0.00  0.00    +0.340 C 
ATOM     19  O   UNL     1      -7.954   1.910  -5.251  0.00  0.00    -0.245 OA
BRANCH  18  20
ATOM     20  C   UNL     1      -9.896   1.627  -3.989  0.00  0.00    +0.060 A 
ATOM     21  C   UNL     1     -10.463   1.233  -2.768  0.00  0.00    +0.017 A 
ATOM     22  C   UNL     1     -11.802   1.280  -2.562  0.00  0.00    +0.029 A 
ATOM     23  C   UNL     1     -12.680   1.721  -3.581  0.00  0.00    +0.078 A 
ATOM     24  C   UNL     1     -12.087   2.108  -4.807  0.00  0.00    +0.040 A 
ATOM     25  C   UNL     1     -10.735   2.067  -5.018  0.00  0.00    +0.032 A 
ATOM     26  S   UNL     1     -13.502   2.576  -5.772  0.00  0.00    -0.075 S 
ATOM     27  C   UNL     1     -14.715   2.252  -4.573  0.00  0.00    +0.157 A 
ATOM     28  N   UNL     1     -14.022   1.827  -3.552  0.00  0.00    -0.247 NA
ENDBRANCH  18  20
ENDBRANCH  17  18
ENDBRANCH  16  17
ENDBRANCH   5  16
TORSDOF 5
