REMARK  Name = ZINC14307849
REMARK  6 active torsions:
REMARK  status: ('A' for Active; 'I' for Inactive)
REMARK    1  A    between atoms: C_1  and  C_2
REMARK    2  A    between atoms: C_2  and  C_22
REMARK    3  A    between atoms: N_5  and  C_9
REMARK    4  A    between atoms: C_9  and  N_10
REMARK    5  A    between atoms: C_14  and  C_16
REMARK    6  A    between atoms: C_25  and  N_28
REMARK                            x       y       z     vdW  Elec       q    Type
REMARK                         _______ _______ _______ _____ _____    ______ ____
ROOT
ATOM      1  C   UNL     1      -1.552   1.088   1.305  0.00  0.00    +0.047 C 
ATOM      2  C   UNL     1      -0.747   1.422   0.048  0.00  0.00    +0.135 C 
ATOM      3  C   UNL     1      -0.377   2.892   0.029  0.00  0.00    +0.252 C 
ATOM      4  O   UNL     1      -1.135   3.838   0.009  0.00  0.00    -0.272 OA
ATOM      5  N   UNL     1       0.970   2.929   0.035  0.00  0.00    -0.210 N 
ATOM      6  C   UNL     1       1.498   1.700   0.059  0.00  0.00    +0.311 C 
ATOM      7  O   UNL     1       2.692   1.477   0.068  0.00  0.00    -0.252 OA
ATOM      8  N   UNL     1       0.558   0.738   0.071  0.00  0.00    -0.281 N 
ATOM      9  H   UNL     1       0.602  -0.361   0.093  0.00  0.00    +0.152 HD
ENDROOT
BRANCH   2  10
ATOM     10  C   UNL     1      -1.518   1.052  -1.193  0.00  0.00    -0.015 A 
ATOM     11  C   UNL     1      -2.387   1.962  -1.764  0.00  0.00    +0.008 A 
ATOM     12  C   UNL     1      -3.091   1.624  -2.905  0.00  0.00    +0.033 A 
ATOM     13  C   UNL     1      -2.934   0.372  -3.468  0.00  0.00    +0.126 A 
ATOM     14  C   UNL     1      -2.068  -0.541  -2.894  0.00  0.00    +0.033 A 
ATOM     15  C   UNL     1      -1.360  -0.201  -1.756  0.00  0.00    +0.008 A 
BRANCH  13  16
ATOM     16  N   UNL     1      -3.692   0.007  -4.686  0.00  0.00    +0.056 N 
ATOM     17  O   UNL     1      -3.553  -1.096  -5.183  0.00  0.00    -0.126 OA
ATOM     18  O   UNL     1      -4.454   0.811  -5.192  0.00  0.00    -0.126 OA
ENDBRANCH  13  16
ENDBRANCH   2  10
BRANCH   5  19
ATOM     19  C   UNL     1       1.760   4.163   0.016  0.00  0.00    +0.205 C 
BRANCH  19  20
ATOM     20  N   UNL     1       2.030   4.551  -1.375  0.00  0.00    -0.279 NA
ATOM     21  C   UNL     1       3.191   3.813  -1.915  0.00  0.00    +0.086 C 
ATOM     22  C   UNL     1       3.877   4.809  -2.883  0.00  0.00    +0.017 C 
ATOM     23  C   UNL     1       3.690   6.154  -2.134  0.00  0.00    +0.025 C 
ATOM     24  C   UNL     1       2.302   5.996  -1.477  0.00  0.00    +0.088 C 
BRANCH  24  25
ATOM     25  C   UNL     1       2.312   6.614  -0.103  0.00  0.00    -0.030 A 
ATOM     26  C   UNL     1       1.384   7.585   0.226  0.00  0.00    +0.005 A 
ATOM     27  C   UNL     1       1.391   8.149   1.488  0.00  0.00    +0.000 A 
ATOM     28  C   UNL     1       2.331   7.749   2.418  0.00  0.00    +0.000 A 
ATOM     29  C   UNL     1       3.263   6.782   2.089  0.00  0.00    +0.000 A 
ATOM     30  C   UNL     1       3.253   6.215   0.828  0.00  0.00    +0.005 A 
ENDBRANCH  24  25
ENDBRANCH  19  20
ENDBRANCH   5  19
TORSDOF 5
