REMARK  Name = ZINC39584408
REMARK  7 active torsions:
REMARK  status: ('A' for Active; 'I' for Inactive)
REMARK    1  A    between atoms: C_1  and  C_2
REMARK    2  A    between atoms: C_5  and  C_9
REMARK    3  A    between atoms: C_7  and  C_8
REMARK    4  A    between atoms: C_11  and  C_15
REMARK    5  A    between atoms: N_17  and  N_18
REMARK    6  A    between atoms: C_19  and  C_20
REMARK    7  A    between atoms: C_25  and  O_26
REMARK                            x       y       z     vdW  Elec       q    Type
REMARK                         _______ _______ _______ _____ _____    ______ ____
ROOT
ATOM      1  C   UNL     1      -1.138  -7.191  -1.041  0.00  0.00    +0.263 C 
ATOM      2  O   UNL     1      -2.073  -7.329  -0.281  0.00  0.00    -0.271 OA
ATOM      3  N   UNL     1      -1.197  -7.711  -2.283  0.00  0.00    -0.205 N 
ATOM      4  H   UNL     1      -0.450  -7.601  -2.892  0.00  0.00    +0.177 HD
ENDROOT
BRANCH   1   7
ATOM      5  C   UNL     1       0.061  -4.256  -0.021  0.00  0.00    +0.092 C 
ATOM      6  C   UNL     1       0.071  -5.018  -1.132  0.00  0.00    +0.041 C 
ATOM      7  C   UNL     1       0.090  -6.439  -0.597  0.00  0.00    +0.240 C 
ATOM      8  N   UNL     1       0.088  -6.249   0.863  0.00  0.00    -0.170 NA
ATOM      9  N   UNL     1       0.077  -5.037   1.090  0.00  0.00    -0.153 NA
BRANCH   5  14
ATOM     10  C   UNL     1      -0.018   1.503   0.010  0.00  0.00    +0.044 C 
ATOM     11  C   UNL     1       0.002  -0.004   0.002  0.00  0.00    -0.047 A 
ATOM     12  C   UNL     1       0.006  -0.687  -1.201  0.00  0.00    +0.004 A 
ATOM     13  C   UNL     1       0.025  -2.066  -1.215  0.00  0.00    +0.010 A 
ATOM     14  C   UNL     1       0.041  -2.772  -0.013  0.00  0.00    +0.002 A 
ATOM     15  C   UNL     1       0.037  -2.080   1.196  0.00  0.00    +0.013 A 
ATOM     16  C   UNL     1       0.023  -0.699   1.197  0.00  0.00    -0.047 A 
ATOM     17  C   UNL     1       0.025   0.051   2.504  0.00  0.00    +0.044 C 
ENDBRANCH   5  14
ENDBRANCH   1   7
BRANCH   3  18
ATOM     18  N   UNL     1      -2.339  -8.411  -2.696  0.00  0.00    -0.188 NA
ATOM     19  C   UNL     1      -2.397  -8.911  -3.892  0.00  0.00    +0.142 C 
BRANCH  19  20
ATOM     20  C   UNL     1      -3.597  -9.647  -4.327  0.00  0.00    +0.037 A 
ATOM     21  C   UNL     1      -3.661 -10.192  -5.611  0.00  0.00    +0.028 A 
ATOM     22  C   UNL     1      -4.788 -10.880  -6.011  0.00  0.00    +0.019 A 
ATOM     23  C   UNL     1      -5.857 -11.032  -5.144  0.00  0.00    +0.019 A 
ATOM     24  C   UNL     1      -5.806 -10.496  -3.871  0.00  0.00    +0.047 A 
ATOM     25  C   UNL     1      -4.680  -9.808  -3.451  0.00  0.00    +0.126 A 
ATOM     26 BR   UNL     1      -4.873 -11.618  -7.750  0.00  0.00    -0.050 Br
BRANCH  25  27
ATOM     27  O   UNL     1      -4.627  -9.287  -2.198  0.00  0.00    -0.506 OA
ATOM     28  H   UNL     1      -4.965  -8.383  -2.133  0.00  0.00    +0.292 HD
ENDBRANCH  25  27
ENDBRANCH  19  20
ENDBRANCH   3  18
TORSDOF 5
