REMARK  Name = ZINC05504479
REMARK  8 active torsions:
REMARK  status: ('A' for Active; 'I' for Inactive)
REMARK    1  A    between atoms: C_1  and  C_2
REMARK    2  A    between atoms: C_5  and  N_8
REMARK    3  A    between atoms: C_9  and  C_11
REMARK    4  A    between atoms: C_11  and  C_13
REMARK    5  A    between atoms: C_11  and  S_14
REMARK    6  A    between atoms: S_14  and  C_15
REMARK    7  A    between atoms: C_19  and  C_21
REMARK    8  A    between atoms: C_26  and  O_27
REMARK                            x       y       z     vdW  Elec       q    Type
REMARK                         _______ _______ _______ _____ _____    ______ ____
ROOT
ATOM      1  S   UNL     1       1.023  -6.910   2.692  0.00  0.00    -0.074 S 
ENDROOT
BRANCH   1   2
ATOM      2  C   UNL     1       1.250  -8.642   2.462  0.00  0.00    +0.185 A 
ATOM      3  N   UNL     1       1.756  -9.504   3.372  0.00  0.00    -0.253 N 
ATOM      4  H   UNL     1       2.061  -9.290   4.268  0.00  0.00    +0.191 HD
ATOM      5  N   UNL     1       1.755 -10.771   2.766  0.00  0.00    -0.151 NA
ATOM      6  C   UNL     1       1.263 -10.616   1.558  0.00  0.00    +0.186 A 
ATOM      7  N   UNL     1       0.952  -9.324   1.378  0.00  0.00    -0.201 NA
BRANCH   6   8
ATOM      8  C   UNL     1       1.076 -11.695   0.557  0.00  0.00    +0.062 A 
ATOM      9  C   UNL     1       0.548 -11.402  -0.698  0.00  0.00    +0.015 A 
ATOM     10  C   UNL     1       0.376 -12.410  -1.625  0.00  0.00    +0.001 A 
ATOM     11  C   UNL     1       0.727 -13.712  -1.313  0.00  0.00    +0.004 A 
ATOM     12  C   UNL     1       1.252 -14.013  -0.070  0.00  0.00    +0.046 A 
ATOM     13  C   UNL     1       1.435 -13.010   0.868  0.00  0.00    +0.128 A 
BRANCH  13  14
ATOM     14  O   UNL     1       1.955 -13.305   2.088  0.00  0.00    -0.506 OA
ATOM     15  H   UNL     1       1.292 -13.538   2.752  0.00  0.00    +0.292 HD
ENDBRANCH  13  14
ENDBRANCH   6   8
ENDBRANCH   1   2
BRANCH   1  16
ATOM     16  C   UNL     1       0.309  -6.349   1.121  0.00  0.00    +0.137 C 
ATOM     17  C   UNL     1      -1.072  -6.982   0.934  0.00  0.00    +0.029 C 
BRANCH  16  19
ATOM     18  N   UNL     1       0.059  -4.170  -0.021  0.00  0.00    -0.285 N 
ATOM     19  C   UNL     1       0.175  -4.848   1.138  0.00  0.00    +0.230 C 
ATOM     20  O   UNL     1       0.173  -4.251   2.193  0.00  0.00    -0.274 OA
ATOM     21  H   UNL     1      -0.017  -4.651  -0.860  0.00  0.00    +0.155 HD
BRANCH  18  26
ATOM     22  C   UNL     1       0.008   1.503   0.007  0.00  0.00    +0.044 C 
ATOM     23  C   UNL     1       0.022  -0.004  -0.001  0.00  0.00    -0.050 A 
ATOM     24  C   UNL     1       0.777  -0.692   0.931  0.00  0.00    +0.005 A 
ATOM     25  C   UNL     1       0.791  -2.073   0.927  0.00  0.00    +0.023 A 
ATOM     26  C   UNL     1       0.046  -2.771  -0.014  0.00  0.00    +0.033 A 
ATOM     27  C   UNL     1      -0.712  -2.077  -0.948  0.00  0.00    +0.023 A 
ATOM     28  C   UNL     1      -0.726  -0.696  -0.936  0.00  0.00    +0.005 A 
ENDBRANCH  18  26
ENDBRANCH  16  19
ENDBRANCH   1  16
TORSDOF 6
