REMARK  Name = ZINC40851168
REMARK  11 active torsions:
REMARK  status: ('A' for Active; 'I' for Inactive)
REMARK    1  A    between atoms: C_1  and  C_2
REMARK    2  A    between atoms: C_2  and  C_3
REMARK    3  A    between atoms: C_4  and  C_30
REMARK    4  A    between atoms: C_5  and  S_16
REMARK    5  A    between atoms: C_10  and  C_15
REMARK    6  A    between atoms: C_12  and  C_14
REMARK    7  A    between atoms: S_16  and  C_17
REMARK    8  A    between atoms: C_17  and  C_18
REMARK    9  A    between atoms: C_18  and  C_19
REMARK   10  A    between atoms: N_21  and  C_22
REMARK   11  A    between atoms: C_27  and  C_28
REMARK                            x       y       z     vdW  Elec       q    Type
REMARK                         _______ _______ _______ _____ _____    ______ ____
ROOT
ATOM      1  C   UNL     1      -1.425  -0.487   0.015  0.00  0.00    +0.050 A 
ATOM      2  C   UNL     1      -2.071  -0.730   1.211  0.00  0.00    +0.003 A 
ATOM      3  C   UNL     1      -3.378  -1.222   1.174  0.00  0.00    +0.105 A 
ATOM      4  N   UNL     1      -3.952  -1.439  -0.006  0.00  0.00    -0.204 NA
ATOM      5  C   UNL     1      -3.297  -1.193  -1.129  0.00  0.00    +0.253 A 
ATOM      6  N   UNL     1      -2.061  -0.722  -1.124  0.00  0.00    -0.215 NA
ATOM      7  N   UNL     1      -3.929  -1.433  -2.350  0.00  0.00    -0.202 N 
ATOM      8  C   UNL     1      -5.192  -1.903  -2.519  0.00  0.00    +0.045 A 
ATOM      9  C   UNL     1      -5.420  -1.993  -3.849  0.00  0.00    +0.048 A 
ATOM     10  C   UNL     1      -4.266  -1.565  -4.515  0.00  0.00    +0.061 A 
ATOM     11  N   UNL     1      -3.375  -1.224  -3.620  0.00  0.00    -0.169 NA
ATOM     12  C   UNL     1      -4.082  -1.502  -6.010  0.00  0.00    +0.067 C 
ATOM     13  C   UNL     1      -6.163  -2.262  -1.424  0.00  0.00    +0.066 C 
ATOM     14  C   UNL     1      -1.382  -0.470   2.526  0.00  0.00    +0.048 C 
ENDROOT
BRANCH   1  16
ATOM     15  C   UNL     1      -0.046   1.574   0.007  0.00  0.00    +0.010 C 
ATOM     16  C   UNL     1      -0.015   0.044   0.004  0.00  0.00    +0.052 C 
ENDBRANCH   1  16
BRANCH   3  17
ATOM     17  S   UNL     1      -4.253  -1.552   2.668  0.00  0.00    -0.105 S 
BRANCH  17  18
ATOM     18  C   UNL     1      -5.867  -2.160   2.106  0.00  0.00    +0.085 C 
BRANCH  18  19
ATOM     19  C   UNL     1      -6.738  -2.488   3.320  0.00  0.00    +0.107 C 
BRANCH  19  20
ATOM     20  C   UNL     1      -8.079  -2.994   2.854  0.00  0.00    +0.218 C 
ATOM     21  O   UNL     1      -8.315  -3.083   1.667  0.00  0.00    -0.275 OA
ATOM     22  N   UNL     1      -9.017  -3.347   3.755  0.00  0.00    -0.285 N 
ATOM     23  H   UNL     1      -8.803  -3.352   4.701  0.00  0.00    +0.155 HD
BRANCH  22  24
ATOM     24  C   UNL     1     -10.300  -3.706   3.326  0.00  0.00    +0.038 A 
ATOM     25  C   UNL     1     -10.785  -3.234   2.114  0.00  0.00    +0.043 A 
ATOM     26  C   UNL     1     -12.052  -3.591   1.693  0.00  0.00    +0.043 A 
ATOM     27  C   UNL     1     -12.837  -4.417   2.479  0.00  0.00    +0.020 A 
ATOM     28  C   UNL     1     -12.355  -4.887   3.686  0.00  0.00    +0.006 A 
ATOM     29  C   UNL     1     -11.087  -4.539   4.109  0.00  0.00    -0.029 A 
ATOM     30  C   UNL     1     -10.562  -5.058   5.423  0.00  0.00    +0.045 C 
ATOM     31 CL   UNL     1     -12.661  -3.002   0.177  0.00  0.00    -0.083 Cl
ENDBRANCH  22  24
ENDBRANCH  19  20
ENDBRANCH  18  19
ENDBRANCH  17  18
ENDBRANCH   3  17
TORSDOF 6
