REMARK  Name = ZINC15765324
REMARK  5 active torsions:
REMARK  status: ('A' for Active; 'I' for Inactive)
REMARK    1  A    between atoms: C_6  and  C_7
REMARK    2  A    between atoms: C_7  and  C_8
REMARK    3  A    between atoms: N_10  and  N_11
REMARK    4  A    between atoms: C_12  and  C_14
REMARK    5  A    between atoms: C_18  and  N_23
REMARK                            x       y       z     vdW  Elec       q    Type
REMARK                         _______ _______ _______ _____ _____    ______ ____
ROOT
ATOM      1  N   UNL     1      -3.293  -1.932  -2.965  0.00  0.00    -0.230 N 
ATOM      2  C   UNL     1      -4.434  -2.608  -3.204  0.00  0.00    +0.267 C 
ATOM      3  O   UNL     1      -5.105  -3.017  -2.275  0.00  0.00    -0.268 OA
ATOM      4  H   UNL     1      -2.759  -1.606  -3.706  0.00  0.00    +0.173 HD
ENDROOT
BRANCH   2   5
ATOM      5  C   UNL     1      -4.869  -2.851  -4.587  0.00  0.00    +0.076 A 
ATOM      6  C   UNL     1      -5.980  -3.501  -5.024  0.00  0.00    +0.029 A 
ATOM      7  C   UNL     1      -6.221  -3.630  -6.404  0.00  0.00    -0.008 A 
ATOM      8  C   UNL     1      -7.312  -4.266  -7.050  0.00  0.00    +0.041 A 
ATOM      9  C   UNL     1      -7.393  -4.301  -8.405  0.00  0.00    +0.127 A 
ATOM     10  C   UNL     1      -6.419  -3.721  -9.208  0.00  0.00    +0.034 A 
ATOM     11  C   UNL     1      -5.340  -3.091  -8.621  0.00  0.00    +0.018 A 
ATOM     12  C   UNL     1      -5.245  -3.047  -7.247  0.00  0.00    +0.020 A 
ATOM     13  S   UNL     1      -4.071  -2.359  -6.106  0.00  0.00    -0.084 S 
BRANCH   9  14
ATOM     14  N   UNL     1      -8.546  -4.976  -9.042  0.00  0.00    +0.056 N 
ATOM     15  O   UNL     1      -9.402  -5.486  -8.357  0.00  0.00    -0.126 OA
ATOM     16  O   UNL     1      -8.633  -5.016 -10.247  0.00  0.00    -0.126 OA
ENDBRANCH   9  14
ENDBRANCH   2   5
BRANCH   1  19
ATOM     17  C   UNL     1      -1.738  -1.024  -1.408  0.00  0.00    +0.233 C 
ATOM     18  O   UNL     1      -1.070  -0.616  -2.334  0.00  0.00    -0.274 OA
ATOM     19  N   UNL     1      -2.879  -1.700  -1.647  0.00  0.00    -0.234 N 
ATOM     20  H   UNL     1      -3.414  -2.026  -0.906  0.00  0.00    +0.173 HD
BRANCH  17  21
ATOM     21  C   UNL     1      -1.293  -0.775   0.010  0.00  0.00    +0.132 C 
BRANCH  21  27
ATOM     22  C   UNL     1      -0.017   1.378   0.010  0.00  0.00    +0.007 A 
ATOM     23  C   UNL     1       1.170   2.086   0.002  0.00  0.00    +0.038 A 
ATOM     24  C   UNL     1       2.379   1.410  -0.013  0.00  0.00    +0.123 A 
ATOM     25  C   UNL     1       2.396   0.026  -0.021  0.00  0.00    +0.038 A 
ATOM     26  C   UNL     1       1.208  -0.680  -0.013  0.00  0.00    +0.007 A 
ATOM     27  C   UNL     1       0.002  -0.004   0.002  0.00  0.00    -0.038 A 
ATOM     28  F   UNL     1       3.540   2.101  -0.021  0.00  0.00    -0.205 F 
ENDBRANCH  21  27
ENDBRANCH  17  21
ENDBRANCH   1  19
TORSDOF 5
