REMARK  Name = ZINC07552175
REMARK  10 active torsions:
REMARK  status: ('A' for Active; 'I' for Inactive)
REMARK    1  A    between atoms: C_1  and  C_2
REMARK    2  A    between atoms: C_3  and  N_9
REMARK    3  A    between atoms: C_4  and  C_8
REMARK    4  A    between atoms: N_5  and  C_7
REMARK    5  A    between atoms: C_10  and  C_12
REMARK    6  A    between atoms: C_12  and  C_14
REMARK    7  A    between atoms: C_12  and  O_15
REMARK    8  A    between atoms: O_15  and  C_16
REMARK    9  A    between atoms: C_16  and  C_18
REMARK   10  A    between atoms: C_23  and  O_24
REMARK                            x       y       z     vdW  Elec       q    Type
REMARK                         _______ _______ _______ _____ _____    ______ ____
ROOT
ATOM      1  C   UNL     1      -3.204  -1.968  -0.856  0.00  0.00    +0.259 C 
ATOM      2  C   UNL     1      -2.846  -2.912  -2.006  0.00  0.00    +0.062 C 
ENDROOT
BRANCH   1   4
ATOM      3  N   UNL     1      -0.888  -1.236  -0.388  0.00  0.00    -0.280 N 
ATOM      4  C   UNL     1      -2.147  -0.901  -0.735  0.00  0.00    +0.258 C 
ATOM      5  O   UNL     1      -2.429   0.259  -0.949  0.00  0.00    -0.271 OA
ATOM      6  H   UNL     1      -0.642  -2.170  -0.297  0.00  0.00    +0.155 HD
BRANCH   3   9
ATOM      7  C   UNL     1      -0.181   1.024  -2.412  0.00  0.00    +0.069 C 
ATOM      8  C   UNL     1       0.412   0.802  -1.044  0.00  0.00    +0.081 A 
ATOM      9  C   UNL     1       0.070  -0.230  -0.159  0.00  0.00    +0.077 A 
ATOM     10  C   UNL     1       0.827  -0.087   0.959  0.00  0.00    +0.057 A 
ATOM     11  N   UNL     1       1.619   1.001   0.781  0.00  0.00    -0.270 N 
ATOM     12  N   UNL     1       1.337   1.537  -0.482  0.00  0.00    -0.175 NA
ATOM     13  C   UNL     1       2.597   1.522   1.740  0.00  0.00    +0.172 C 
ATOM     14  C   UNL     1       0.793  -0.975   2.176  0.00  0.00    +0.067 C 
ENDBRANCH   3   9
ENDBRANCH   1   4
BRANCH   1  15
ATOM     15  O   UNL     1      -4.490  -1.348  -1.121  0.00  0.00    -0.449 OA
BRANCH  15  16
ATOM     16  C   UNL     1      -5.584  -1.989  -0.665  0.00  0.00    +0.343 C 
ATOM     17  O   UNL     1      -5.466  -3.037  -0.061  0.00  0.00    -0.245 OA
BRANCH  16  18
ATOM     18  C   UNL     1      -6.923  -1.418  -0.897  0.00  0.00    +0.101 A 
ATOM     19  C   UNL     1      -7.062  -0.212  -1.591  0.00  0.00    +0.034 A 
ATOM     20  C   UNL     1      -8.317   0.316  -1.805  0.00  0.00    +0.019 A 
ATOM     21  C   UNL     1      -9.443  -0.344  -1.335  0.00  0.00    +0.019 A 
ATOM     22  C   UNL     1      -9.319  -1.535  -0.649  0.00  0.00    +0.047 A 
ATOM     23  C   UNL     1      -8.064  -2.084  -0.429  0.00  0.00    +0.131 A 
ATOM     24 BR   UNL     1      -8.505   1.946  -2.744  0.00  0.00    -0.050 Br
BRANCH  23  25
ATOM     25  O   UNL     1      -7.941  -3.257   0.241  0.00  0.00    -0.506 OA
ATOM     26  H   UNL     1      -7.850  -3.155   1.199  0.00  0.00    +0.292 HD
ENDBRANCH  23  25
ENDBRANCH  16  18
ENDBRANCH  15  16
ENDBRANCH   1  15
TORSDOF 6
