REMARK  Name = ZINC04223372
REMARK  11 active torsions:
REMARK  status: ('A' for Active; 'I' for Inactive)
REMARK    1  A    between atoms: C_1  and  C_2
REMARK    2  A    between atoms: C_2  and  O_3
REMARK    3  A    between atoms: O_3  and  C_4
REMARK    4  A    between atoms: C_4  and  C_6
REMARK    5  A    between atoms: C_10  and  N_11
REMARK    6  A    between atoms: C_12  and  C_14
REMARK    7  A    between atoms: C_17  and  C_20
REMARK    8  A    between atoms: C_20  and  C_21
REMARK    9  A    between atoms: C_20  and  C_22
REMARK   10  A    between atoms: C_20  and  C_23
REMARK   11  A    between atoms: C_27  and  N_56
REMARK                            x       y       z     vdW  Elec       q    Type
REMARK                         _______ _______ _______ _____ _____    ______ ____
ROOT
ATOM      1  C   UNL     1       1.244   1.962   0.001  0.00  0.00    +0.091 A 
ATOM      2  C   UNL     1       1.879   2.354  -1.243  0.00  0.00    -0.025 A 
ATOM      3  C   UNL     1       3.036   3.041  -1.109  0.00  0.00    -0.021 A 
ATOM      4  S   UNL     1       3.285   3.171   0.637  0.00  0.00    -0.079 S 
ATOM      5  C   UNL     1       1.872   2.330   1.185  0.00  0.00    +0.086 A 
ATOM      6  C   UNL     1       3.894   3.562  -2.220  0.00  0.00    -0.036 C 
ATOM      7  C   UNL     1       2.016   2.977  -3.634  0.00  0.00    -0.074 C 
ATOM      8  C   UNL     1       1.329   2.045  -2.631  0.00  0.00    +0.018 C 
ATOM      9  C   UNL     1       4.162   3.494  -4.630  0.00  0.00    -0.096 C 
ATOM     10  N   UNL     1       3.481   2.879  -3.470  0.00  0.00    +0.381 N 
ATOM     11  H   UNL     1       3.746   1.889  -3.414  0.00  0.00    -0.082 HD
ENDROOT
BRANCH   5  12
ATOM     12  N   UNL     1       1.468   2.083   2.486  0.00  0.00    -0.275 N 
ATOM     13  C   UNL     1       2.215   2.522   3.518  0.00  0.00    +0.249 C 
ATOM     14  O   UNL     1       3.244   3.135   3.307  0.00  0.00    -0.270 OA
ATOM     15  H   UNL     1       0.648   1.594   2.655  0.00  0.00    +0.156 HD
BRANCH  13  16
ATOM     16  C   UNL     1       1.784   2.259   4.907  0.00  0.00    +0.037 A 
ATOM     17  C   UNL     1       0.601   1.560   5.154  0.00  0.00    +0.013 A 
ATOM     18  C   UNL     1       0.207   1.314   6.452  0.00  0.00    +0.005 A 
ATOM     19  C   UNL     1       0.976   1.766   7.510  0.00  0.00    -0.042 A 
ATOM     20  C   UNL     1       2.148   2.463   7.273  0.00  0.00    +0.005 A 
ATOM     21  C   UNL     1       2.556   2.712   5.979  0.00  0.00    +0.013 A 
BRANCH  19  22
ATOM     22  C   UNL     1       0.537   1.498   8.926  0.00  0.00    -0.013 C 
ATOM     23  C   UNL     1       0.333   2.826   9.657  0.00  0.00    +0.015 C 
ATOM     24  C   UNL     1      -0.779   0.716   8.912  0.00  0.00    +0.015 C 
ATOM     25  C   UNL     1       1.609   0.678   9.646  0.00  0.00    +0.015 C 
ENDBRANCH  19  22
ENDBRANCH  13  16
ENDBRANCH   5  12
BRANCH   1  26
ATOM     26  C   UNL     1      -0.014   1.212   0.009  0.00  0.00    +0.342 C 
ATOM     27  O   UNL     1       0.002  -0.004   0.002  0.00  0.00    -0.245 OA
BRANCH  26  28
ATOM     28  O   UNL     1      -1.192   1.871   0.018  0.00  0.00    -0.461 OA
BRANCH  28  30
ATOM     29  C   UNL     1      -3.624   1.979   0.030  0.00  0.00    +0.048 C 
ATOM     30  C   UNL     1      -2.398   1.063   0.019  0.00  0.00    +0.229 C 
ENDBRANCH  28  30
ENDBRANCH  26  28
ENDBRANCH   1  26
TORSDOF 6
