REMARK  Name = ZINC20208003
REMARK  9 active torsions:
REMARK  status: ('A' for Active; 'I' for Inactive)
REMARK    1  A    between atoms: C_1  and  C_2
REMARK    2  A    between atoms: C_6  and  O_8
REMARK    3  A    between atoms: O_8  and  C_9
REMARK    4  A    between atoms: C_9  and  C_10
REMARK    5  A    between atoms: C_10  and  O_11
REMARK    6  A    between atoms: O_11  and  C_12
REMARK    7  A    between atoms: C_15  and  C_19
REMARK    8  A    between atoms: C_29  and  S_31
REMARK    9  A    between atoms: S_31  and  C_34
REMARK                            x       y       z     vdW  Elec       q    Type
REMARK                         _______ _______ _______ _____ _____    ______ ____
ROOT
ATOM      1  C   UNL     1      -1.514  -4.925   5.728  0.00  0.00    +0.139 A 
ATOM      2  C   UNL     1      -0.608  -5.862   6.213  0.00  0.00    +0.048 A 
ATOM      3  C   UNL     1      -0.681  -6.283   7.510  0.00  0.00    +0.011 A 
ATOM      4  C   UNL     1      -1.674  -5.772   8.358  0.00  0.00    -0.023 A 
ATOM      5  C   UNL     1      -2.588  -4.827   7.870  0.00  0.00    +0.031 A 
ATOM      6  C   UNL     1      -2.500  -4.405   6.562  0.00  0.00    +0.083 A 
ATOM      7 CL   UNL     1      -3.624  -3.232   5.951  0.00  0.00    -0.080 Cl
ENDROOT
BRANCH   4   8
ATOM      8  C   UNL     1      -1.756  -6.223   9.749  0.00  0.00    +0.024 C 
ATOM      9  C   UNL     1      -0.609  -6.557  10.434  0.00  0.00    +0.081 C 
ATOM     10  C   UNL     1       0.746  -6.304   9.866  0.00  0.00    +0.153 C 
ATOM     11  N   UNL     1       1.022  -5.286   9.094  0.00  0.00    -0.283 NA
ATOM     12  N   UNL     1       1.702  -7.271  10.245  0.00  0.00    -0.150 N 
ATOM     13  C   UNL     1       1.463  -7.983  11.400  0.00  0.00    +0.182 C 
ATOM     14  N   UNL     1       0.396  -7.941  12.158  0.00  0.00    -0.152 NA
ATOM     15  C   UNL     1      -0.655  -7.184  11.778  0.00  0.00    +0.273 C 
ATOM     16  O   UNL     1      -1.614  -7.020  12.515  0.00  0.00    -0.268 OA
ATOM     17  S   UNL     1       2.941  -8.950  11.553  0.00  0.00    -0.015 S 
ATOM     18  C   UNL     1       3.723  -8.425  10.033  0.00  0.00    +0.235 C 
ATOM     19  N   UNL     1       2.865  -7.563   9.566  0.00  0.00    -0.145 NA
ATOM     20  H   UNL     1       1.922  -5.167   8.752  0.00  0.00    +0.188 HD
BRANCH  18  21
ATOM     21  S   UNL     1       5.261  -8.940   9.345  0.00  0.00    +0.019 S 
ATOM     22  O   UNL     1       5.414 -10.288   9.767  0.00  0.00    -0.168 OA
ATOM     23  O   UNL     1       5.165  -8.620   7.963  0.00  0.00    -0.168 OA
ATOM     24  C   UNL     1       6.505  -7.889  10.145  0.00  0.00    +0.202 C 
ENDBRANCH  18  21
ENDBRANCH   4   8
BRANCH   1  25
ATOM     25  O   UNL     1      -1.433  -4.512   4.438  0.00  0.00    -0.487 OA
BRANCH  25  26
ATOM     26  C   UNL     1      -0.398  -5.085   3.636  0.00  0.00    +0.270 C 
BRANCH  26  27
ATOM     27  C   UNL     1      -0.465  -4.502   2.223  0.00  0.00    +0.270 C 
BRANCH  27  28
ATOM     28  O   UNL     1      -0.175  -3.104   2.271  0.00  0.00    -0.489 OA
BRANCH  28  34
ATOM     29  C   UNL     1       0.356   1.091  -0.166  0.00  0.00    +0.044 C 
ATOM     30  C   UNL     1       0.061  -0.386  -0.136  0.00  0.00    -0.047 A 
ATOM     31  C   UNL     1      -0.229  -1.057  -1.310  0.00  0.00    +0.003 A 
ATOM     32  C   UNL     1      -0.500  -2.412  -1.286  0.00  0.00    +0.004 A 
ATOM     33  C   UNL     1      -0.483  -3.100  -0.088  0.00  0.00    +0.045 A 
ATOM     34  C   UNL     1      -0.193  -2.430   1.091  0.00  0.00    +0.121 A 
ATOM     35  C   UNL     1       0.085  -1.070   1.063  0.00  0.00    +0.049 A 
ENDBRANCH  28  34
ENDBRANCH  27  28
ENDBRANCH  26  27
ENDBRANCH  25  26
ENDBRANCH   1  25
TORSDOF 7
