REMARK  Name = ZINC19293018
REMARK  4 active torsions:
REMARK  status: ('A' for Active; 'I' for Inactive)
REMARK    1  A    between atoms: C_3  and  C_9
REMARK    2  A    between atoms: C_9  and  C_11
REMARK    3  A    between atoms: C_9  and  O_23
REMARK    4  A    between atoms: C_11  and  N_12
REMARK                            x       y       z     vdW  Elec       q    Type
REMARK                         _______ _______ _______ _____ _____    ______ ____
ROOT
ATOM      1  C   UNL     1       0.484   5.445  -1.033  0.00  0.00    +0.120 C 
ENDROOT
BRANCH   1   2
ATOM      2  N   UNL     1       0.577   3.980  -0.980  0.00  0.00    -0.297 NA
ATOM      3  C   UNL     1       1.426   3.546   0.138  0.00  0.00    +0.103 C 
ATOM      4  C   UNL     1       1.561   2.022   0.111  0.00  0.00    +0.122 C 
ATOM      5  N   UNL     1       0.227   1.413   0.200  0.00  0.00    -0.307 N 
ATOM      6  C   UNL     1      -0.622   1.846  -0.919  0.00  0.00    +0.122 C 
ATOM      7  C   UNL     1      -0.758   3.370  -0.891  0.00  0.00    +0.103 C 
ATOM      8  C   UNL     1       0.315   0.030   0.250  0.00  0.00    +0.161 A 
ATOM      9  N   UNL     1       1.390  -0.734   0.222  0.00  0.00    -0.233 NA
ATOM     10  C   UNL     1       1.294  -2.049   0.283  0.00  0.00    +0.120 A 
ATOM     11  C   UNL     1       0.062  -2.604   0.365  0.00  0.00    +0.068 A 
ATOM     12  S   UNL     1      -0.963  -1.141   0.358  0.00  0.00    -0.061 S 
ENDBRANCH   1   2
BRANCH   1  13
ATOM     13  C   UNL     1      -0.463   5.936   0.064  0.00  0.00    +0.160 C 
BRANCH  13  16
ATOM     14  C   UNL     1      -0.096   9.667   0.511  0.00  0.00    +0.020 A 
ATOM     15  C   UNL     1       0.098   8.305   0.646  0.00  0.00    +0.009 A 
ATOM     16  C   UNL     1      -0.675   7.421  -0.083  0.00  0.00    +0.000 A 
ATOM     17  C   UNL     1      -1.639   7.899  -0.953  0.00  0.00    +0.048 A 
ATOM     18  C   UNL     1      -1.837   9.262  -1.084  0.00  0.00    +0.040 A 
ATOM     19  C   UNL     1      -1.063  10.146  -0.353  0.00  0.00    +0.042 A 
ATOM     20 CL   UNL     1      -1.306  11.857  -0.522  0.00  0.00    -0.083 Cl
ATOM     21 CL   UNL     1      -2.604   6.789  -1.874  0.00  0.00    -0.083 Cl
ENDBRANCH  13  16
BRANCH  13  22
ATOM     22  O   UNL     1       0.109   5.661   1.345  0.00  0.00    -0.386 OA
ATOM     23  H   UNL     1       0.336   4.625   1.634  0.00  0.00    +0.210 HD
ENDBRANCH  13  22
ENDBRANCH   1  13
TORSDOF 4
