REMARK  Name = ZINC04014271
REMARK  5 active torsions:
REMARK  status: ('A' for Active; 'I' for Inactive)
REMARK    1  A    between atoms: C_1  and  N_2
REMARK    2  A    between atoms: N_2  and  C_3
REMARK    3  A    between atoms: C_6  and  N_20
REMARK    4  A    between atoms: C_8  and  C_9
REMARK    5  A    between atoms: N_11  and  C_12
REMARK                            x       y       z     vdW  Elec       q    Type
REMARK                         _______ _______ _______ _____ _____    ______ ____
ROOT
ATOM      1  C   UNL     1       3.594   7.387  -0.211  0.00  0.00    +0.039 A 
ATOM      2  C   UNL     1       4.792   8.081  -0.321  0.00  0.00    +0.026 A 
ATOM      3  C   UNL     1       5.982   7.392  -0.439  0.00  0.00    +0.034 A 
ATOM      4  C   UNL     1       5.992   6.006  -0.443  0.00  0.00    +0.127 A 
ATOM      5  C   UNL     1       4.815   5.300  -0.329  0.00  0.00    +0.047 A 
ATOM      6  C   UNL     1       3.602   5.983  -0.209  0.00  0.00    +0.060 A 
ENDROOT
BRANCH   6   7
ATOM      7  C   UNL     1       2.338   5.234  -0.087  0.00  0.00    +0.250 C 
ATOM      8  O   UNL     1       1.277   5.829  -0.078  0.00  0.00    -0.270 OA
ATOM      9  N   UNL     1       2.358   3.891   0.014  0.00  0.00    -0.280 N 
ATOM     10  H   UNL     1       3.204   3.422   0.088  0.00  0.00    +0.155 HD
BRANCH   9  11
ATOM     11  C   UNL     1       1.158   3.171   0.011  0.00  0.00    +0.054 A 
ATOM     12  C   UNL     1       0.026   3.708  -0.588  0.00  0.00    +0.044 A 
ATOM     13  C   UNL     1      -1.158   2.994  -0.588  0.00  0.00    +0.043 A 
ATOM     14  C   UNL     1      -1.215   1.744   0.003  0.00  0.00    +0.021 A 
ATOM     15  C   UNL     1      -0.091   1.210   0.606  0.00  0.00    +0.023 A 
ATOM     16  C   UNL     1       1.096   1.918   0.609  0.00  0.00    +0.062 A 
ATOM     17 CL   UNL     1       2.508   1.243   1.360  0.00  0.00    -0.082 Cl
ATOM     18 CL   UNL     1      -2.574   3.664  -1.337  0.00  0.00    -0.083 Cl
ENDBRANCH   9  11
ENDBRANCH   6   7
BRANCH   1  20
ATOM     19  C   UNL     1       2.399   9.538   0.019  0.00  0.00    +0.125 C 
ATOM     20  N   UNL     1       2.394   8.078  -0.098  0.00  0.00    -0.346 N 
ATOM     21  H   UNL     1       1.554   7.594  -0.096  0.00  0.00    +0.146 HD
ENDBRANCH   1  20
BRANCH   4  22
ATOM     22  N   UNL     1       7.276   5.280  -0.571  0.00  0.00    +0.056 N 
ATOM     23  O   UNL     1       7.289   4.062  -0.575  0.00  0.00    -0.126 OA
ATOM     24  O   UNL     1       8.319   5.900  -0.672  0.00  0.00    -0.126 OA
ENDBRANCH   4  22
TORSDOF 4
