REMARK  Name = ZINC20157901
REMARK  11 active torsions:
REMARK  status: ('A' for Active; 'I' for Inactive)
REMARK    1  A    between atoms: C_1  and  C_2
REMARK    2  A    between atoms: C_2  and  C_22
REMARK    3  A    between atoms: N_3  and  N_4
REMARK    4  A    between atoms: C_5  and  C_7
REMARK    5  A    between atoms: C_10  and  C_12
REMARK    6  A    between atoms: C_15  and  C_18
REMARK    7  A    between atoms: C_18  and  C_19
REMARK    8  A    between atoms: C_18  and  C_20
REMARK    9  A    between atoms: C_18  and  C_21
REMARK   10  A    between atoms: C_25  and  N_28
REMARK   11  A    between atoms: C_29  and  C_31
REMARK                            x       y       z     vdW  Elec       q    Type
REMARK                         _______ _______ _______ _____ _____    ______ ____
ROOT
ATOM      1  C   UNL     1      -9.057  -1.113  -0.335  0.00  0.00    +0.068 C 
ATOM      2  C   UNL     1      -8.799   0.372  -0.336  0.00  0.00    +0.063 C 
ATOM      3  N   UNL     1      -9.793   1.203  -0.421  0.00  0.00    -0.185 NA
ENDROOT
BRANCH   2   4
ATOM      4  C   UNL     1      -7.419   0.881  -0.240  0.00  0.00    -0.002 A 
ATOM      5  C   UNL     1      -7.178   2.257  -0.241  0.00  0.00    +0.011 A 
ATOM      6  C   UNL     1      -5.887   2.729  -0.151  0.00  0.00    +0.024 A 
ATOM      7  C   UNL     1      -4.824   1.837  -0.061  0.00  0.00    +0.034 A 
ATOM      8  C   UNL     1      -5.059   0.466  -0.065  0.00  0.00    +0.024 A 
ATOM      9  C   UNL     1      -6.348  -0.013  -0.149  0.00  0.00    +0.011 A 
BRANCH   7  10
ATOM     10  N   UNL     1      -3.516   2.318   0.029  0.00  0.00    -0.279 N 
ATOM     11  C   UNL     1      -2.598   1.645   0.750  0.00  0.00    +0.284 C 
ATOM     12  O   UNL     1      -2.930   0.672   1.401  0.00  0.00    -0.266 OA
ATOM     13  H   UNL     1      -3.235   3.247  -0.489  0.00  0.00    +0.155 HD
BRANCH  11  14
ATOM     14  C   UNL     1      -1.201   2.085   0.751  0.00  0.00    +0.191 A 
ATOM     15  C   UNL     1      -0.174   1.497   1.435  0.00  0.00    +0.056 A 
ATOM     16  C   UNL     1       0.981   2.238   1.145  0.00  0.00    +0.058 A 
ATOM     17  C   UNL     1       0.614   3.238   0.311  0.00  0.00    +0.171 A 
ATOM     18  O   UNL     1      -0.702   3.144   0.079  0.00  0.00    -0.444 OA
ATOM     19 BR   UNL     1       1.768   4.553  -0.408  0.00  0.00    -0.008 Br
ENDBRANCH  11  14
ENDBRANCH   7  10
ENDBRANCH   2   4
BRANCH   3  20
ATOM     20  N   UNL     1     -11.104   0.720  -0.512  0.00  0.00    -0.206 N 
ATOM     21  C   UNL     1     -12.136   1.583  -0.600  0.00  0.00    +0.236 C 
ATOM     22  O   UNL     1     -11.928   2.778  -0.601  0.00  0.00    -0.274 OA
ATOM     23  H   UNL     1     -11.293  -0.364  -0.511  0.00  0.00    +0.177 HD
BRANCH  21  24
ATOM     24  C   UNL     1     -13.547   1.063  -0.698  0.00  0.00    +0.085 C 
ATOM     25  C   UNL     1     -14.285   1.267  -2.023  0.00  0.00    +0.022 C 
ATOM     26  C   UNL     1     -14.674   2.093  -0.796  0.00  0.00    +0.032 C 
BRANCH  26  27
ATOM     27  C   UNL     1     -15.980   1.762  -0.119  0.00  0.00    -0.044 A 
ATOM     28  C   UNL     1     -16.691   0.640  -0.501  0.00  0.00    +0.004 A 
ATOM     29  C   UNL     1     -17.886   0.334   0.123  0.00  0.00    +0.004 A 
ATOM     30  C   UNL     1     -18.375   1.156   1.121  0.00  0.00    -0.042 A 
ATOM     31  C   UNL     1     -17.666   2.281   1.499  0.00  0.00    +0.004 A 
ATOM     32  C   UNL     1     -16.469   2.584   0.879  0.00  0.00    +0.004 A 
BRANCH  30  33
ATOM     33  C   UNL     1     -19.680   0.824   1.798  0.00  0.00    -0.013 C 
ATOM     34  C   UNL     1     -20.669   1.972   1.588  0.00  0.00    +0.015 C 
ATOM     35  C   UNL     1     -20.254  -0.461   1.198  0.00  0.00    +0.015 C 
ATOM     36  C   UNL     1     -19.441   0.625   3.296  0.00  0.00    +0.015 C 
ENDBRANCH  30  33
ENDBRANCH  26  27
ENDBRANCH  21  24
ENDBRANCH   3  20
TORSDOF 7
