REMARK  Name = ZINC65547994
REMARK  7 active torsions:
REMARK  status: ('A' for Active; 'I' for Inactive)
REMARK    1  A    between atoms: C_1  and  C_2
REMARK    2  A    between atoms: C_5  and  C_23
REMARK    3  A    between atoms: C_7  and  N_8
REMARK    4  A    between atoms: C_9  and  C_11
REMARK    5  A    between atoms: C_11  and  C_13
REMARK    6  A    between atoms: C_11  and  O_14
REMARK    7  A    between atoms: O_14  and  C_15
REMARK                            x       y       z     vdW  Elec       q    Type
REMARK                         _______ _______ _______ _____ _____    ______ ____
ROOT
ATOM      1  C   UNL     1      -0.060   1.393  -0.045  0.00  0.00    +0.045 C 
ATOM      2  C   UNL     1       0.005  -0.113  -0.008  0.00  0.00    -0.029 A 
ATOM      3  C   UNL     1       0.038  -0.832  -1.187  0.00  0.00    +0.005 A 
ATOM      4  C   UNL     1       0.097  -2.213  -1.155  0.00  0.00    +0.008 A 
ATOM      5  C   UNL     1       0.125  -2.878   0.058  0.00  0.00    -0.004 A 
ATOM      6  C   UNL     1       0.093  -2.165   1.240  0.00  0.00    +0.031 A 
ATOM      7  C   UNL     1       0.038  -0.777   1.210  0.00  0.00    +0.037 A 
ENDROOT
BRANCH   5   8
ATOM      8  C   UNL     1       0.190  -4.384   0.088  0.00  0.00    +0.206 C 
ATOM      9  N   UNL     1       0.961  -4.831   1.255  0.00  0.00    -0.360 N 
ATOM     10  C   UNL     1       1.986  -5.501   0.812  0.00  0.00    +0.060 A 
ATOM     11  C   UNL     1       3.099  -6.184   1.485  0.00  0.00    +0.027 A 
ATOM     12  C   UNL     1       4.038  -6.810   0.748  0.00  0.00    +0.002 A 
ATOM     13  C   UNL     1       4.003  -6.840  -0.658  0.00  0.00    +0.002 A 
ATOM     14  C   UNL     1       3.028  -6.245  -1.373  0.00  0.00    +0.027 A 
ATOM     15  C   UNL     1       1.949  -5.533  -0.676  0.00  0.00    +0.060 A 
ATOM     16  N   UNL     1       0.902  -4.882  -1.095  0.00  0.00    -0.360 N 
ATOM     17  H   UNL     1       0.747  -4.659   2.185  0.00  0.00    +0.162 HD
ATOM     18  H   UNL     1       0.641  -4.750  -2.020  0.00  0.00    +0.162 HD
ENDBRANCH   5   8
BRANCH   7  19
ATOM     19  N   UNL     1       0.011  -0.051   2.406  0.00  0.00    -0.282 N 
ATOM     20  C   UNL     1      -0.631  -0.548   3.482  0.00  0.00    +0.258 C 
ATOM     21  O   UNL     1      -1.118  -1.658   3.438  0.00  0.00    -0.271 OA
ATOM     22  H   UNL     1       0.455   0.809   2.461  0.00  0.00    +0.155 HD
BRANCH  20  23
ATOM     23  C   UNL     1      -0.744   0.275   4.739  0.00  0.00    +0.256 C 
ATOM     24  C   UNL     1       0.650   0.495   5.331  0.00  0.00    +0.062 C 
BRANCH  23  25
ATOM     25  O   UNL     1      -1.560  -0.414   5.688  0.00  0.00    -0.478 OA
BRANCH  25  26
ATOM     26  C   UNL     1      -2.336   0.349   6.503  0.00  0.00    +0.140 A 
ATOM     27  C   UNL     1      -2.218   1.730   6.481  0.00  0.00    +0.048 A 
ATOM     28  C   UNL     1      -3.007   2.504   7.310  0.00  0.00    +0.023 A 
ATOM     29  C   UNL     1      -3.915   1.902   8.163  0.00  0.00    +0.043 A 
ATOM     30  C   UNL     1      -4.035   0.524   8.187  0.00  0.00    +0.043 A 
ATOM     31  C   UNL     1      -3.252  -0.254   7.355  0.00  0.00    +0.084 A 
ATOM     32 CL   UNL     1      -3.407  -1.983   7.380  0.00  0.00    -0.080 Cl
ATOM     33 CL   UNL     1      -4.905   2.876   9.204  0.00  0.00    -0.083 Cl
ENDBRANCH  25  26
ENDBRANCH  23  25
ENDBRANCH  20  23
ENDBRANCH   7  19
TORSDOF 5
