REMARK  Name = ZINC19880971
REMARK  13 active torsions:
REMARK  status: ('A' for Active; 'I' for Inactive)
REMARK    1  A    between atoms: C_1  and  C_2
REMARK    2  A    between atoms: C_3  and  C_33
REMARK    3  A    between atoms: C_4  and  C_23
REMARK    4  A    between atoms: C_10  and  C_15
REMARK    5  A    between atoms: C_18  and  O_21
REMARK    6  A    between atoms: O_21  and  C_22
REMARK    7  A    between atoms: C_25  and  O_31
REMARK    8  A    between atoms: C_26  and  O_30
REMARK    9  A    between atoms: O_31  and  C_32
REMARK   10  A    between atoms: C_33  and  O_35
REMARK   11  A    between atoms: O_35  and  C_36
REMARK   12  A    between atoms: C_36  and  C_37
REMARK   13  A    between atoms: C_36  and  C_38
REMARK                            x       y       z     vdW  Elec       q    Type
REMARK                         _______ _______ _______ _____ _____    ______ ____
ROOT
ATOM      1  C   UNL     1       1.570  -3.215  10.255  0.00  0.00    +0.061 C 
ATOM      2  C   UNL     1       2.454  -3.312   9.038  0.00  0.00    +0.016 C 
ATOM      3  C   UNL     1       3.767  -3.562   9.184  0.00  0.00    +0.065 C 
ATOM      4  C   UNL     1       4.675  -3.672   7.995  0.00  0.00    +0.092 C 
ATOM      5  C   UNL     1       4.041  -3.062   6.770  0.00  0.00    +0.024 C 
ATOM      6  C   UNL     1       2.712  -2.833   6.724  0.00  0.00    +0.016 C 
ATOM      7  N   UNL     1       1.915  -3.145   7.793  0.00  0.00    -0.321 N 
ATOM      8  C   UNL     1       2.070  -2.226   5.501  0.00  0.00    +0.059 C 
ATOM      9  C   UNL     1       2.857  -2.633   4.253  0.00  0.00    +0.032 C 
ATOM     10  C   UNL     1       4.305  -2.160   4.415  0.00  0.00    +0.088 C 
ATOM     11  C   UNL     1       4.871  -2.744   5.681  0.00  0.00    +0.162 C 
ATOM     12  O   UNL     1       6.067  -2.945   5.763  0.00  0.00    -0.292 OA
ATOM     13  H   UNL     1       0.832  -3.261   7.642  0.00  0.00    +0.152 HD
ENDROOT
BRANCH   4  14
ATOM     14  C   UNL     1       4.967  -5.127   7.729  0.00  0.00    -0.030 A 
ATOM     15  C   UNL     1       6.267  -5.593   7.794  0.00  0.00    +0.054 A 
ATOM     16  C   UNL     1       6.536  -6.931   7.555  0.00  0.00    +0.163 A 
ATOM     17  C   UNL     1       5.498  -7.801   7.238  0.00  0.00    +0.177 A 
ATOM     18  C   UNL     1       4.197  -7.327   7.169  0.00  0.00    +0.086 A 
ATOM     19  C   UNL     1       3.934  -5.990   7.415  0.00  0.00    +0.028 A 
ATOM     20 CL   UNL     1       2.898  -8.409   6.775  0.00  0.00    -0.080 Cl
BRANCH  17  21
ATOM     21  O   UNL     1       5.758  -9.114   6.998  0.00  0.00    -0.502 OA
ATOM     22  H   UNL     1       4.936  -9.801   6.747  0.00  0.00    +0.292 HD
ENDBRANCH  17  21
BRANCH  16  23
ATOM     23  O   UNL     1       7.814  -7.391   7.624  0.00  0.00    -0.491 OA
ATOM     24  C   UNL     1       8.829  -6.441   7.954  0.00  0.00    +0.277 C 
ENDBRANCH  16  23
ENDBRANCH   4  14
BRANCH   9  25
ATOM     25  C   UNL     1       2.246  -1.986   3.036  0.00  0.00    -0.043 A 
ATOM     26  C   UNL     1       1.758  -2.772   2.008  0.00  0.00    +0.007 A 
ATOM     27  C   UNL     1       1.198  -2.182   0.892  0.00  0.00    +0.046 A 
ATOM     28  C   UNL     1       1.126  -0.799   0.802  0.00  0.00    +0.120 A 
ATOM     29  C   UNL     1       1.622  -0.013   1.832  0.00  0.00    +0.046 A 
ATOM     30  C   UNL     1       2.175  -0.608   2.949  0.00  0.00    +0.007 A 
BRANCH  28  31
ATOM     31  O   UNL     1       0.575  -0.216  -0.295  0.00  0.00    -0.495 OA
ATOM     32  C   UNL     1       0.535   1.212  -0.319  0.00  0.00    +0.277 C 
ENDBRANCH  28  31
ENDBRANCH   9  25
BRANCH   3  33
ATOM     33  C   UNL     1       4.301  -3.723  10.483  0.00  0.00    +0.338 C 
ATOM     34  O   UNL     1       3.599  -3.533  11.459  0.00  0.00    -0.245 OA
BRANCH  33  35
ATOM     35  O   UNL     1       5.591  -4.089  10.642  0.00  0.00    -0.459 OA
BRANCH  35  36
ATOM     36  C   UNL     1       6.064  -4.234  11.982  0.00  0.00    +0.171 C 
ATOM     37  C   UNL     1       7.165  -5.295  12.022  0.00  0.00    +0.052 C 
ATOM     38  C   UNL     1       6.625  -2.897  12.472  0.00  0.00    +0.052 C 
ENDBRANCH  35  36
ENDBRANCH  33  35
ENDBRANCH   3  33
TORSDOF 8
