REMARK  Name = ZINC08591904
REMARK  14 active torsions:
REMARK  status: ('A' for Active; 'I' for Inactive)
REMARK    1  A    between atoms: C_1  and  C_2
REMARK    2  A    between atoms: C_5  and  N_9
REMARK    3  A    between atoms: C_7  and  C_8
REMARK    4  A    between atoms: C_13  and  C_37
REMARK    5  A    between atoms: C_14  and  C_36
REMARK    6  A    between atoms: N_17  and  C_20
REMARK    7  A    between atoms: C_20  and  C_21
REMARK    8  A    between atoms: N_23  and  C_24
REMARK    9  A    between atoms: C_24  and  C_25
REMARK   10  A    between atoms: C_25  and  C_26
REMARK   11  A    between atoms: C_29  and  O_34
REMARK   12  A    between atoms: C_30  and  O_32
REMARK   13  A    between atoms: O_32  and  C_33
REMARK   14  A    between atoms: O_34  and  C_35
REMARK                            x       y       z     vdW  Elec       q    Type
REMARK                         _______ _______ _______ _____ _____    ______ ____
ROOT
ATOM      1  N   UNL     1       0.059  -4.172  -0.021  0.00  0.00    -0.228 N 
ATOM      2  C   UNL     1      -0.036  -4.822  -1.195  0.00  0.00    +0.270 A 
ATOM      3  O   UNL     1      -0.136  -4.200  -2.236  0.00  0.00    -0.266 OA
ATOM      4  C   UNL     1      -0.016  -6.300  -1.205  0.00  0.00    +0.074 A 
ATOM      5  C   UNL     1      -0.102  -7.213  -2.336  0.00  0.00    -0.026 A 
ATOM      6  C   UNL     1      -0.059  -8.524  -2.053  0.00  0.00    -0.008 A 
ATOM      7  S   UNL     1       0.098  -8.556  -0.280  0.00  0.00    -0.075 S 
ATOM      8  C   UNL     1       0.102  -6.917   0.040  0.00  0.00    +0.097 A 
ATOM      9  N   UNL     1       0.192  -6.176   1.190  0.00  0.00    -0.278 N 
ATOM     10  C   UNL     1       0.176  -4.831   1.143  0.00  0.00    +0.338 A 
ATOM     11  O   UNL     1       0.263  -4.199   2.179  0.00  0.00    -0.246 OA
ATOM     12  C   UNL     1      -0.127  -9.689  -3.006  0.00  0.00    +0.052 C 
ATOM     13  C   UNL     1      -0.235  -6.711  -3.751  0.00  0.00    +0.045 C 
ENDROOT
BRANCH   1  18
ATOM     14  C   UNL     1      -0.016   1.503   0.012  0.00  0.00    +0.044 C 
ATOM     15  C   UNL     1       0.004  -0.004   0.003  0.00  0.00    -0.047 A 
ATOM     16  C   UNL     1      -1.181  -0.711   0.107  0.00  0.00    +0.005 A 
ATOM     17  C   UNL     1      -1.166  -2.091   0.099  0.00  0.00    +0.027 A 
ATOM     18  C   UNL     1       0.040  -2.771  -0.013  0.00  0.00    +0.055 A 
ATOM     19  C   UNL     1       1.227  -2.059  -0.117  0.00  0.00    +0.030 A 
ATOM     20  C   UNL     1       1.205  -0.677  -0.114  0.00  0.00    -0.046 A 
ATOM     21  C   UNL     1       2.493   0.096  -0.233  0.00  0.00    +0.044 C 
ENDBRANCH   1  18
BRANCH   9  22
ATOM     22  C   UNL     1       0.315  -6.855   2.482  0.00  0.00    +0.223 C 
BRANCH  22  23
ATOM     23  C   UNL     1       1.773  -7.067   2.801  0.00  0.00    +0.233 C 
ATOM     24  O   UNL     1       2.625  -6.688   2.026  0.00  0.00    -0.274 OA
ATOM     25  N   UNL     1       2.129  -7.678   3.949  0.00  0.00    -0.314 N 
ATOM     26  H   UNL     1       1.448  -7.981   4.569  0.00  0.00    +0.149 HD
BRANCH  25  27
ATOM     27  C   UNL     1       3.546  -7.884   4.259  0.00  0.00    +0.109 C 
BRANCH  27  28
ATOM     28  C   UNL     1       3.675  -8.593   5.609  0.00  0.00    +0.054 C 
BRANCH  28  29
ATOM     29  C   UNL     1       5.132  -8.806   5.928  0.00  0.00    -0.042 A 
ATOM     30  C   UNL     1       5.768  -9.962   5.514  0.00  0.00    +0.007 A 
ATOM     31  C   UNL     1       7.104 -10.161   5.805  0.00  0.00    +0.049 A 
ATOM     32  C   UNL     1       7.811  -9.201   6.511  0.00  0.00    +0.161 A 
ATOM     33  C   UNL     1       7.171  -8.037   6.927  0.00  0.00    +0.162 A 
ATOM     34  C   UNL     1       5.832  -7.841   6.629  0.00  0.00    +0.053 A 
BRANCH  33  35
ATOM     35  O   UNL     1       7.860  -7.091   7.621  0.00  0.00    -0.491 OA
ATOM     36  C   UNL     1       7.139  -5.923   8.016  0.00  0.00    +0.277 C 
ENDBRANCH  33  35
BRANCH  32  37
ATOM     37  O   UNL     1       9.126  -9.395   6.798  0.00  0.00    -0.491 OA
ATOM     38  C   UNL     1       9.716 -10.613   6.340  0.00  0.00    +0.277 C 
ENDBRANCH  32  37
ENDBRANCH  28  29
ENDBRANCH  27  28
ENDBRANCH  25  27
ENDBRANCH  22  23
ENDBRANCH   9  22
TORSDOF 8
