REMARK  Name = ZINC17356556
REMARK  6 active torsions:
REMARK  status: ('A' for Active; 'I' for Inactive)
REMARK    1  A    between atoms: C_4  and  C_7
REMARK    2  A    between atoms: C_7  and  C_8
REMARK    3  A    between atoms: C_7  and  N_14
REMARK    4  A    between atoms: C_20  and  C_22
REMARK    5  A    between atoms: C_25  and  N_31
REMARK    6  A    between atoms: C_26  and  N_28
REMARK                            x       y       z     vdW  Elec       q    Type
REMARK                         _______ _______ _______ _____ _____    ______ ____
ROOT
ATOM      1  N   UNL     1       3.249  -1.378  -2.197  0.00  0.00    -0.289 NA
ATOM      2  C   UNL     1       2.720  -1.559  -3.556  0.00  0.00    +0.104 C 
ATOM      3  C   UNL     1       2.606  -3.056  -3.861  0.00  0.00    +0.123 C 
ATOM      4  N   UNL     1       3.912  -3.685  -3.613  0.00  0.00    -0.295 N 
ATOM      5  C   UNL     1       4.571  -3.436  -2.322  0.00  0.00    +0.123 C 
ATOM      6  C   UNL     1       4.608  -1.924  -2.077  0.00  0.00    +0.104 C 
ATOM      7  C   UNL     1       4.491  -4.468  -4.545  0.00  0.00    +0.247 C 
ATOM      8  O   UNL     1       3.897  -4.730  -5.573  0.00  0.00    -0.270 OA
ENDROOT
BRANCH   7   9
ATOM      9  C   UNL     1       5.845  -5.007  -4.318  0.00  0.00    +0.039 A 
ATOM     10  C   UNL     1       6.175  -5.575  -3.084  0.00  0.00    +0.015 A 
ATOM     11  C   UNL     1       7.439  -6.078  -2.876  0.00  0.00    +0.026 A 
ATOM     12  C   UNL     1       8.389  -6.021  -3.892  0.00  0.00    +0.055 A 
ATOM     13  C   UNL     1       8.063  -5.455  -5.122  0.00  0.00    +0.147 A 
ATOM     14  C   UNL     1       6.799  -4.957  -5.338  0.00  0.00    +0.047 A 
BRANCH  13  15
ATOM     15  N   UNL     1       9.077  -5.396  -6.199  0.00  0.00    +0.058 N 
ATOM     16  O   UNL     1       9.130  -4.431  -6.926  0.00  0.00    -0.126 OA
ATOM     17  O   UNL     1       9.851  -6.312  -6.352  0.00  0.00    -0.126 OA
ENDBRANCH  13  15
BRANCH  12  18
ATOM     18  N   UNL     1       9.665  -6.529  -3.678  0.00  0.00    -0.356 N 
ATOM     19  H   UNL     1       9.859  -7.028  -2.869  0.00  0.00    +0.142 HD
ATOM     20  H   UNL     1      10.362  -6.385  -4.338  0.00  0.00    +0.142 HD
ENDBRANCH  12  18
ENDBRANCH   7   9
BRANCH   1  21
ATOM     21  C   UNL     1       3.213   0.036  -1.802  0.00  0.00    +0.117 C 
BRANCH  21  25
ATOM     22  C   UNL     1      -0.774   1.520  -2.189  0.00  0.00    +0.000 A 
ATOM     23  C   UNL     1       0.297   2.311  -2.561  0.00  0.00    +0.000 A 
ATOM     24  C   UNL     1       1.588   1.831  -2.436  0.00  0.00    +0.005 A 
ATOM     25  C   UNL     1       1.807   0.560  -1.938  0.00  0.00    -0.026 A 
ATOM     26  C   UNL     1       0.736  -0.231  -1.565  0.00  0.00    +0.005 A 
ATOM     27  C   UNL     1      -0.554   0.249  -1.691  0.00  0.00    +0.000 A 
ENDBRANCH  21  25
BRANCH  21  28
ATOM     28  C   UNL     1       3.663   0.169  -0.370  0.00  0.00    -0.026 A 
ATOM     29  C   UNL     1       3.267  -0.765   0.569  0.00  0.00    +0.005 A 
ATOM     30  C   UNL     1       3.679  -0.643   1.882  0.00  0.00    +0.000 A 
ATOM     31  C   UNL     1       4.488   0.413   2.258  0.00  0.00    +0.000 A 
ATOM     32  C   UNL     1       4.885   1.347   1.319  0.00  0.00    +0.000 A 
ATOM     33  C   UNL     1       4.476   1.222   0.004  0.00  0.00    +0.005 A 
ENDBRANCH  21  28
ENDBRANCH   1  21
TORSDOF 6
