REMARK  Name = ZINC16047388
REMARK  3 active torsions:
REMARK  status: ('A' for Active; 'I' for Inactive)
REMARK    1  A    between atoms: N_11  and  C_15
REMARK    2  A    between atoms: C_15  and  C_16
REMARK    3  A    between atoms: N_21  and  C_22
REMARK                            x       y       z     vdW  Elec       q    Type
REMARK                         _______ _______ _______ _____ _____    ______ ____
ROOT
ATOM      1  C   UNL     1      -0.529  -4.563  -1.433  0.00  0.00    +0.240 C 
ATOM      2  O   UNL     1      -0.263  -3.815  -2.350  0.00  0.00    -0.274 OA
ATOM      3  N   UNL     1      -0.842  -5.850  -1.683  0.00  0.00    -0.239 N 
ATOM      4  C   UNL     1      -0.858  -6.306  -2.951  0.00  0.00    +0.306 C 
ATOM      5  O   UNL     1      -0.592  -5.556  -3.870  0.00  0.00    -0.252 OA
ATOM      6  N   UNL     1      -1.171  -7.593  -3.201  0.00  0.00    -0.294 N 
ATOM      7  H   UNL     1      -1.054  -6.448  -0.950  0.00  0.00    +0.159 HD
ATOM      8  H   UNL     1      -1.384  -8.191  -2.468  0.00  0.00    +0.151 HD
ENDROOT
BRANCH   6   9
ATOM      9  C   UNL     1      -1.189  -8.088  -4.580  0.00  0.00    +0.037 C 
ATOM     10  C   UNL     1      -2.213  -7.294  -5.393  0.00  0.00    +0.029 C 
ATOM     11  C   UNL     1      -2.232  -7.811  -6.833  0.00  0.00    -0.008 C 
ATOM     12  C   UNL     1      -2.615  -9.293  -6.838  0.00  0.00    +0.007 C 
ATOM     13  C   UNL     1      -1.590 -10.086  -6.025  0.00  0.00    -0.008 C 
ATOM     14  C   UNL     1      -1.571  -9.569  -4.585  0.00  0.00    +0.029 C 
ATOM     15  C   UNL     1      -0.203  -9.915  -6.646  0.00  0.00    +0.007 C 
ATOM     16  C   UNL     1       0.180  -8.434  -6.641  0.00  0.00    -0.008 C 
ATOM     17  C   UNL     1      -0.845  -7.640  -7.455  0.00  0.00    +0.007 C 
ATOM     18  C   UNL     1       0.199  -7.917  -5.202  0.00  0.00    +0.029 C 
ENDBRANCH   6   9
BRANCH   1  19
ATOM     19  C   UNL     1      -0.510  -4.054  -0.015  0.00  0.00    +0.227 C 
BRANCH  19  30
ATOM     20  C   UNL     1       3.571  -2.085  -0.041  0.00  0.00    +0.002 A 
ATOM     21  C   UNL     1       3.633  -0.723  -0.035  0.00  0.00    +0.009 A 
ATOM     22  C   UNL     1       2.435   0.011  -0.020  0.00  0.00    -0.014 A 
ATOM     23  C   UNL     1       2.392   1.415  -0.012  0.00  0.00    +0.009 A 
ATOM     24  C   UNL     1       1.189   2.056   0.002  0.00  0.00    +0.003 A 
ATOM     25  C   UNL     1      -0.016   1.341   0.009  0.00  0.00    +0.029 A 
ATOM     26  C   UNL     1       0.002  -0.004   0.002  0.00  0.00    +0.118 A 
ATOM     27  C   UNL     1       1.216  -0.699  -0.013  0.00  0.00    +0.031 A 
ATOM     28  C   UNL     1       1.151  -2.091  -0.019  0.00  0.00    +0.061 A 
ATOM     29  C   UNL     1       2.365  -2.775  -0.034  0.00  0.00    +0.025 A 
ATOM     30  N   UNL     1      -0.144  -2.635  -0.011  0.00  0.00    -0.194 N 
ATOM     31  S   UNL     1      -1.183  -1.319   0.006  0.00  0.00    +0.076 S 
ATOM     32  O   UNL     1      -1.844  -1.304   1.264  0.00  0.00    -0.150 OA
ATOM     33  O   UNL     1      -1.867  -1.290  -1.240  0.00  0.00    -0.150 OA
ENDBRANCH  19  30
ENDBRANCH   1  19
TORSDOF 3
