REMARK  Name = ZINC61773144
REMARK  9 active torsions:
REMARK  status: ('A' for Active; 'I' for Inactive)
REMARK    1  A    between atoms: C_1  and  C_2
REMARK    2  A    between atoms: C_6  and  N_9
REMARK    3  A    between atoms: C_7  and  C_8
REMARK    4  A    between atoms: C_10  and  C_12
REMARK    5  A    between atoms: N_14  and  C_15
REMARK    6  A    between atoms: C_17  and  C_23
REMARK    7  A    between atoms: C_20  and  O_21
REMARK    8  A    between atoms: O_21  and  C_22
REMARK    9  A    between atoms: N_25  and  C_26
REMARK                            x       y       z     vdW  Elec       q    Type
REMARK                         _______ _______ _______ _____ _____    ______ ____
ROOT
ATOM      1  C   UNL     1      -2.274  -4.295   1.738  0.00  0.00    +0.303 C 
ATOM      2  O   UNL     1      -3.178  -3.608   1.310  0.00  0.00    -0.265 OA
ATOM      3  N   UNL     1      -2.535  -5.521   2.232  0.00  0.00    -0.275 N 
ATOM      4  H   UNL     1      -1.807  -6.096   2.514  0.00  0.00    +0.155 HD
ENDROOT
BRANCH   3   5
ATOM      5  C   UNL     1      -3.858  -5.965   2.340  0.00  0.00    +0.077 A 
ATOM      6  C   UNL     1      -4.793  -5.592   1.389  0.00  0.00    +0.040 A 
ATOM      7  C   UNL     1      -6.112  -6.037   1.500  0.00  0.00    +0.039 A 
ATOM      8  C   UNL     1      -6.482  -6.857   2.569  0.00  0.00    +0.017 A 
ATOM      9  C   UNL     1      -5.548  -7.225   3.513  0.00  0.00    +0.048 A 
ATOM     10  C   UNL     1      -4.235  -6.789   3.401  0.00  0.00    +0.141 A 
BRANCH   7  11
ATOM     11  C   UNL     1      -7.113  -5.641   0.490  0.00  0.00    +0.244 C 
ATOM     12  O   UNL     1      -6.789  -4.928  -0.440  0.00  0.00    -0.270 OA
ATOM     13  N   UNL     1      -8.385  -6.072   0.598  0.00  0.00    -0.314 N 
ATOM     14  C   UNL     1      -9.379  -5.679  -0.405  0.00  0.00    +0.128 C 
ATOM     15  H   UNL     1      -8.643  -6.641   1.340  0.00  0.00    +0.149 HD
ENDBRANCH   7  11
BRANCH  10  16
ATOM     16  O   UNL     1      -3.317  -7.160   4.330  0.00  0.00    -0.493 OA
ATOM     17  C   UNL     1      -3.770  -8.004   5.390  0.00  0.00    +0.277 C 
ENDBRANCH  10  16
ENDBRANCH   3   5
BRANCH   1  19
ATOM     18  N   UNL     1      -0.610  -2.557   1.222  0.00  0.00    -0.304 N 
ATOM     19  C   UNL     1      -0.871  -3.783   1.716  0.00  0.00    +0.300 C 
ATOM     20  O   UNL     1       0.033  -4.470   2.145  0.00  0.00    -0.265 OA
ATOM     21  H   UNL     1      -1.332  -2.007   0.879  0.00  0.00    +0.149 HD
BRANCH  18  27
ATOM     22  C   UNL     1      -0.013   1.512  -0.028  0.00  0.00    +0.008 C 
ATOM     23  C   UNL     1       0.003  -0.018  -0.032  0.00  0.00    -0.009 C 
ATOM     24  C   UNL     1       0.710  -0.518  -1.294  0.00  0.00    +0.003 C 
ATOM     25  C   UNL     1       0.726  -2.048  -1.297  0.00  0.00    +0.002 C 
ATOM     26  C   UNL     1       1.473  -2.553  -0.061  0.00  0.00    +0.022 C 
ATOM     27  C   UNL     1       0.766  -2.053   1.201  0.00  0.00    +0.076 C 
ATOM     28  C   UNL     1       0.750  -0.523   1.204  0.00  0.00    +0.009 C 
ATOM     29  C   UNL     1       0.043  -0.024   2.466  0.00  0.00    +0.009 C 
ENDBRANCH  18  27
ENDBRANCH   1  19
TORSDOF 5
