REMARK  Name = ZINC64604185
REMARK  9 active torsions:
REMARK  status: ('A' for Active; 'I' for Inactive)
REMARK    1  A    between atoms: C_1  and  C_2
REMARK    2  A    between atoms: C_7  and  S_12
REMARK    3  A    between atoms: S_12  and  C_13
REMARK    4  A    between atoms: C_13  and  C_14
REMARK    5  A    between atoms: C_16  and  C_19
REMARK    6  A    between atoms: C_19  and  C_20
REMARK    7  A    between atoms: C_20  and  C_21
REMARK    8  A    between atoms: N_23  and  C_24
REMARK    9  A    between atoms: C_27  and  C_30
REMARK                            x       y       z     vdW  Elec       q    Type
REMARK                         _______ _______ _______ _____ _____    ______ ____
ROOT
ATOM      1  C   UNL     1       4.241  -4.802   1.804  0.00  0.00    +0.182 A 
ATOM      2  N   UNL     1       4.918  -4.619   2.942  0.00  0.00    -0.195 NA
ATOM      3  C   UNL     1       6.022  -5.313   2.924  0.00  0.00    +0.228 A 
ATOM      4  O   UNL     1       6.085  -5.970   1.759  0.00  0.00    -0.338 OA
ATOM      5  N   UNL     1       4.907  -5.625   1.045  0.00  0.00    -0.060 NA
ENDROOT
BRANCH   1   6
ATOM      6  C   UNL     1       2.920  -4.166   1.458  0.00  0.00    +0.152 C 
BRANCH   6   7
ATOM      7  S   UNL     1       1.567  -5.231   2.029  0.00  0.00    -0.107 S 
BRANCH   7  14
ATOM      8  C   UNL     1      -0.018   1.503   0.010  0.00  0.00    +0.044 C 
ATOM      9  C   UNL     1       0.002  -0.004   0.002  0.00  0.00    -0.048 A 
ATOM     10  C   UNL     1       0.005  -0.672  -1.235  0.00  0.00    +0.005 A 
ATOM     11  C   UNL     1       0.022  -2.017  -1.335  0.00  0.00    +0.028 A 
ATOM     12  C   UNL     1       0.040  -2.834  -0.114  0.00  0.00    +0.061 A 
ATOM     13  N   UNL     1       0.057  -4.120   0.090  0.00  0.00    -0.355 N 
ATOM     14  C   UNL     1       0.067  -4.335   1.542  0.00  0.00    +0.236 C 
ATOM     15  N   UNL     1       0.053  -3.002   2.159  0.00  0.00    -0.355 N 
ATOM     16  C   UNL     1       0.037  -2.127   1.195  0.00  0.00    +0.061 A 
ATOM     17  C   UNL     1       0.022  -0.657   1.181  0.00  0.00    +0.030 A 
ATOM     18  H   UNL     1       0.062  -4.809  -0.593  0.00  0.00    +0.162 HD
ATOM     19  H   UNL     1       0.055  -2.810   3.109  0.00  0.00    +0.162 HD
ENDBRANCH   7  14
ENDBRANCH   6   7
ENDBRANCH   1   6
BRANCH   3  20
ATOM     20  C   UNL     1       7.050  -5.368   4.025  0.00  0.00    +0.108 C 
BRANCH  20  21
ATOM     21  C   UNL     1       6.704  -6.503   4.990  0.00  0.00    +0.105 C 
BRANCH  21  22
ATOM     22  C   UNL     1       7.732  -6.558   6.090  0.00  0.00    +0.216 C 
ATOM     23  O   UNL     1       8.651  -5.766   6.102  0.00  0.00    -0.276 OA
ATOM     24  N   UNL     1       7.631  -7.486   7.062  0.00  0.00    -0.285 N 
ATOM     25  H   UNL     1       6.896  -8.120   7.053  0.00  0.00    +0.152 HD
BRANCH  24  26
ATOM     26  C   UNL     1       8.630  -7.539   8.132  0.00  0.00    +0.251 C 
ATOM     27  N   UNL     1       8.194  -8.432   9.225  0.00  0.00    -0.254 NA
ATOM     28  C   UNL     1       8.989  -9.303   9.696  0.00  0.00    +0.056 C 
ATOM     29  C   UNL     1      10.390  -9.400   9.108  0.00  0.00    +0.128 C 
ATOM     30  S   UNL     1      10.163  -8.401   7.570  0.00  0.00    -0.109 S 
BRANCH  28  31
ATOM     31  C   UNL     1       8.566 -10.199  10.790  0.00  0.00    -0.003 A 
ATOM     32  C   UNL     1       9.453 -11.147  11.303  0.00  0.00    +0.010 A 
ATOM     33  C   UNL     1       9.050 -11.982  12.325  0.00  0.00    +0.001 A 
ATOM     34  C   UNL     1       7.771 -11.881  12.842  0.00  0.00    +0.000 A 
ATOM     35  C   UNL     1       6.886 -10.943  12.338  0.00  0.00    +0.001 A 
ATOM     36  C   UNL     1       7.278 -10.098  11.320  0.00  0.00    +0.010 A 
ENDBRANCH  28  31
ENDBRANCH  24  26
ENDBRANCH  21  22
ENDBRANCH  20  21
ENDBRANCH   3  20
TORSDOF 8
