REMARK  Name = ZINC40245979
REMARK  6 active torsions:
REMARK  status: ('A' for Active; 'I' for Inactive)
REMARK    1  A    between atoms: C_1  and  C_2
REMARK    2  A    between atoms: C_5  and  C_9
REMARK    3  A    between atoms: C_6  and  C_8
REMARK    4  A    between atoms: C_9  and  C_11
REMARK    5  A    between atoms: C_9  and  O_17
REMARK    6  A    between atoms: C_14  and  C_16
REMARK                            x       y       z     vdW  Elec       q    Type
REMARK                         _______ _______ _______ _____ _____    ______ ____
ROOT
ATOM      1  C   UNL     1       0.059  -4.275  -0.021  0.00  0.00    +0.210 C 
ENDROOT
BRANCH   1   6
ATOM      2  C   UNL     1      -0.018   1.503   0.010  0.00  0.00    +0.044 C 
ATOM      3  C   UNL     1       0.002  -0.004   0.002  0.00  0.00    -0.050 A 
ATOM      4  C   UNL     1       0.006  -0.689  -1.199  0.00  0.00    +0.004 A 
ATOM      5  C   UNL     1       0.025  -2.071  -1.207  0.00  0.00    +0.007 A 
ATOM      6  C   UNL     1       0.040  -2.768  -0.013  0.00  0.00    -0.009 A 
ATOM      7  C   UNL     1       0.037  -2.084   1.188  0.00  0.00    -0.044 A 
ATOM      8  C   UNL     1       0.023  -0.702   1.195  0.00  0.00    +0.007 A 
ATOM      9  C   UNL     1       0.054  -2.845   2.489  0.00  0.00    +0.044 C 
ENDBRANCH   1   6
BRANCH   1  10
ATOM     10  C   UNL     1       1.482  -4.760   0.092  0.00  0.00    +0.138 A 
ATOM     11  C   UNL     1       2.074  -5.204   1.215  0.00  0.00    +0.048 A 
ATOM     12  C   UNL     1       3.400  -5.554   0.868  0.00  0.00    +0.045 A 
ATOM     13  C   UNL     1       3.538  -5.302  -0.446  0.00  0.00    +0.102 A 
ATOM     14  O   UNL     1       2.371  -4.827  -0.912  0.00  0.00    -0.462 OA
ATOM     15  C   UNL     1       4.788  -5.521  -1.259  0.00  0.00    +0.086 C 
ENDBRANCH   1  10
BRANCH   1  16
ATOM     16  O   UNL     1      -0.510  -4.752  -1.242  0.00  0.00    -0.379 OA
ATOM     17  H   UNL     1      -0.044  -4.457  -2.036  0.00  0.00    +0.211 HD
ENDBRANCH   1  16
TORSDOF 3
