REMARK  Name = ZINC44627229
REMARK  6 active torsions:
REMARK  status: ('A' for Active; 'I' for Inactive)
REMARK    1  A    between atoms: C_1  and  C_2
REMARK    2  A    between atoms: C_2  and  C_3
REMARK    3  A    between atoms: C_3  and  C_5
REMARK    4  A    between atoms: C_3  and  N_8
REMARK    5  A    between atoms: N_8  and  C_9
REMARK    6  A    between atoms: N_16  and  C_19
REMARK                            x       y       z     vdW  Elec       q    Type
REMARK                         _______ _______ _______ _____ _____    ______ ____
ROOT
ATOM      1  N   UNL     1       1.899   1.006  -3.215  0.00  0.00    -0.275 N 
ATOM      2  C   UNL     1       2.617   1.835  -4.187  0.00  0.00    +0.134 C 
ATOM      3  C   UNL     1       0.651   0.578  -3.486  0.00  0.00    +0.305 C 
ATOM      4  O   UNL     1      -0.010   0.041  -2.618  0.00  0.00    -0.252 OA
ATOM      5  N   UNL     1       0.135   0.743  -4.721  0.00  0.00    -0.287 N 
ATOM      6  C   UNL     1      -1.223   0.233  -4.999  0.00  0.00    +0.107 C 
ATOM      7  C   UNL     1      -2.026   1.233  -5.850  0.00  0.00    +0.000 C 
ATOM      8  C   UNL     1      -1.737   2.641  -5.379  0.00  0.00    -0.078 C 
ATOM      9  N   UNL     1      -0.650   3.203  -6.178  0.00  0.00    +0.379 N 
ATOM     10  C   UNL     1       0.648   2.936  -5.689  0.00  0.00    -0.060 C 
ATOM     11  C   UNL     1       0.929   1.421  -5.724  0.00  0.00    +0.091 C 
ATOM     12  C   UNL     1      -0.830   4.659  -6.245  0.00  0.00    -0.096 C 
ATOM     13  H   UNL     1      -0.720   2.834  -7.114  0.00  0.00    -0.082 HD
ENDROOT
BRANCH   1  14
ATOM     14  C   UNL     1       2.539   0.644  -1.948  0.00  0.00    +0.190 C 
BRANCH  14  15
ATOM     15  C   UNL     1       2.877   1.896  -1.180  0.00  0.00    +0.376 C 
ATOM     16  O   UNL     1       2.779   2.986  -1.717  0.00  0.00    -0.244 OA
ATOM     17  O   UNL     1       3.249   1.819  -0.021  0.00  0.00    -0.244 OA
ENDBRANCH  14  15
BRANCH  14  19
ATOM     18  C   UNL     1       3.466  -1.472  -2.899  0.00  0.00    +0.006 C 
ATOM     19  C   UNL     1       3.820  -0.143  -2.230  0.00  0.00    +0.031 C 
ENDBRANCH  14  19
ENDBRANCH   1  14
TORSDOF 3
