REMARK  Name = ZINC57828264
REMARK  5 active torsions:
REMARK  status: ('A' for Active; 'I' for Inactive)
REMARK    1  A    between atoms: C_2  and  N_9
REMARK    2  A    between atoms: N_4  and  C_6
REMARK    3  A    between atoms: C_6  and  C_7
REMARK    4  A    between atoms: C_7  and  O_8
REMARK    5  A    between atoms: C_17  and  C_19
REMARK                            x       y       z     vdW  Elec       q    Type
REMARK                         _______ _______ _______ _____ _____    ______ ____
ROOT
ATOM      1  N   UNL     1       1.720   3.110   0.002  0.00  0.00    -0.296 N 
ATOM      2  C   UNL     1       0.776   4.121   0.016  0.00  0.00    +0.135 A 
ATOM      3  C   UNL     1       1.178   5.482   0.120  0.00  0.00    +0.051 A 
ATOM      4  C   UNL     1       2.530   6.033   0.225  0.00  0.00    -0.025 A 
ATOM      5  C   UNL     1       2.639   7.374   0.312  0.00  0.00    -0.004 A 
ATOM      6  S   UNL     1       0.973   7.978   0.261  0.00  0.00    -0.073 S 
ATOM      7  C   UNL     1       0.130   6.424   0.124  0.00  0.00    +0.114 A 
ATOM      8  N   UNL     1      -1.133   6.051   0.037  0.00  0.00    -0.224 NA
ATOM      9  C   UNL     1      -1.445   4.773  -0.056  0.00  0.00    +0.135 A 
ATOM     10  N   UNL     1      -0.514   3.835  -0.072  0.00  0.00    -0.216 NA
ATOM     11  C   UNL     1       3.899   8.177   0.428  0.00  0.00    +0.043 C 
ATOM     12  C   UNL     1       5.045   7.228   0.809  0.00  0.00    +0.005 C 
ATOM     13  C   UNL     1       4.992   6.003  -0.109  0.00  0.00    +0.005 C 
ATOM     14  C   UNL     1       3.773   5.147   0.237  0.00  0.00    +0.037 C 
ATOM     15  H   UNL     1       2.656   3.319   0.147  0.00  0.00    +0.154 HD
ENDROOT
BRANCH   1  17
ATOM     16  C   UNL     1       0.011   1.335  -0.448  0.00  0.00    +0.157 A 
ATOM     17  C   UNL     1       1.322   1.779  -0.224  0.00  0.00    +0.070 A 
ATOM     18  C   UNL     1       2.140   0.696  -0.264  0.00  0.00    +0.131 A 
ATOM     19  N   UNL     1       1.366  -0.394  -0.506  0.00  0.00    -0.267 N 
ATOM     20  N   UNL     1       0.038   0.038  -0.617  0.00  0.00    -0.178 NA
BRANCH  19  21
ATOM     21  C   UNL     1       1.836  -1.776  -0.630  0.00  0.00    +0.171 C 
BRANCH  21  22
ATOM     22  C   UNL     1       1.077  -2.663   0.358  0.00  0.00    +0.179 C 
BRANCH  22  23
ATOM     23  O   UNL     1       1.536  -4.011   0.237  0.00  0.00    -0.393 OA
ATOM     24  H   UNL     1       1.097  -4.631   0.836  0.00  0.00    +0.209 HD
ENDBRANCH  22  23
ENDBRANCH  21  22
ENDBRANCH  19  21
ENDBRANCH   1  17
BRANCH   9  25
ATOM     25  C   UNL     1      -2.894   4.373  -0.153  0.00  0.00    +0.057 C 
ATOM     26  C   UNL     1      -3.924   5.489  -0.341  0.00  0.00    +0.012 C 
ATOM     27  C   UNL     1      -3.815   4.768   1.004  0.00  0.00    +0.012 C 
ENDBRANCH   9  25
TORSDOF 5
