REMARK  Name = ZINC22134441
REMARK  9 active torsions:
REMARK  status: ('A' for Active; 'I' for Inactive)
REMARK    1  A    between atoms: C_1  and  C_2
REMARK    2  A    between atoms: C_2  and  C_3
REMARK    3  A    between atoms: C_2  and  N_4
REMARK    4  A    between atoms: C_9  and  C_18
REMARK    5  A    between atoms: C_11  and  C_13
REMARK    6  A    between atoms: N_20  and  C_21
REMARK    7  A    between atoms: C_24  and  C_27
REMARK    8  A    between atoms: N_29  and  C_30
REMARK    9  A    between atoms: N_29  and  C_31
REMARK                            x       y       z     vdW  Elec       q    Type
REMARK                         _______ _______ _______ _____ _____    ______ ____
ROOT
ATOM      1  N   UNL     1      -0.276   8.178   0.411  0.00  0.00    -0.244 N 
ATOM      2  C   UNL     1       0.432   7.025   0.186  0.00  0.00    +0.160 A 
ATOM      3  C   UNL     1       1.795   7.384   0.215  0.00  0.00    +0.051 A 
ATOM      4  C   UNL     1       1.854   8.771   0.462  0.00  0.00    +0.145 A 
ATOM      5  N   UNL     1       0.638   9.226   0.575  0.00  0.00    -0.177 NA
ATOM      6  C   UNL     1       2.775   6.384   0.011  0.00  0.00    +0.051 A 
ATOM      7  C   UNL     1       2.344   5.082  -0.205  0.00  0.00    +0.042 A 
ATOM      8  C   UNL     1       0.970   4.810  -0.224  0.00  0.00    +0.081 A 
ATOM      9  N   UNL     1       0.075   5.768  -0.029  0.00  0.00    -0.227 NA
ENDROOT
BRANCH   8  10
ATOM     10  C   UNL     1       0.509   3.428  -0.458  0.00  0.00    +0.038 A 
ATOM     11  C   UNL     1      -0.771   2.941  -0.511  0.00  0.00    +0.017 A 
ATOM     12  C   UNL     1      -0.959   1.599  -0.752  0.00  0.00    +0.008 A 
ATOM     13  C   UNL     1       0.126   0.797  -0.918  0.00  0.00    +0.046 A 
ATOM     14  S   UNL     1       1.475   1.954  -0.747  0.00  0.00    -0.095 S 
ENDBRANCH   8  10
BRANCH   6  15
ATOM     15  C   UNL     1       4.216   6.715   0.033  0.00  0.00    +0.249 C 
ATOM     16  O   UNL     1       4.574   7.861   0.228  0.00  0.00    -0.270 OA
ATOM     17  N   UNL     1       5.133   5.747  -0.164  0.00  0.00    -0.281 N 
ATOM     18  H   UNL     1       4.814   4.699  -0.257  0.00  0.00    +0.155 HD
BRANCH  17  19
ATOM     19  C   UNL     1       6.485   6.075  -0.249  0.00  0.00    +0.034 A 
ATOM     20  C   UNL     1       6.867   7.322  -0.734  0.00  0.00    +0.024 A 
ATOM     21  C   UNL     1       8.201   7.651  -0.815  0.00  0.00    +0.015 A 
ATOM     22  C   UNL     1       9.172   6.727  -0.420  0.00  0.00    +0.037 A 
ATOM     23  C   UNL     1       8.785   5.473   0.061  0.00  0.00    +0.015 A 
ATOM     24  C   UNL     1       7.449   5.152   0.144  0.00  0.00    +0.024 A 
BRANCH  22  25
ATOM     25  C   UNL     1      10.604   7.075  -0.509  0.00  0.00    +0.246 C 
ATOM     26  O   UNL     1      10.995   7.819  -1.388  0.00  0.00    -0.270 OA
ATOM     27  N   UNL     1      11.478   6.567   0.382  0.00  0.00    -0.304 N 
ATOM     28  C   UNL     1      12.913   6.820   0.227  0.00  0.00    +0.132 C 
ATOM     29  C   UNL     1      10.993   5.763   1.507  0.00  0.00    +0.132 C 
ENDBRANCH  22  25
ENDBRANCH  17  19
ENDBRANCH   6  15
BRANCH   1  31
ATOM     30  C   UNL     1      -2.150   8.821   1.844  0.00  0.00    +0.032 C 
ATOM     31  C   UNL     1      -1.735   8.293   0.470  0.00  0.00    +0.103 C 
ATOM     32  C   UNL     1      -2.214   9.261  -0.614  0.00  0.00    +0.032 C 
ENDBRANCH   1  31
TORSDOF 5
