REMARK  Name = ZINC63039762
REMARK  5 active torsions:
REMARK  status: ('A' for Active; 'I' for Inactive)
REMARK    1  A    between atoms: C_1  and  C_2
REMARK    2  A    between atoms: C_2  and  C_4
REMARK    3  A    between atoms: C_2  and  C_12
REMARK    4  A    between atoms: C_12  and  C_14
REMARK    5  A    between atoms: C_12  and  O_15
REMARK                            x       y       z     vdW  Elec       q    Type
REMARK                         _______ _______ _______ _____ _____    ______ ____
ROOT
ATOM      1  C   UNL     1       0.731  -0.503   1.223  0.00  0.00    +0.065 A 
ATOM      2  C   UNL     1       1.868  -1.277   1.072  0.00  0.00    +0.064 A 
ATOM      3  C   UNL     1       2.531  -1.731   2.202  0.00  0.00    +0.043 A 
ATOM      4  C   UNL     1       2.024  -1.388   3.447  0.00  0.00    +0.060 A 
ATOM      5  C   UNL     1       0.883  -0.611   3.519  0.00  0.00    +0.131 A 
ATOM      6  N   UNL     1       0.281  -0.193   2.423  0.00  0.00    -0.257 NA
ATOM      7 CL   UNL     1       2.813  -1.928   4.897  0.00  0.00    -0.082 Cl
ATOM      8 CL   UNL     1       2.456  -1.676  -0.512  0.00  0.00    -0.082 Cl
ENDROOT
BRANCH   1  10
ATOM      9  C   UNL     1      -0.019   1.526   0.010  0.00  0.00    +0.016 C 
ATOM     10  C   UNL     1       0.002  -0.004   0.002  0.00  0.00    +0.064 C 
BRANCH  10  11
ATOM     11  C   UNL     1      -1.433  -0.534   0.013  0.00  0.00    +0.120 C 
ATOM     12  C   UNL     1      -2.173  -0.027  -1.227  0.00  0.00    +0.038 C 
BRANCH  11  13
ATOM     13  O   UNL     1      -1.414  -1.962   0.005  0.00  0.00    -0.391 OA
ATOM     14  H   UNL     1      -0.974  -2.346  -0.766  0.00  0.00    +0.210 HD
ENDBRANCH  11  13
ENDBRANCH  10  11
ENDBRANCH   1  10
TORSDOF 3
