REMARK  Name = ZINC38897608
REMARK  10 active torsions:
REMARK  status: ('A' for Active; 'I' for Inactive)
REMARK    1  A    between atoms: C_1  and  C_2
REMARK    2  A    between atoms: C_5  and  C_8
REMARK    3  A    between atoms: C_8  and  N_9
REMARK    4  A    between atoms: C_11  and  C_19
REMARK    5  A    between atoms: N_20  and  N_21
REMARK    6  A    between atoms: C_22  and  C_24
REMARK    7  A    between atoms: C_24  and  C_25
REMARK    8  A    between atoms: N_30  and  C_31
REMARK    9  A    between atoms: C_31  and  C_33
REMARK   10  A    between atoms: C_36  and  C_39
REMARK                            x       y       z     vdW  Elec       q    Type
REMARK                         _______ _______ _______ _____ _____    ______ ____
ROOT
ATOM      1  N   UNL     1       5.191  -8.401  -2.385  0.00  0.00    -0.207 N 
ATOM      2  C   UNL     1       6.271  -8.641  -3.155  0.00  0.00    +0.235 C 
ATOM      3  O   UNL     1       7.011  -7.730  -3.462  0.00  0.00    -0.274 OA
ATOM      4  H   UNL     1       4.599  -9.129  -2.140  0.00  0.00    +0.177 HD
ENDROOT
BRANCH   1   6
ATOM      5  C   UNL     1       3.897  -6.872  -1.208  0.00  0.00    +0.113 C 
ATOM      6  N   UNL     1       4.923  -7.100  -1.940  0.00  0.00    -0.192 NA
BRANCH   5   9
ATOM      7  N   UNL     1       1.447  -4.746  -0.032  0.00  0.00    -0.324 N 
ATOM      8  C   UNL     1       2.237  -5.003  -1.238  0.00  0.00    +0.119 C 
ATOM      9  C   UNL     1       3.609  -5.473  -0.729  0.00  0.00    +0.081 C 
ATOM     10  C   UNL     1       3.485  -5.444   0.778  0.00  0.00    -0.017 A 
ATOM     11  C   UNL     1       2.211  -5.008   1.107  0.00  0.00    +0.034 A 
ATOM     12  C   UNL     1       1.860  -4.894   2.453  0.00  0.00    +0.023 A 
ATOM     13  C   UNL     1       2.773  -5.207   3.438  0.00  0.00    +0.002 A 
ATOM     14  C   UNL     1       4.043  -5.636   3.100  0.00  0.00    +0.000 A 
ATOM     15  C   UNL     1       4.394  -5.761   1.768  0.00  0.00    +0.006 A 
BRANCH   7  16
ATOM     16  C   UNL     1       0.059  -4.275  -0.021  0.00  0.00    +0.140 C 
BRANCH  16  21
ATOM     17  C   UNL     1      -0.018   1.503   0.010  0.00  0.00    +0.044 C 
ATOM     18  C   UNL     1       0.002  -0.004   0.002  0.00  0.00    -0.050 A 
ATOM     19  C   UNL     1       0.006  -0.689  -1.199  0.00  0.00    +0.003 A 
ATOM     20  C   UNL     1       0.025  -2.071  -1.206  0.00  0.00    +0.005 A 
ATOM     21  C   UNL     1       0.040  -2.768  -0.013  0.00  0.00    -0.030 A 
ATOM     22  C   UNL     1       0.037  -2.084   1.188  0.00  0.00    +0.005 A 
ATOM     23  C   UNL     1       0.023  -0.702   1.195  0.00  0.00    +0.003 A 
ENDBRANCH  16  21
ENDBRANCH   7  16
ENDBRANCH   5   9
ENDBRANCH   1   6
BRANCH   2  24
ATOM     24  C   UNL     1       6.559 -10.040  -3.635  0.00  0.00    +0.137 C 
BRANCH  24  25
ATOM     25  C   UNL     1       7.832 -10.036  -4.483  0.00  0.00    +0.201 C 
ATOM     26  N   UNL     1       8.167 -11.398  -4.964  0.00  0.00    -0.170 NA
ATOM     27  N   UNL     1       9.211 -11.895  -4.605  0.00  0.00    -0.129 NA
ATOM     28  C   UNL     1      10.123 -11.284  -3.773  0.00  0.00    +0.204 C 
ATOM     29  N   UNL     1      11.281 -11.739  -3.327  0.00  0.00    -0.149 NA
ATOM     30  S   UNL     1       9.328  -9.709  -3.454  0.00  0.00    -0.058 S 
BRANCH  29  31
ATOM     31  C   UNL     1      11.705 -12.962  -3.687  0.00  0.00    +0.270 C 
ATOM     32  O   UNL     1      11.023 -13.651  -4.423  0.00  0.00    -0.268 OA
BRANCH  31  33
ATOM     33  C   UNL     1      13.002 -13.472  -3.187  0.00  0.00    +0.039 A 
ATOM     34  C   UNL     1      13.784 -12.687  -2.339  0.00  0.00    +0.013 A 
ATOM     35  C   UNL     1      14.991 -13.168  -1.876  0.00  0.00    +0.004 A 
ATOM     36  C   UNL     1      15.428 -14.426  -2.253  0.00  0.00    -0.050 A 
ATOM     37  C   UNL     1      14.658 -15.209  -3.095  0.00  0.00    +0.004 A 
ATOM     38  C   UNL     1      13.446 -14.741  -3.559  0.00  0.00    +0.013 A 
ATOM     39  C   UNL     1      16.749 -14.944  -1.745  0.00  0.00    +0.044 C 
ENDBRANCH  31  33
ENDBRANCH  29  31
ENDBRANCH  24  25
ENDBRANCH   2  24
TORSDOF 8
