REMARK  Name = ZINC64155911
REMARK  9 active torsions:
REMARK  status: ('A' for Active; 'I' for Inactive)
REMARK    1  A    between atoms: C_1  and  S_2
REMARK    2  A    between atoms: S_2  and  C_3
REMARK    3  A    between atoms: C_3  and  C_4
REMARK    4  A    between atoms: N_13  and  C_14
REMARK    5  A    between atoms: C_14  and  C_15
REMARK    6  A    between atoms: N_17  and  C_18
REMARK    7  A    between atoms: C_18  and  C_19
REMARK    8  A    between atoms: C_19  and  C_21
REMARK    9  A    between atoms: C_19  and  C_27
REMARK                            x       y       z     vdW  Elec       q    Type
REMARK                         _______ _______ _______ _____ _____    ______ ____
ROOT
ATOM      1  C   UNL     1      -1.322  -3.252  -3.794  0.00  0.00    +0.230 C 
ATOM      2  O   UNL     1      -0.444  -4.089  -3.788  0.00  0.00    -0.274 OA
ATOM      3  N   UNL     1      -2.196  -3.199  -4.819  0.00  0.00    -0.313 N 
ATOM      4  H   UNL     1      -2.898  -2.530  -4.824  0.00  0.00    +0.149 HD
ENDROOT
BRANCH   1   5
ATOM      5  C   UNL     1      -1.435  -2.271  -2.656  0.00  0.00    +0.202 C 
BRANCH   5  14
ATOM      6  C   UNL     1       0.966  -1.944  -1.668  0.00  0.00    +0.169 C 
ATOM      7  N   UNL     1       1.647  -2.516  -0.501  0.00  0.00    -0.324 N 
ATOM      8  C   UNL     1       0.743  -3.385   0.125  0.00  0.00    +0.050 A 
ATOM      9  C   UNL     1       0.888  -4.173   1.262  0.00  0.00    +0.025 A 
ATOM     10  C   UNL     1      -0.159  -4.962   1.697  0.00  0.00    +0.002 A 
ATOM     11  C   UNL     1      -1.355  -4.973   1.003  0.00  0.00    +0.002 A 
ATOM     12  C   UNL     1      -1.508  -4.194  -0.128  0.00  0.00    +0.025 A 
ATOM     13  C   UNL     1      -0.461  -3.396  -0.573  0.00  0.00    +0.053 A 
ATOM     14  N   UNL     1      -0.378  -2.534  -1.677  0.00  0.00    -0.301 N 
ATOM     15  H   UNL     1       2.555  -2.328  -0.216  0.00  0.00    +0.148 HD
BRANCH   6  16
ATOM     16  C   UNL     1       0.873  -0.423  -1.533  0.00  0.00    +0.111 C 
BRANCH  16  18
ATOM     17  C   UNL     1      -0.022   1.810   0.012  0.00  0.00    +0.084 C 
ATOM     18  S   UNL     1       0.002  -0.004   0.002  0.00  0.00    -0.161 S 
ENDBRANCH  16  18
ENDBRANCH   6  16
ENDBRANCH   5  14
ENDBRANCH   1   5
BRANCH   3  19
ATOM     19  C   UNL     1      -2.086  -4.153  -5.926  0.00  0.00    +0.116 C 
BRANCH  19  20
ATOM     20  C   UNL     1      -3.190  -3.878  -6.948  0.00  0.00    +0.064 C 
BRANCH  20  21
ATOM     21  C   UNL     1      -3.154  -4.934  -8.023  0.00  0.00    -0.033 C 
ATOM     22  C   UNL     1      -4.146  -5.790  -8.356  0.00  0.00    -0.000 A 
ATOM     23  C   UNL     1      -5.504  -5.988  -7.836  0.00  0.00    +0.010 A 
ATOM     24  C   UNL     1      -6.283  -6.948  -8.385  0.00  0.00    +0.001 A 
ATOM     25  C   UNL     1      -5.826  -7.757  -9.435  0.00  0.00    +0.002 A 
ATOM     26  C   UNL     1      -4.591  -7.634  -9.966  0.00  0.00    +0.026 A 
ATOM     27  C   UNL     1      -3.688  -6.656  -9.466  0.00  0.00    +0.043 A 
ATOM     28  N   UNL     1      -2.460  -6.348  -9.805  0.00  0.00    -0.380 N 
ATOM     29  C   UNL     1      -2.002  -5.245  -8.953  0.00  0.00    +0.145 C 
ATOM     30  H   UNL     1      -1.942  -6.774 -10.506  0.00  0.00    +0.160 HD
ENDBRANCH  20  21
BRANCH  20  31
ATOM     31  C   UNL     1      -2.974  -2.522  -7.568  0.00  0.00    -0.039 A 
ATOM     32  C   UNL     1      -1.809  -2.257  -8.263  0.00  0.00    +0.004 A 
ATOM     33  C   UNL     1      -1.610  -1.013  -8.832  0.00  0.00    +0.000 A 
ATOM     34  C   UNL     1      -2.578  -0.033  -8.706  0.00  0.00    +0.000 A 
ATOM     35  C   UNL     1      -3.744  -0.298  -8.012  0.00  0.00    +0.000 A 
ATOM     36  C   UNL     1      -3.944  -1.544  -7.447  0.00  0.00    +0.004 A 
ENDBRANCH  20  31
ENDBRANCH  19  20
ENDBRANCH   3  19
TORSDOF 8
