REMARK  Name = ZINC62521154
REMARK  4 active torsions:
REMARK  status: ('A' for Active; 'I' for Inactive)
REMARK    1  A    between atoms: C_1  and  C_2
REMARK    2  A    between atoms: C_2  and  C_3
REMARK    3  A    between atoms: C_9  and  C_15
REMARK    4  A    between atoms: C_10  and  C_14
REMARK                            x       y       z     vdW  Elec       q    Type
REMARK                         _______ _______ _______ _____ _____    ______ ____
ROOT
ATOM      1  C   UNL     1      -1.433  -0.534   0.013  0.00  0.00    +0.108 C 
ATOM      2  C   UNL     1      -1.425  -2.065  -0.099  0.00  0.00    +0.251 C 
ATOM      3  O   UNL     1      -0.732  -2.605   1.030  0.00  0.00    -0.488 OA
ATOM      4  C   UNL     1      -1.089  -2.159   2.263  0.00  0.00    +0.142 A 
ATOM      5  C   UNL     1      -0.778  -2.916   3.383  0.00  0.00    +0.051 A 
ATOM      6  C   UNL     1      -1.134  -2.470   4.641  0.00  0.00    -0.044 A 
ATOM      7  C   UNL     1      -1.801  -1.268   4.792  0.00  0.00    -0.046 A 
ATOM      8  C   UNL     1      -2.115  -0.506   3.682  0.00  0.00    +0.030 A 
ATOM      9  C   UNL     1      -1.762  -0.950   2.417  0.00  0.00    +0.070 A 
ATOM     10  N   UNL     1      -2.086  -0.183   1.286  0.00  0.00    -0.335 N 
ATOM     11  C   UNL     1      -2.186  -0.788   6.168  0.00  0.00    +0.044 C 
ATOM     12  C   UNL     1      -0.795  -3.297   5.855  0.00  0.00    +0.044 C 
ATOM     13  H   UNL     1      -2.717   0.552   1.340  0.00  0.00    +0.147 HD
ENDROOT
BRANCH   1  15
ATOM     14  C   UNL     1      -0.019   1.526   0.010  0.00  0.00    +0.006 C 
ATOM     15  C   UNL     1       0.002  -0.004   0.002  0.00  0.00    +0.022 C 
ENDBRANCH   1  15
TORSDOF 1
