REMARK  Name = ZINC14471010
REMARK  6 active torsions:
REMARK  status: ('A' for Active; 'I' for Inactive)
REMARK    1  A    between atoms: C_1  and  C_2
REMARK    2  A    between atoms: C_2  and  C_3
REMARK    3  A    between atoms: C_2  and  N_4
REMARK    4  A    between atoms: C_5  and  C_7
REMARK    5  A    between atoms: C_14  and  C_23
REMARK    6  A    between atoms: C_27  and  N_29
REMARK                            x       y       z     vdW  Elec       q    Type
REMARK                         _______ _______ _______ _____ _____    ______ ____
ROOT
ATOM      1  C   UNL     1      -5.822   2.799  -1.380  0.00  0.00    +0.058 A 
ATOM      2  C   UNL     1      -7.185   2.982  -1.157  0.00  0.00    +0.015 A 
ATOM      3  C   UNL     1      -7.615   3.768  -0.110  0.00  0.00    +0.001 A 
ATOM      4  C   UNL     1      -6.688   4.380   0.718  0.00  0.00    +0.006 A 
ATOM      5  C   UNL     1      -5.336   4.213   0.511  0.00  0.00    -0.019 A 
ATOM      6  C   UNL     1      -4.872   3.412  -0.537  0.00  0.00    +0.044 A 
ATOM      7  N   UNL     1      -3.533   3.161  -0.792  0.00  0.00    -0.336 N 
ATOM      8  C   UNL     1      -2.553   3.868   0.047  0.00  0.00    +0.105 C 
ATOM      9  C   UNL     1      -3.111   3.897   1.455  0.00  0.00    +0.029 C 
ATOM     10  C   UNL     1      -4.330   4.868   1.375  0.00  0.00    +0.049 C 
ATOM     11  C   UNL     1      -4.590   5.196   2.798  0.00  0.00    -0.023 C 
ATOM     12  C   UNL     1      -3.448   5.102   3.469  0.00  0.00    -0.030 C 
ATOM     13  C   UNL     1      -2.325   4.659   2.528  0.00  0.00    +0.033 C 
ATOM     14  H   UNL     1      -3.323   3.280  -1.772  0.00  0.00    +0.147 HD
ENDROOT
BRANCH   8  15
ATOM     15  C   UNL     1      -1.237   3.133   0.031  0.00  0.00    -0.025 A 
ATOM     16  C   UNL     1      -1.218   1.751   0.017  0.00  0.00    +0.007 A 
ATOM     17  C   UNL     1      -0.013   1.076   0.008  0.00  0.00    +0.022 A 
ATOM     18  C   UNL     1       1.176   1.784   0.000  0.00  0.00    +0.071 A 
ATOM     19  C   UNL     1       1.157   3.167   0.008  0.00  0.00    +0.145 A 
ATOM     20  C   UNL     1      -0.050   3.841   0.023  0.00  0.00    +0.039 A 
ATOM     21 CL   UNL     1       2.691   0.937  -0.019  0.00  0.00    -0.081 Cl
BRANCH  19  22
ATOM     22  N   UNL     1       2.428   3.925  -0.001  0.00  0.00    +0.058 N 
ATOM     23  O   UNL     1       2.410   5.143   0.006  0.00  0.00    -0.126 OA
ATOM     24  O   UNL     1       3.491   3.332  -0.014  0.00  0.00    -0.126 OA
ENDBRANCH  19  22
ENDBRANCH   8  15
BRANCH   1  26
ATOM     25  N   UNL     1      -6.274   1.369  -3.311  0.00  0.00    -0.309 N 
ATOM     26  C   UNL     1      -5.370   1.957  -2.503  0.00  0.00    +0.246 C 
ATOM     27  O   UNL     1      -4.181   1.795  -2.701  0.00  0.00    -0.270 OA
ATOM     28  H   UNL     1      -7.222   1.499  -3.153  0.00  0.00    +0.149 HD
BRANCH  25  30
ATOM     29  C   UNL     1      -5.564  -0.889  -3.927  0.00  0.00    +0.027 C 
ATOM     30  C   UNL     1      -5.825   0.533  -4.427  0.00  0.00    +0.067 C 
ATOM     31  C   UNL     1      -6.906   0.503  -5.509  0.00  0.00    +0.027 C 
ENDBRANCH  25  30
ENDBRANCH   1  26
TORSDOF 4
