REMARK  Name = ZINC20574698
REMARK  8 active torsions:
REMARK  status: ('A' for Active; 'I' for Inactive)
REMARK    1  A    between atoms: C_1  and  O_2
REMARK    2  A    between atoms: O_2  and  C_3
REMARK    3  A    between atoms: C_6  and  N_11
REMARK    4  A    between atoms: C_7  and  O_9
REMARK    5  A    between atoms: O_9  and  C_10
REMARK    6  A    between atoms: N_11  and  S_12
REMARK    7  A    between atoms: S_12  and  C_15
REMARK    8  A    between atoms: C_18  and  C_20
REMARK                            x       y       z     vdW  Elec       q    Type
REMARK                         _______ _______ _______ _____ _____    ______ ____
ROOT
ATOM      1  S   UNL     1       3.136  -1.530  -5.509  0.00  0.00    +0.098 S 
ATOM      2  O   UNL     1       2.065  -0.853  -6.152  0.00  0.00    -0.148 OA
ATOM      3  O   UNL     1       4.232  -0.841  -4.924  0.00  0.00    -0.148 OA
ENDROOT
BRANCH   1   4
ATOM      4  C   UNL     1       3.816  -2.639  -6.697  0.00  0.00    +0.148 A 
ATOM      5  C   UNL     1       3.228  -3.178  -7.797  0.00  0.00    +0.037 A 
ATOM      6  C   UNL     1       3.955  -4.032  -8.597  0.00  0.00    +0.020 A 
ATOM      7  C   UNL     1       5.252  -4.311  -8.254  0.00  0.00    +0.041 A 
ATOM      8  S   UNL     1       5.457  -3.339  -6.770  0.00  0.00    -0.067 S 
BRANCH   7   9
ATOM      9  C   UNL     1       6.228  -5.184  -8.938  0.00  0.00    +0.098 A 
ATOM     10  C   UNL     1       7.533  -5.334  -8.408  0.00  0.00    +0.036 A 
ATOM     11  C   UNL     1       8.406  -6.148  -9.066  0.00  0.00    +0.073 A 
ATOM     12  C   UNL     1       7.954  -6.793 -10.239  0.00  0.00    +0.265 A 
ATOM     13  O   UNL     1       8.701  -7.531 -10.861  0.00  0.00    -0.266 OA
ATOM     14  N   UNL     1       6.694  -6.588 -10.666  0.00  0.00    -0.243 N 
ATOM     15  N   UNL     1       5.881  -5.822 -10.033  0.00  0.00    -0.170 NA
ATOM     16  H   UNL     1       6.391  -7.034 -11.472  0.00  0.00    +0.192 HD
ENDBRANCH   7   9
ENDBRANCH   1   4
BRANCH   1  17
ATOM     17  N   UNL     1       2.462  -2.451  -4.309  0.00  0.00    -0.094 NA
BRANCH  17  21
ATOM     18  C   UNL     1       0.606  -0.608  -1.056  0.00  0.00    +0.124 A 
ATOM     19  C   UNL     1       1.173   0.162  -2.062  0.00  0.00    +0.048 A 
ATOM     20  C   UNL     1       1.787  -0.449  -3.139  0.00  0.00    +0.034 A 
ATOM     21  C   UNL     1       1.839  -1.832  -3.216  0.00  0.00    +0.116 A 
ATOM     22  C   UNL     1       1.271  -2.606  -2.207  0.00  0.00    +0.148 A 
ATOM     23  C   UNL     1       0.660  -1.992  -1.127  0.00  0.00    +0.093 A 
BRANCH  18  25
ATOM     24  C   UNL     1      -0.017   1.425   0.010  0.00  0.00    +0.277 C 
ATOM     25  O   UNL     1       0.002  -0.004   0.002  0.00  0.00    -0.495 OA
ENDBRANCH  18  25
BRANCH  22  26
ATOM     26  O   UNL     1       1.319  -3.963  -2.281  0.00  0.00    -0.493 OA
ATOM     27  C   UNL     1       0.717  -4.693  -1.210  0.00  0.00    +0.277 C 
ENDBRANCH  22  26
ENDBRANCH  17  21
ENDBRANCH   1  17
TORSDOF 6
