REMARK  Name = ZINC09811702
REMARK  11 active torsions:
REMARK  status: ('A' for Active; 'I' for Inactive)
REMARK    1  A    between atoms: C_1  and  C_2
REMARK    2  A    between atoms: C_5  and  C_8
REMARK    3  A    between atoms: C_8  and  N_9
REMARK    4  A    between atoms: C_11  and  C_15
REMARK    5  A    between atoms: C_12  and  C_14
REMARK    6  A    between atoms: C_15  and  O_17
REMARK    7  A    between atoms: O_17  and  C_18
REMARK    8  A    between atoms: C_18  and  C_19
REMARK    9  A    between atoms: N_21  and  C_22
REMARK   10  A    between atoms: C_23  and  C_30
REMARK   11  A    between atoms: C_25  and  C_29
REMARK                            x       y       z     vdW  Elec       q    Type
REMARK                         _______ _______ _______ _____ _____    ______ ____
ROOT
ATOM      1  C   UNL     1       1.273  -0.056   2.839  0.00  0.00    +0.344 C 
ATOM      2  O   UNL     1       0.740  -0.689   1.948  0.00  0.00    -0.245 OA
ENDROOT
BRANCH   1   5
ATOM      3  N   UNL     1      -0.505   0.480   5.953  0.00  0.00    -0.248 N 
ATOM      4  C   UNL     1      -0.242   0.836   4.684  0.00  0.00    +0.142 A 
ATOM      5  C   UNL     1       0.693  -0.057   4.191  0.00  0.00    +0.118 A 
ATOM      6  C   UNL     1       0.989  -0.966   5.232  0.00  0.00    +0.075 A 
ATOM      7  N   UNL     1       0.274  -0.638   6.271  0.00  0.00    -0.174 NA
ATOM      8  C   UNL     1       1.962  -2.114   5.155  0.00  0.00    +0.068 C 
ATOM      9 CL   UNL     1      -0.949   2.166   3.822  0.00  0.00    -0.061 Cl
BRANCH   3  10
ATOM     10  C   UNL     1      -1.444   1.155   6.853  0.00  0.00    +0.180 C 
BRANCH  10  15
ATOM     11  C   UNL     1       1.324   5.314   9.757  0.00  0.00    +0.044 C 
ATOM     12  C   UNL     1       0.602   4.230   9.000  0.00  0.00    -0.050 A 
ATOM     13  C   UNL     1       0.003   4.515   7.787  0.00  0.00    +0.004 A 
ATOM     14  C   UNL     1      -0.659   3.519   7.092  0.00  0.00    +0.006 A 
ATOM     15  C   UNL     1      -0.722   2.239   7.611  0.00  0.00    -0.026 A 
ATOM     16  C   UNL     1      -0.127   1.956   8.826  0.00  0.00    +0.006 A 
ATOM     17  C   UNL     1       0.538   2.950   9.518  0.00  0.00    +0.004 A 
ENDBRANCH  10  15
ENDBRANCH   3  10
ENDBRANCH   1   5
BRANCH   1  18
ATOM     18  O   UNL     1       2.393   0.650   2.587  0.00  0.00    -0.452 OA
BRANCH  18  19
ATOM     19  C   UNL     1       2.906   0.610   1.229  0.00  0.00    +0.328 C 
BRANCH  19  20
ATOM     20  C   UNL     1       4.153   1.451   1.138  0.00  0.00    +0.255 C 
ATOM     21  O   UNL     1       4.568   2.029   2.120  0.00  0.00    -0.272 OA
ATOM     22  N   UNL     1       4.806   1.563  -0.035  0.00  0.00    -0.281 N 
ATOM     23  H   UNL     1       4.518   1.044  -0.803  0.00  0.00    +0.155 HD
BRANCH  22  24
ATOM     24  C   UNL     1       5.902   2.427  -0.147  0.00  0.00    +0.055 A 
ATOM     25  C   UNL     1       7.190   1.945   0.045  0.00  0.00    -0.028 A 
ATOM     26  C   UNL     1       8.270   2.800  -0.066  0.00  0.00    +0.008 A 
ATOM     27  C   UNL     1       8.069   4.135  -0.368  0.00  0.00    -0.049 A 
ATOM     28  C   UNL     1       6.788   4.618  -0.560  0.00  0.00    +0.025 A 
ATOM     29  C   UNL     1       5.704   3.767  -0.456  0.00  0.00    +0.063 A 
ATOM     30 CL   UNL     1       4.096   4.373  -0.703  0.00  0.00    -0.082 Cl
ATOM     31  C   UNL     1       9.249   5.064  -0.488  0.00  0.00    +0.044 C 
ATOM     32  C   UNL     1       7.411   0.491   0.375  0.00  0.00    +0.046 C 
ENDBRANCH  22  24
ENDBRANCH  19  20
ENDBRANCH  18  19
ENDBRANCH   1  18
TORSDOF 7
